data_mof_unit_19022.cif
_audit_creation_date              2012-12-11T14:08:14-0500
_audit_creation_method            fapswitch 2.2
_symmetry_space_group_name_H-M    P1
_symmetry_Int_Tables_number       1
_space_group_crystal_system       triclinic
_cell_length_a                    10.989457
_cell_length_b                    10.89763
_cell_length_c                    18.702693
_cell_angle_alpha                 89.207359
_cell_angle_beta                  89.418935
_cell_angle_gamma                 60.082868
_cell_volume                      1941.15634536

loop_
_atom_site_label
_atom_site_type_symbol
_atom_type_description
_atom_site_fract_x
_atom_site_fract_y
_atom_site_fract_z
_atom_type_partial_charge
C1    C     C_R   0.235583 0.644564 0.608809 0.568199
C2    C     C_3   0.681920 0.534512 0.804242 -0.176898
C3    C     C_3   0.693283 0.670371 0.815321 0.025525
C4    C     C_3   0.669072 0.639946 0.679227 -0.053369
C5    C     C_3   0.784901 0.678549 0.689890 -0.201867
C6    C     C_3   0.704336 0.499252 0.723217 -0.139439
C7    C     C_2   0.677050 0.134195 0.665526 0.421859
C8    C     C_2   0.701367 0.148946 0.822860 0.443911
C9    C     C_2   0.808208 0.069036 0.777467 -0.099792
C10   C     C_2   0.799886 0.092650 0.698773 -0.019180
C11   C     C_2   0.179111 0.658309 0.681484 -0.128186
C12   C     C_R   0.651918 0.618525 0.603166 0.545543
C13   C     C_2   0.192274 0.662356 0.838696 -0.029150
C14   C     C_2   0.190435 0.557705 0.801975 0.350566
C15   C     C_2   0.207819 0.544350 0.723835 -0.026468
C16   C     C_2   0.678880 0.692463 0.336632 0.439236
C17   C     C_2   0.701033 0.707829 0.178463 0.397037
C18   C     C_2   0.807931 0.652656 0.224537 -0.113011
C19   C     C_2   0.792846 0.612890 0.297011 -0.066831
C20   C     C_2   0.670060 0.141103 0.333588 -0.041934
C21   C     C_2   0.643351 0.168274 0.173187 0.018684
C22   C     C_2   0.597452 0.103200 0.219151 -0.098598
C23   C     C_R   0.630038 0.221389 0.599955 0.568917
C24   C     C_2   0.576031 0.129823 0.294246 -0.010477
C25   C     C_2   0.317356 0.601678 0.317852 0.437863
C26   C     C_2   0.181417 0.645994 0.175541 0.382818
C27   C     C_2   0.268043 0.692636 0.195534 -0.049708
C28   C     C_2   0.289069 0.708736 0.271175 0.024991
C29   C     C_R   0.705624 0.098441 0.896125 0.644033
C30   C     C_R   0.720451 0.686647 0.890072 0.657976
C31   C     C_R   0.119518 0.706053 0.907492 0.609586
C32   C     C_R   0.674006 0.109689 0.102863 0.503634
C33   C     C_R   0.732394 0.718210 0.104591 0.541111
C34   C     C_R   0.302540 0.615604 0.395359 0.586902
C35   C     C_R   0.098660 0.705154 0.111535 0.530397
C36   C     C_R   0.646086 0.628700 0.396866 0.571330
C37   C     C_R   0.621078 0.222688 0.397948 0.586460
C38   C     C_3   0.553991 0.798137 0.786789 0.222606
C39   C     C_3   0.530144 0.766109 0.709864 -0.225723
C40   C     C_3   0.817562 0.665433 0.770159 0.177198
Cr1   Cr    Cr6+3 0.393010 0.398050 0.501480 1.136325
Cr2   Cr    Cr6+3 0.398820 0.707980 0.501630 1.111028
Cr3   Cr    Cr6+3 0.708140 0.393940 0.496850 1.108962
Cr4   Cr    Cr6+3 0.937950 0.938450 0.008940 1.057699
Cr5   Cr    Cr6+3 0.626180 0.937030 0.994750 1.138992
Cr6   Cr    Cr6+3 0.937790 0.625760 0.001410 1.122051
H1    H     H_    0.561916 0.896123 0.786502 0.233030
H2    H     H_    0.915109 0.563086 0.780336 0.213336
H3    H     H_    0.881609 0.612189 0.658504 0.200569
H4    H     H_    0.904428 0.980687 0.798507 0.112819
H5    H     H_    0.224863 0.731582 0.813345 0.082420
H6    H     H_    0.135056 0.762540 0.704778 0.088780
H7    H     H_    0.913369 0.615757 0.205058 0.161936
H8    H     H_    0.872429 0.507911 0.314690 0.130761
H9    H     H_    0.573383 0.023456 0.200687 0.185385
H10   H     H_    0.476007 0.148618 0.315777 0.222820
H11   H     H_    0.772132 0.115421 0.311819 0.108122
H12   H     H_    0.291669 0.754973 0.157823 0.129164
H13   H     H_    0.445332 0.738410 0.709475 0.168086
H14   H     H_    0.494339 0.863410 0.676451 0.164768
H15   H     H_    0.746895 0.789219 0.671133 0.175150
H16   H     H_    0.571822 0.561964 0.816949 0.220281
H17   H     H_    0.627454 0.466107 0.707579 0.125906
O1    O     O_R   0.507110 0.256280 0.580300 -0.472520
O2    O     O_R   0.524640 0.695370 0.425100 -0.449794
O3    O     O_R   0.735890 0.504390 0.415980 -0.546389
O4    O     O_R   0.690560 0.277820 0.422350 -0.481631
O5    O     O_3   0.499990 0.499990 0.499980 -0.338255
O6    O     O_R   0.089190 0.825870 0.932320 -0.509250
O7    O     O_R   0.819070 0.053960 0.931440 -0.517055
O8    O     O_R   0.607070 0.076440 0.916460 -0.454858
O9    O     O_R   0.647110 0.806550 0.917690 -0.445635
O10   O     O_R   0.837080 0.593860 0.915300 -0.493888
O11   O     O_R   0.064770 0.636080 0.932550 -0.409925
O12   O     O_R   0.280830 0.527190 0.577940 -0.459782
O13   O     O_R   0.068250 0.829200 0.092940 -0.554298
O14   O     O_R   0.799650 0.057040 0.080330 -0.514175
O15   O     O_R   0.586130 0.079760 0.077080 -0.507760
O16   O     O_R   0.627700 0.809630 0.066580 -0.457586
O17   O     O_R   0.816140 0.597180 0.075920 -0.516364
O18   O     O_R   0.045360 0.639170 0.081440 -0.499944
O19   O     O_3   0.833980 0.833750 0.001700 -0.322988
O20   O     O_R   0.261360 0.738990 0.584270 -0.490047
O21   O     O_R   0.532590 0.694780 0.574370 -0.522753
O22   O     O_R   0.744470 0.503750 0.577000 -0.447443
O23   O     O_R   0.698520 0.277230 0.571620 -0.492857
O24   O     O_R   0.498530 0.256920 0.419280 -0.493241
O25   O     O_R   0.272880 0.527780 0.428680 -0.452908
O26   O     O_R   0.252780 0.739630 0.423250 -0.497992
C41   C     C_2   0.849719 0.370943 0.709900 0.245176
H18   H     H_    0.877852 0.273527 0.737946 0.078670
O27   O     O_2   0.937904 0.373383 0.670844 -0.437779
C42   C     C_2   0.932166 0.053530 0.659263 0.194840
H19   H     H_    0.024247 0.036324 0.688545 0.125193
O28   O     O_2   0.942171 0.033537 0.594863 -0.469274
F1    F     F_    0.581482 0.264671 0.799709 -0.621360
F2    F     F_    0.579935 0.109729 0.698660 -0.628580
F3    F     F_    0.165661 0.461139 0.836496 -0.608752
C43   C     C_2   0.247880 0.401577 0.696551 0.368782
H20   H     H_    0.324518 0.308372 0.725549 0.223750
O29   O     O_2   0.187476 0.386742 0.645852 -0.433768
F4    F     F_    0.440325 0.822142 0.829499 -0.639318
F5    F     F_    0.567971 0.741741 0.197412 -0.580448
F6    F     F_    0.588794 0.830202 0.319068 -0.586046
C44   C     C_2   0.672717 0.284662 0.188785 0.246765
H21   H     H_    0.738058 0.304802 0.152064 0.127966
O30   O     O_2   0.620404 0.362977 0.239645 -0.446730
C45   C     C_2   0.255963 0.854380 0.290075 0.258181
H22   H     H_    0.177191 0.943675 0.259430 0.100953
O31   O     O_2   0.321110 0.876563 0.335481 -0.384783
F7    F     F_    0.145591 0.569823 0.220274 -0.612482
F8    F     F_    0.359616 0.469803 0.292568 -0.555003
F9    F     F_    0.842771 0.773171 0.789383 -0.678720
C46   C     C_2   0.771673 0.411891 0.854664 0.221327
H23   H     H_    0.885404 0.357283 0.851070 0.140407
O32   O     O_2   0.716903 0.378657 0.902449 -0.473768

loop_
_geom_bond_atom_site_label_1
_geom_bond_atom_site_label_2
_ccdc_geom_bond_type
C7    C10   D    
C42   H19   S    
Cr5   O8    S    
Cr5   O19   S    
C8    F1    S    
C46   H23   S    
C35   O18   A    
C25   C28   D    
C44   O30   D    
C26   C27   D    
C12   O22   A    
C8    C29   S    
Cr4   O14   S    
Cr4   O19   S    
Cr3   O3    S    
C38   C39   S    
C36   O3    A    
C45   H22   S    
C12   O21   A    
C18   C19   S    
Cr4   O13   S    
C11   H6    S    
C18   H7    S    
C32   O14   A    
C13   H5    S    
C11   C15   D    
C16   F6    S    
C20   C24   D    
C3    C38   S    
C8    C9    D    
C23   O23   A    
C1    C11   S    
Cr2   O2    S    
Cr4   O7    S    
Cr5   O15   S    
C4    C12   S    
C9    C10   S    
C25   F8    S    
C25   C34   S    
C42   O28   D    
Cr6   O19   S    
C21   C22   D    
Cr5   O9    S    
Cr2   O5    S    
C5    H3    S    
C2    C6    S    
C17   C33   S    
C13   C31   S    
C14   F3    S    
Cr1   O5    S    
Cr1   O24   S    
C21   C32   S    
C35   O13   A    
C9    H4    S    
Cr3   O22   S    
Cr2   O21   S    
C4    C6    S    
C30   O10   A    
C36   O2    A    
C33   O16   A    
C31   O11   A    
C10   C42   S    
C6    C41   S    
C46   O32   D    
C1    O12   A    
C6    H17   S    
C3    C30   S    
Cr1   O12   S    
Cr6   O18   S    
C41   O27   D    
C40   F9    S    
C4    C39   S    
C39   H13   S    
C17   C18   D    
C5    H15   S    
Cr4   O6    S    
Cr5   O16   S    
C34   O25   A    
C38   H1    S    
C19   H8    S    
C23   O1    A    
C43   O29   D    
C3    C40   S    
C22   C24   S    
C1    O20   A    
Cr6   O11   S    
C29   O7    A    
C40   H2    S    
Cr1   O25   S    
C7    F2    S    
Cr3   O23   S    
C37   O24   A    
Cr2   O20   S    
C15   C43   S    
C4    C5    S    
C27   H12   S    
C30   O9    A    
C33   O17   A    
C22   H9    S    
C24   H10   S    
C44   H21   S    
Cr3   O5    S    
C43   H20   S    
Cr2   O26   S    
C2    C3    S    
C17   F5    S    
C34   O26   A    
C38   F4    S    
C16   C36   S    
Cr6   O17   S    
C20   C37   S    
C2    C46   S    
C41   H18   S    
C28   C45   S    
C16   C19   D    
C7    C23   S    
C39   H14   S    
C37   O4    A    
C45   O31   D    
C32   O15   A    
C26   C35   S    
C31   O6    A    
Cr3   O4    S    
C5    C40   S    
C27   C28   S    
C14   C15   S    
Cr1   O1    S    
C20   H11   S    
C13   C14   D    
C26   F7    S    
Cr6   O10   S    
C21   C44   S    
C2    H16   S    
C29   O8    A    
