data_mof_unit_11785.cif
_audit_creation_date              2012-12-11T14:52:50-0500
_audit_creation_method            fapswitch 2.2
_symmetry_space_group_name_H-M    P1
_symmetry_Int_Tables_number       1
_space_group_crystal_system       triclinic
_cell_length_a                    20.632696
_cell_length_b                    7.263268
_cell_length_c                    20.365726
_cell_angle_alpha                 90.000025
_cell_angle_beta                  101.46878
_cell_angle_gamma                 90.000031
_cell_volume                      2991.08482942

loop_
_atom_site_label
_atom_site_type_symbol
_atom_type_description
_atom_site_fract_x
_atom_site_fract_y
_atom_site_fract_z
_atom_type_partial_charge
O1    O     O_R   0.673670 0.377510 0.185950 -0.544140
O2    O     O_R   0.326330 0.622490 0.814050 -0.511487
O3    O     O_R   0.826330 0.877510 0.314050 -0.544141
O4    O     O_R   0.173670 0.122490 0.685950 -0.511487
O5    O     O_R   0.806260 0.705340 0.185590 -0.533236
O6    O     O_R   0.193740 0.294660 0.814410 -0.544242
O7    O     O_R   0.693740 0.205340 0.314410 -0.533235
O8    O     O_R   0.306260 0.794660 0.685590 -0.544242
C1    C     C_R   0.825514 0.538948 0.170889 0.705809
C2    C     C_R   0.174468 0.461081 0.829093 0.724967
C3    C     C_R   0.674486 0.038948 0.329111 0.705812
C4    C     C_R   0.325532 0.961082 0.670907 0.724964
O9    O     O_R   0.672940 0.707120 0.178050 -0.532570
O10   O     O_R   0.327060 0.292880 0.821950 -0.548041
O11   O     O_R   0.827060 0.207120 0.321950 -0.532570
O12   O     O_R   0.172940 0.792880 0.678050 -0.548041
O13   O     O_R   0.692060 0.879040 0.306460 -0.524063
O14   O     O_R   0.307940 0.120960 0.693540 -0.513725
O15   O     O_R   0.807940 0.379040 0.193540 -0.524064
O16   O     O_R   0.192060 0.620960 0.806460 -0.513724
C5    C     C_R   0.649228 0.538969 0.161175 0.767905
C6    C     C_R   0.350407 0.461197 0.839393 0.823735
C7    C     C_R   0.850772 0.038970 0.338825 0.767901
C8    C     C_R   0.149593 0.961196 0.660607 0.823730
O17   O     O_3   0.756430 0.544390 0.292140 -0.380670
O18   O     O_3   0.243570 0.455610 0.707860 -0.370082
O19   O     O_3   0.743570 0.044390 0.207860 -0.380670
O20   O     O_3   0.256430 0.955610 0.792140 -0.370084
V1    V     V_3+5 0.748810 0.818610 0.242180 1.487365
V2    V     V_3+5 0.251190 0.181390 0.757820 1.554892
V3    V     V_3+5 0.751190 0.318610 0.257820 1.487365
V4    V     V_3+5 0.248810 0.681390 0.742180 1.554894
C9    C     C_R   0.087938 0.967680 0.608110 -0.182194
C10   C     C_R   0.912719 0.032845 0.390823 -0.218723
C11   C     C_R   0.412062 0.467681 0.891889 -0.182193
C12   C     C_R   0.587281 0.532845 0.109177 -0.218722
C13   C     C_R   0.025559 0.141784 0.431594 0.373197
C14   C     C_R   0.975448 0.856483 0.566489 0.443181
C15   C     C_R   0.474440 0.641778 0.068407 0.373194
C16   C     C_R   0.524552 0.356487 0.933511 0.443182
C17   C     C_R   0.970483 0.120021 0.378709 -0.084672
C18   C     C_R   0.030317 0.877983 0.619571 -0.128262
C19   C     C_R   0.529516 0.620014 0.121292 -0.084673
C20   C     C_R   0.469684 0.377987 0.880429 -0.128262
C21   C     C_R   0.911994 0.960329 0.455223 -0.105066
C22   C     C_R   0.088563 0.042617 0.543816 -0.089346
C23   C     C_R   0.588006 0.460332 0.044776 -0.105067
C24   C     C_R   0.411436 0.542614 0.956185 -0.089345
C25   C     C_R   0.971589 0.954565 0.505283 -0.024164
C26   C     C_R   0.029109 0.046775 0.493516 -0.096053
C27   C     C_R   0.528411 0.454567 0.994717 -0.024164
C28   C     C_R   0.470890 0.546773 0.006484 -0.096052
C29   C     C_3   0.557004 0.081955 0.533392 0.288708
C30   C     C_3   0.444853 0.928846 0.468363 0.318235
C31   C     C_3   0.942996 0.581954 0.966608 0.288708
C32   C     C_3   0.055146 0.428846 0.031637 0.318234
C33   C     C_3   0.526560 0.900138 0.554292 0.298727
C34   C     C_3   0.475349 0.109211 0.447730 0.323140
C35   C     C_3   0.973439 0.400138 0.945708 0.298726
C36   C     C_3   0.024651 0.609212 0.052270 0.323141
C37   C     C_1   0.371060 0.968344 0.625324 -0.153496
C38   C     C_1   0.629206 0.032314 0.374961 -0.140130
C39   C     C_1   0.128940 0.468344 0.874676 -0.153495
C40   C     C_1   0.870793 0.532314 0.125039 -0.140131
C41   C     C_3   0.488313 0.175858 0.521215 0.264867
C42   C     C_3   0.513378 0.834996 0.480607 0.299716
C43   C     C_3   0.011687 0.675858 0.978785 0.264867
C44   C     C_3   0.986622 0.334996 0.019393 0.299716
C45   C     C_3   0.457461 0.994081 0.542485 -0.225808
C46   C     C_3   0.544084 0.015589 0.459300 -0.222039
C47   C     C_3   0.042539 0.494081 0.957514 -0.225807
C48   C     C_3   0.955916 0.515589 0.040700 -0.222039
C49   C     C_1   0.409748 0.976643 0.587712 0.087530
C50   C     C_1   0.590956 0.026946 0.413072 0.122864
C51   C     C_1   0.090252 0.476643 0.912288 0.087530
C52   C     C_1   0.909044 0.526946 0.086928 0.122865
C53   C     C_2   0.153028 0.094067 0.526624 0.400039
H1    H     H_    0.165625 0.042043 0.480795 0.086721
O21   O     O_2   0.191327 0.198580 0.561796 -0.532721
C54   C     C_2   0.846778 0.909619 0.470685 0.472430
H2    H     H_    0.812449 0.824453 0.436362 0.016064
O22   O     O_2   0.829673 0.970819 0.520445 -0.501811
C55   C     C_2   0.346971 0.594060 0.973377 0.400039
H3    H     H_    0.334375 0.542035 0.019206 0.086721
O23   O     O_2   0.308671 0.698571 0.938204 -0.532722
C56   C     C_2   0.653222 0.409627 0.029314 0.472432
H4    H     H_    0.687553 0.324464 0.063637 0.016061
O24   O     O_2   0.670327 0.470828 0.979554 -0.501811
C57   C     C_2   0.025716 0.801002 0.686518 0.369524
H5    H     H_    0.989978 0.694222 0.690630 0.099905
O25   O     O_2   0.059593 0.860678 0.738168 -0.551681
C58   C     C_2   0.975015 0.193934 0.311282 0.379524
H6    H     H_    0.011621 0.297547 0.306395 0.093776
O26   O     O_2   0.940026 0.135280 0.260075 -0.530024
C59   C     C_2   0.474285 0.301010 0.813481 0.369520
H7    H     H_    0.510024 0.194235 0.809368 0.099907
O27   O     O_2   0.440407 0.360684 0.761831 -0.551681
C60   C     C_2   0.524983 0.693920 0.188720 0.379514
H8    H     H_    0.488373 0.797518 0.193608 0.093782
O28   O     O_2   0.559975 0.635273 0.239926 -0.530023
O29   O     O_3   0.076512 0.255392 0.421350 -0.569269
C61   C     C_3   0.065222 0.433484 0.444486 -0.253193
H9    H     H_    0.017761 0.491909 0.416654 0.114072
H10   H     H_    0.105580 0.525402 0.435713 0.174811
H11   H     H_    0.065984 0.433561 0.499273 0.154064
O30   O     O_3   0.925215 0.738687 0.575585 -0.538532
C62   C     C_3   0.937357 0.563735 0.550362 -0.265532
H12   H     H_    0.985150 0.505537 0.577480 0.121827
H13   H     H_    0.936464 0.569003 0.495579 0.122104
H14   H     H_    0.897526 0.468554 0.558150 0.196650
O31   O     O_3   0.423486 0.755384 0.078652 -0.569271
C63   C     C_3   0.434777 0.933478 0.055518 -0.253194
H15   H     H_    0.434018 0.933560 0.000732 0.154061
H16   H     H_    0.482236 0.991903 0.083353 0.114076
H17   H     H_    0.394417 0.025393 0.064290 0.174811
O32   O     O_3   0.574786 0.238691 0.924414 -0.538533
C64   C     C_3   0.562644 0.063739 0.949638 -0.265533
H18   H     H_    0.514850 0.005540 0.922518 0.121830
H19   H     H_    0.563535 0.069008 0.004420 0.122105
H20   H     H_    0.602475 0.968559 0.941851 0.196651
O33   O     O_3   0.548482 0.784168 0.610192 -0.537296
C65   C     C_3   0.618163 0.784880 0.629136 -0.153469
H21   H     H_    0.634583 0.891169 0.667745 0.154718
H22   H     H_    0.643903 0.802958 0.586460 0.140842
H23   H     H_    0.634674 0.652083 0.653352 0.127163
O34   O     O_3   0.451666 0.213671 0.389404 -0.534380
C66   C     C_3   0.393086 0.306331 0.395272 -0.148276
H24   H     H_    0.404831 0.432957 0.425694 0.220044
H25   H     H_    0.358194 0.217993 0.416452 0.128138
H26   H     H_    0.367354 0.349567 0.344538 0.132411
O35   O     O_3   0.951518 0.284168 0.889808 -0.537296
C67   C     C_3   0.881837 0.284879 0.870864 -0.153470
H27   H     H_    0.865417 0.391169 0.832255 0.154718
H28   H     H_    0.856097 0.302957 0.913540 0.140842
H29   H     H_    0.865326 0.152083 0.846648 0.127163
O36   O     O_3   0.048333 0.713671 0.110596 -0.534380
C68   C     C_3   0.106914 0.806332 0.104728 -0.148276
H30   H     H_    0.095169 0.932957 0.074305 0.220044
H31   H     H_    0.141806 0.717994 0.083548 0.128139
H32   H     H_    0.132645 0.849568 0.155462 0.132412
O37   O     O_3   0.617523 0.160915 0.565697 -0.545132
C69   C     C_3   0.610128 0.242315 0.626759 -0.187817
H33   H     H_    0.578810 0.160359 0.654595 0.139404
H34   H     H_    0.588251 0.380835 0.617807 0.193506
H35   H     H_    0.659717 0.257618 0.659366 0.145146
O38   O     O_3   0.384459 0.845203 0.438120 -0.543893
C70   C     C_3   0.382458 0.816619 0.369273 -0.179340
H36   H     H_    0.427899 0.749436 0.359265 0.183745
H37   H     H_    0.373394 0.947744 0.341090 0.160465
H38   H     H_    0.340368 0.723907 0.349575 0.133199
O39   O     O_3   0.882477 0.660915 0.934303 -0.545132
C71   C     C_3   0.889872 0.742314 0.873241 -0.187816
H39   H     H_    0.921190 0.660359 0.845404 0.139405
H40   H     H_    0.911748 0.880834 0.882193 0.193505
H41   H     H_    0.840283 0.757617 0.840634 0.145146
O40   O     O_3   0.115541 0.345204 0.061880 -0.543893
C72   C     C_3   0.117542 0.316619 0.130727 -0.179338
H42   H     H_    0.072101 0.249436 0.140735 0.183746
H43   H     H_    0.126606 0.447745 0.158909 0.160465
H44   H     H_    0.159632 0.223908 0.150425 0.133198
O41   O     O_3   0.519352 0.656617 0.454705 -0.523020
C73   C     C_3   0.585085 0.593725 0.471071 -0.016816
H45   H     H_    0.596584 0.544115 0.523315 0.165947
H46   H     H_    0.621822 0.698360 0.462906 0.077650
H47   H     H_    0.590216 0.474316 0.438527 0.171083
O42   O     O_3   0.481678 0.363375 0.537504 -0.529329
C74   C     C_3   0.429368 0.389458 0.571326 -0.113281
H48   H     H_    0.441990 0.330282 0.622563 0.161959
H49   H     H_    0.382144 0.332569 0.542512 0.113453
H50   H     H_    0.422075 0.539569 0.576797 0.191808
O43   O     O_3   0.980647 0.156617 0.045295 -0.523020
C75   C     C_3   0.914915 0.093725 0.028929 -0.016815
H51   H     H_    0.903416 0.044114 0.976685 0.165947
H52   H     H_    0.878178 0.198360 0.037094 0.077649
H53   H     H_    0.909784 0.974316 0.061473 0.171083
O44   O     O_3   0.018322 0.863375 0.962496 -0.529329
C76   C     C_3   0.070632 0.889458 0.928673 -0.113283
H54   H     H_    0.058010 0.830282 0.877437 0.161959
H55   H     H_    0.117856 0.832569 0.957488 0.113454
H56   H     H_    0.077925 0.039569 0.923202 0.191808

loop_
_geom_bond_atom_site_label_1
_geom_bond_atom_site_label_2
_ccdc_geom_bond_type
O17   V3    S    
C13   O29   S    
O43   C75   S    
O1    C5    A    
O34   C66   S    
C4    C37   S    
C31   C35   S    
O19   V1    S    
C1    C40   S    
O13   V1    S    
O12   C8    A    
O3    C7    A    
C2    C39   S    
C19   C60   S    
C33   C42   S    
C32   O40   S    
C3    C38   S    
O15   V3    S    
C63   H16   S    
O41   C73   S    
C74   H49   S    
C5    C12   S    
C16   O32   S    
C53   H1    S    
O7    C3    A    
C6    C11   S    
C68   H31   S    
C35   O35   S    
O29   C61   S    
C61   H11   S    
C9    C18   A    
O9    V1    S    
O40   C72   S    
C70   H37   S    
C14   C18   A    
C64   H19   S    
C30   C34   S    
O4    C8    A    
C44   O43   S    
C56   O24   D    
O30   C62   S    
C36   C48   S    
C60   H8    S    
O1    V3    S    
O32   C64   S    
O11   V3    S    
C12   C23   A    
O2    V4    S    
O3    V1    S    
C70   H36   S    
O37   C69   S    
C1    O15   A    
C72   H42   S    
C59   H7    S    
C36   C43   S    
C2    O16   A    
C67   H27   S    
C76   H55   S    
C46   C50   S    
O39   C71   S    
C45   C49   S    
O14   V2    S    
C57   O25   D    
C29   C41   S    
C36   O36   S    
C16   C20   A    
C43   C47   S    
C31   C48   S    
C75   H53   S    
C48   C52   S    
C30   O38   S    
C76   H56   S    
O11   C7    A    
C15   C28   A    
C72   H43   S    
C9    C22   A    
C62   H13   S    
C69   H35   S    
C10   C17   A    
O10   V2    S    
C29   C46   S    
C63   H15   S    
C75   H52   S    
C74   H50   S    
O5    V1    S    
C53   O21   D    
C68   H32   S    
O7    V3    S    
C27   C28   A    
O8    V4    S    
C23   C56   S    
C70   H38   S    
C54   O22   D    
C64   H20   S    
C74   H48   S    
C14   C25   A    
C29   C33   S    
C56   H4    S    
C34   C46   S    
C23   C27   A    
C37   C49   T    
C32   C44   S    
C41   O42   S    
C32   C36   S    
C42   O41   S    
C44   C48   S    
C14   O30   S    
C66   H25   S    
O5    C1    A    
C35   C44   S    
C73   H47   S    
C34   C41   S    
C31   C43   S    
C55   H3    S    
C71   H41   S    
C21   C25   A    
C43   O44   S    
O8    C4    A    
C32   C47   S    
C58   O26   D    
C40   C52   T    
O9    C5    A    
C10   C21   A    
C61   H10   S    
C11   C20   A    
O33   C65   S    
C30   C42   S    
O44   C76   S    
C55   O23   D    
C71   H40   S    
C76   H54   S    
C72   H44   S    
C60   O28   D    
O42   C74   S    
C62   H14   S    
C69   H34   S    
O12   V4    S    
C62   H12   S    
C65   H22   S    
O35   C67   S    
C75   H51   S    
O38   C70   S    
O16   V4    S    
C31   O39   S    
C3    O13   A    
C7    C10   S    
O31   C63   S    
O6    V2    S    
C54   H2    S    
O6    C2    A    
C22   C53   S    
C15   C19   A    
C59   O27   D    
C34   O34   S    
O18   V4    S    
C73   H45   S    
C16   C27   A    
C68   H30   S    
C22   C26   A    
C8    C9    S    
C24   C55   S    
C18   C57   S    
O10   C6    A    
C65   H23   S    
O20   V2    S    
C65   H21   S    
C66   H26   S    
C20   C59   S    
O2    C6    A    
C47   C51   S    
C13   C26   A    
C42   C46   S    
C30   C45   S    
C39   C51   T    
C67   H29   S    
C41   C45   S    
C15   O31   S    
C58   H6    S    
C21   C54   S    
C29   O37   S    
C13   C17   A    
C61   H9    S    
C73   H46   S    
C11   C24   A    
C33   O33   S    
C24   C28   A    
C17   C58   S    
C71   H39   S    
C67   H28   S    
C25   C26   A    
C4    O14   A    
C69   H33   S    
C38   C50   T    
C12   C19   A    
C33   C45   S    
C57   H5    S    
C64   H18   S    
C63   H17   S    
O4    V2    S    
O36   C68   S    
C66   H24   S    
C35   C47   S    
