data_mof_unit_26169.cif
_audit_creation_date              2012-10-26T20:34:04-0400
_audit_creation_method            fapswitch 2.2
_symmetry_space_group_name_H-M    P1
_symmetry_Int_Tables_number       1
_space_group_crystal_system       monoclinic
_cell_length_a                    15.897763
_cell_length_b                    9.105582
_cell_length_c                    7.850417
_cell_angle_alpha                 90.0
_cell_angle_beta                  89.968707
_cell_angle_gamma                 90.0
_cell_volume                      1136.41351396

loop_
_atom_site_label
_atom_site_type_symbol
_atom_type_description
_atom_site_fract_x
_atom_site_fract_y
_atom_site_fract_z
_atom_type_partial_charge
C1    C     C_R   0.500000 0.220256 0.500000 0.548227
C2    C     C_3   0.049300 0.403149 0.325926 0.433915
C3    C     C_3   0.950700 0.403149 0.674074 0.433915
C4    C     C_3   0.948920 0.385147 0.342042 0.423181
C5    C     C_1   0.749471 0.494100 0.500213 -0.051977
C6    C     C_1   0.250529 0.494100 0.499787 -0.051976
C7    C     C_3   0.082876 0.477046 0.497452 0.045982
C8    C     C_3   0.917124 0.477046 0.502548 0.045982
C9    C     C_3   0.951921 0.636469 0.492280 -0.350775
C10   C     C_3   0.048079 0.636469 0.507720 -0.350775
C11   C     C_3   0.844379 0.242079 0.795274 0.002383
C12   C     C_1   0.824821 0.486450 0.501935 -0.056956
C13   C     C_3   0.815064 0.083229 0.789069 -0.390726
C14   C     C_3   0.921975 0.143139 0.230910 0.057734
C15   C     C_3   0.942412 0.986399 0.281673 -0.368120
C16   C     C_3   0.078025 0.143139 0.769090 0.057734
C17   C     C_3   0.057588 0.986399 0.718326 -0.368120
C18   C     C_3   0.155621 0.242079 0.204726 0.002384
C19   C     C_3   0.184937 0.083229 0.210931 -0.390726
C20   C     C_1   0.175179 0.486450 0.498065 -0.056956
C21   C     C_R   0.339977 0.499856 0.500030 0.538934
C22   C     C_R   0.660023 0.499855 0.499970 0.538934
C23   C     C_1   0.500000 0.934607 0.500000 -0.055392
C24   C     C_1   0.500000 0.065412 0.500000 -0.055026
C25   C     C_R   0.500000 0.779755 0.500000 0.547334
C26   C     C_3   0.051080 0.385147 0.657958 0.423181
Cu1   Cu    Cu3+1 0.500000 0.500010 0.669080 1.009887
Cu2   Cu    Cu3+1 0.500000 0.500010 0.330920 1.009887
H1    H     H_    0.066265 0.690727 0.627882 0.118282
H2    H     H_    0.965270 0.176334 0.126958 0.171248
H3    H     H_    0.856107 0.144575 0.184092 0.108349
H4    H     H_    0.897263 0.948946 0.380534 0.145947
H5    H     H_    0.937615 0.913367 0.168768 0.063460
H6    H     H_    0.007160 0.979825 0.333713 0.187617
H7    H     H_    0.034730 0.176334 0.873042 0.171248
H8    H     H_    0.143893 0.144575 0.815908 0.108348
H9    H     H_    0.102737 0.948946 0.619465 0.145947
H10   H     H_    0.062385 0.913367 0.831231 0.063460
H11   H     H_    0.992840 0.979825 0.666287 0.187617
H12   H     H_    0.075875 0.707775 0.407465 0.124720
H13   H     H_    0.208469 0.312232 0.246467 0.142575
H14   H     H_    0.139783 0.268056 0.071516 0.155986
H15   H     H_    0.135317 0.009861 0.159300 0.127347
H16   H     H_    0.242668 0.070071 0.132711 0.106036
H17   H     H_    0.199069 0.051165 0.344410 0.172051
H18   H     H_    0.133802 0.526160 0.177951 0.202694
H19   H     H_    0.036959 0.592940 0.172715 0.205906
H20   H     H_    0.157915 0.400502 0.811359 0.217764
H21   H     H_    0.097241 0.547370 0.827982 0.208744
H22   H     H_    0.842085 0.400502 0.188641 0.217764
H23   H     H_    0.924125 0.707775 0.592535 0.124720
H24   H     H_    0.902759 0.547371 0.172018 0.208744
H25   H     H_    0.866198 0.526159 0.822049 0.202694
H26   H     H_    0.963041 0.592940 0.827285 0.205905
H27   H     H_    0.933735 0.690727 0.372118 0.118282
H28   H     H_    0.791531 0.312231 0.753532 0.142575
H29   H     H_    0.860217 0.268056 0.928484 0.155986
H30   H     H_    0.864683 0.009861 0.840701 0.127346
H31   H     H_    0.757332 0.070071 0.867288 0.106036
H32   H     H_    0.800932 0.051164 0.655590 0.172051
N1    N     N_1   0.500000 0.499970 0.076820 -0.084150
N2    N     N_1   0.500000 0.499970 0.923180 -0.084150
N3    N     N_3   0.070596 0.494792 0.175261 -0.605191
N4    N     N_3   0.095001 0.433770 0.815154 -0.617820
N5    N     N_3   0.904999 0.433771 0.184846 -0.617820
N6    N     N_3   0.929404 0.494792 0.824739 -0.605191
O1    O     O_R   0.500000 0.288400 0.642760 -0.495862
O2    O     O_3   0.928411 0.234590 0.376111 -0.463362
O3    O     O_3   0.071589 0.234590 0.623889 -0.463362
O4    O     O_3   0.084089 0.258028 0.310203 -0.482773
O5    O     O_R   0.500000 0.288400 0.357240 -0.495862
O6    O     O_R   0.379440 0.500020 0.642850 -0.497042
O7    O     O_R   0.379440 0.500020 0.357150 -0.503804
O8    O     O_R   0.620560 0.500020 0.642850 -0.503804
O9    O     O_R   0.620560 0.500020 0.357150 -0.497042
O10   O     O_R   0.500000 0.711620 0.642810 -0.494756
O11   O     O_R   0.500000 0.711620 0.357190 -0.494756
O12   O     O_3   0.915911 0.258028 0.689797 -0.482773

loop_
_geom_bond_atom_site_label_1
_geom_bond_atom_site_label_2
_ccdc_geom_bond_type
C18   O4    S    
C7    C10   S    
C2    C7    S    
C9    H23   S    
C14   H3    S    
C4    C8    S    
C15   H4    S    
C13   H32   S    
C2    N3    S    
C1    O5    A    
C7    C26   S    
C25   O11   A    
C11   O12   S    
C18   H14   S    
C16   H7    S    
H19   N3    S    
C4    N5    S    
H20   N4    S    
C21   O7    A    
C10   H12   S    
C18   C19   S    
C17   H11   S    
H24   N5    S    
C26   N4    S    
C5    C22   S    
C8    C9    S    
C23   C24   T    
C9    H27   S    
Cu1   O8    S    
C9    C10   S    
C15   H6    S    
Cu2   N1    S    
H21   N4    S    
C22   O9    A    
C14   H2    S    
Cu2   O7    S    
C19   H15   S    
C3    O12   S    
C21   O6    A    
C5    C12   T    
C3    C8    S    
C18   H13   S    
C4    O2    S    
C16   C17   S    
C13   H30   S    
C6    C21   S    
C2    C4    S    
Cu2   O11   S    
Cu1   N2    S    
C8    C12   S    
C17   H9    S    
H25   N6    S    
H26   N6    S    
Cu2   O5    S    
C22   O8    A    
Cu1   O10   S    
C19   H16   S    
C3    C26   S    
C16   O3    S    
C19   H17   S    
C13   H31   S    
C6    C20   T    
H18   N3    S    
C25   O10   A    
C2    O4    S    
C16   H8    S    
C11   C13   S    
C10   H1    S    
C1    O1    A    
C17   H10   S    
C23   C25   S    
N1    N2    T    
H22   N5    S    
Cu1   O1    S    
C11   H28   S    
C3    N6    S    
C1    C24   S    
C7    C20   S    
Cu1   Cu2   S    
C26   O3    S    
C14   O2    S    
C14   C15   S    
C11   H29   S    
Cu2   O9    S    
C15   H5    S    
Cu1   O6    S    
