data_mof_unit_49180.cif
_audit_creation_date              2012-12-10T19:24:09-0500
_audit_creation_method            fapswitch 2.2
_symmetry_space_group_name_H-M    P1
_symmetry_Int_Tables_number       1
_space_group_crystal_system       triclinic
_cell_length_a                    10.479985
_cell_length_b                    10.471432
_cell_length_c                    9.801284
_cell_angle_alpha                 91.54485
_cell_angle_beta                  89.469847
_cell_angle_gamma                 89.850095
_cell_volume                      1075.15592403

loop_
_atom_site_label
_atom_site_type_symbol
_atom_type_description
_atom_site_fract_x
_atom_site_fract_y
_atom_site_fract_z
_atom_type_partial_charge
C1    C     C_R   0.502368 0.257650 0.498460 0.853024
C2    C     C_3   0.614807 0.513034 0.048213 -0.118541
C3    C     C_R   0.257650 0.499854 0.500623 0.852845
C4    C     C_R   0.742350 0.500145 0.499377 0.852867
C5    C     C_3   0.038755 0.498116 0.630415 -0.137926
C6    C     C_3   0.961245 0.501883 0.369584 -0.137914
C7    C     C_3   0.957045 0.393952 0.559456 -0.184092
C8    C     C_3   0.042955 0.606046 0.440543 -0.184086
C9    C     C_3   0.877559 0.500120 0.498145 0.038145
C10   C     C_3   0.122441 0.499879 0.501855 0.038157
C11   C     C_3   0.956553 0.604290 0.568940 -0.184067
C12   C     C_R   0.497626 0.742350 0.501538 0.853044
C13   C     C_3   0.043447 0.395708 0.431059 -0.184061
C14   C     C_3   0.578392 0.044513 0.597876 -0.167362
C15   C     C_3   0.421596 0.955487 0.402111 -0.167312
C16   C     C_3   0.618397 0.954160 0.477974 -0.186544
C17   C     C_3   0.381591 0.045840 0.522015 -0.186572
C18   C     C_3   0.497197 0.877593 0.503572 0.038749
C19   C     C_3   0.502791 0.122406 0.496419 0.038742
C20   C     C_3   0.403948 0.269270 0.096912 -0.393307
C21   C     C_3   0.352542 0.183935 0.980430 -0.379183
C22   C     C_3   0.312521 0.053691 0.032100 -0.918055
C23   C     C_3   0.456994 0.965271 0.623432 -0.154432
C24   C     C_3   0.596064 0.730755 0.903162 -0.393320
C25   C     C_3   0.647025 0.816207 0.019786 -0.379255
C26   C     C_3   0.687205 0.946408 0.968155 -0.917549
C27   C     C_3   0.542994 0.034730 0.376558 -0.154272
C28   C     C_3   0.454951 0.395217 0.044240 0.191171
C29   C     C_3   0.545048 0.604783 0.955767 0.191253
C30   C     C_3   0.569289 0.407390 0.947505 -0.119785
C31   C     C_3   0.430707 0.592605 0.052497 -0.119717
C32   C     C_3   0.385191 0.486962 0.951789 -0.118527
H1    H     H_    0.917080 0.307745 0.607509 0.123978
H2    H     H_    0.357235 0.914525 0.323033 0.130134
H3    H     H_    0.419780 0.934722 0.723583 0.132442
H4    H     H_    0.580207 0.065283 0.276412 0.132364
H5    H     H_    0.626673 0.328956 0.899005 0.120794
H6    H     H_    0.373315 0.671031 0.100999 0.120743
H7    H     H_    0.288811 0.475575 0.907098 0.117813
H8    H     H_    0.711187 0.524424 0.092903 0.117828
H9    H     H_    0.395758 0.003441 0.075125 0.264977
H10   H     H_    0.237257 0.064978 0.112044 0.261812
H11   H     H_    0.274338 0.994458 0.946260 0.247973
H12   H     H_    0.082920 0.692253 0.392490 0.123980
H13   H     H_    0.268674 0.230533 0.933942 0.221584
H14   H     H_    0.427190 0.169550 0.900057 0.230511
H15   H     H_    0.483659 0.219171 0.146192 0.213979
H16   H     H_    0.327018 0.289407 0.173323 0.216464
H17   H     H_    0.763150 0.935099 0.888889 0.261695
H18   H     H_    0.604205 0.996452 0.924246 0.264862
H19   H     H_    0.724621 0.005837 0.054276 0.247867
H20   H     H_    0.572084 0.830647 0.099826 0.230361
H21   H     H_    0.730728 0.769692 0.066691 0.221675
H22   H     H_    0.673222 0.710675 0.826994 0.216295
H23   H     H_    0.074385 0.496512 0.736711 0.130210
H24   H     H_    0.516431 0.780740 0.853608 0.214053
H25   H     H_    0.925615 0.503486 0.263289 0.130219
H26   H     H_    0.916125 0.689034 0.624738 0.123206
H27   H     H_    0.083875 0.310965 0.375261 0.123214
H28   H     H_    0.714644 0.911820 0.460645 0.121585
H29   H     H_    0.285344 0.088181 0.539342 0.121578
H30   H     H_    0.642766 0.085490 0.676931 0.130131
N1    N     N_3   0.499910 0.500030 0.863290 -0.093475
N2    N     N_3   0.500090 0.499970 0.136710 -0.093479
O1    O     O_R   0.500010 0.313960 0.616610 -0.622836
O2    O     O_R   0.499990 0.686040 0.383390 -0.622830
O3    O     O_R   0.500060 0.313950 0.383350 -0.638059
O4    O     O_R   0.499940 0.686050 0.616650 -0.638045
O5    O     O_R   0.313930 0.499970 0.616610 -0.627329
O6    O     O_R   0.686070 0.500030 0.383390 -0.627333
O7    O     O_R   0.313980 0.499960 0.383350 -0.624630
O8    O     O_R   0.686020 0.500040 0.616650 -0.624580
Zn1   Zn    Zn3+2 0.499970 0.500010 0.655740 0.918091
Zn2   Zn    Zn3+2 0.500030 0.499990 0.344260 0.918059

loop_
_geom_bond_atom_site_label_1
_geom_bond_atom_site_label_2
_ccdc_geom_bond_type
C15   C18   S    
C29   N1    S    
C6    C9    S    
C4    O6    A    
C12   O4    A    
C17   C23   S    
C2    C29   S    
C3    O5    A    
C25   H21   S    
C5    C11   S    
C26   H18   S    
C22   H9    S    
C24   H22   S    
O2    Zn2   S    
O1    Zn1   S    
C15   C17   S    
C16   H28   S    
C32   H7    S    
C24   C29   S    
C17   C19   S    
C31   C32   S    
O6    Zn2   S    
C1    O1    A    
O5    Zn1   S    
C11   H26   S    
C19   C27   S    
C15   H2    S    
C17   H29   S    
C16   C27   S    
C21   C22   S    
C7    H1    S    
C6    H25   S    
C31   N2    S    
C2    N2    S    
C21   H13   S    
C1    C19   S    
C18   C23   S    
C28   C32   S    
C24   C25   S    
C26   H17   S    
C5    C7    S    
C6    C8    S    
N1    Zn1   S    
C25   C26   S    
C12   O2    A    
C30   H5    S    
C14   C23   S    
C3    O7    A    
C15   C27   S    
C22   H11   S    
O3    Zn2   S    
C9    C11   S    
C20   H16   S    
C28   N2    S    
C8    C10   S    
C23   H3    S    
C14   C16   S    
C4    O8    A    
C21   H14   S    
C7    C9    S    
C14   C19   S    
C5    H23   S    
C8    H12   S    
C32   N1    S    
O8    Zn1   S    
C10   C13   S    
O7    Zn2   S    
C13   H27   S    
C27   H4    S    
C24   H24   S    
C20   C28   S    
C31   H6    S    
C2    C30   S    
C28   C30   S    
O4    Zn1   S    
C25   H20   S    
C5    C10   S    
C29   C31   S    
C3    C10   S    
C26   H19   S    
C6    C13   S    
C22   H10   S    
C8    C11   S    
C1    O3    A    
C20   H15   S    
C2    H8    S    
C7    C13   S    
C20   C21   S    
C16   C18   S    
C12   C18   S    
N2    Zn2   S    
C4    C9    S    
C30   N1    S    
C14   H30   S    
