data_mof_unit_56742.cif
_audit_creation_date              2012-12-10T16:50:04-0500
_audit_creation_method            fapswitch 2.2
_symmetry_space_group_name_H-M    P1
_symmetry_Int_Tables_number       1
_space_group_crystal_system       triclinic
_cell_length_a                    7.869541
_cell_length_b                    8.556458
_cell_length_c                    10.646659
_cell_angle_alpha                 92.547763
_cell_angle_beta                  83.410292
_cell_angle_gamma                 93.995655
_cell_volume                      709.948849035

loop_
_atom_site_label
_atom_site_type_symbol
_atom_type_description
_atom_site_fract_x
_atom_site_fract_y
_atom_site_fract_z
_atom_type_partial_charge
C1    C     C_R   0.545627 0.794443 0.496897 0.952760
C2    C     C_R   0.337676 0.490669 0.953039 0.054564
C3    C     C_R   0.489002 0.538204 0.875325 -0.090836
C4    C     C_R   0.639793 0.580010 0.928151 -0.203902
C5    C     C_R   0.644870 0.562330 0.055417 -0.198904
C6    C     C_R   0.504913 0.485787 0.125651 -0.096164
C7    C     C_2   0.569261 0.958286 0.495360 -0.358696
C8    C     C_2   0.430524 0.041683 0.505050 -0.346083
C9    C     C_R   0.498901 0.514950 0.740113 0.874185
C10   C     C_R   0.454342 0.205550 0.503267 0.956330
C11   C     C_R   0.500640 0.491248 0.259953 0.853049
C12   C     C_R   0.168727 0.494739 0.920603 0.303200
C13   C     C_R   0.038896 0.393489 0.978631 -0.201958
C14   C     C_R   0.072496 0.302999 0.077542 -0.129637
C15   C     C_R   0.229738 0.327304 0.126657 -0.125452
C16   C     C_R   0.358042 0.432348 0.069484 0.033242
N1    N     N_2   0.950330 0.457950 0.466250 0.050658
N2    N     N_2   0.049670 0.542050 0.533750 -0.093836
O1    O     O_R   0.389250 0.738570 0.508280 -0.604052
O2    O     O_R   0.678390 0.711630 0.486650 -0.637319
O3    O     O_R   0.355400 0.513470 0.694050 -0.584422
O4    O     O_R   0.644540 0.486530 0.672420 -0.619280
O5    O     O_R   0.321610 0.288370 0.513350 -0.576871
O6    O     O_R   0.610750 0.261430 0.491720 -0.585436
O7    O     O_R   0.355460 0.513470 0.327580 -0.595702
O8    O     O_R   0.644600 0.486530 0.305950 -0.613493
Zn1   Zn    Zn3+2 0.306930 0.517990 0.514440 1.035670
Zn2   Zn    Zn3+2 0.693070 0.482010 0.485560 1.017141
H1    H     H_    0.751539 0.626972 0.870575 0.208404
H2    H     H_    0.995620 0.641103 0.573979 0.191417
Br1   Br    Br    0.101028 0.675480 0.842127 -0.565254
H3    H     H_    0.911294 0.388652 0.950145 0.176809
H4    H     H_    0.973182 0.222825 0.121595 0.185826
H5    H     H_    0.253357 0.262906 0.207167 0.176057
H6    H     H_    0.758175 0.606113 0.098231 0.193729
H7    H     H_    0.700162 0.009627 0.486350 0.214868
H8    H     H_    0.299527 0.990265 0.514199 0.205592
Br2   Br    Br    0.007643 0.254550 0.414857 -0.456202

loop_
_geom_bond_atom_site_label_1
_geom_bond_atom_site_label_2
_ccdc_geom_bond_type
C3    C9    S    
O5    Zn1   S    
C10   O5    A    
O7    Zn1   S    
O1    Zn1   S    
C7    H7    S    
C13   H3    S    
O8    Zn2   S    
C4    H1    S    
C2    C12   A    
C14   H4    S    
C2    C3    A    
O3    Zn1   S    
C7    C8    D    
O4    Zn2   S    
C13   C14   A    
C9    O3    A    
N2    H2    S    
C15   C16   A    
C5    H6    S    
N1    N2    D    
N1    Br2   S    
C12   Br1   S    
C5    C6    A    
C9    O4    A    
C1    O1    A    
C8    H8    S    
C11   O7    A    
C6    C16   A    
C3    C4    A    
O2    Zn2   S    
C2    C16   A    
C12   C13   A    
C8    C10   S    
C6    C11   S    
C14   C15   A    
C1    O2    A    
C15   H5    S    
C11   O8    A    
C10   O6    A    
C1    C7    S    
N1    Zn2   S    
N2    Zn1   S    
O6    Zn2   S    
C4    C5    A    
