data_mof_unit_11978.cif
_audit_creation_date              2012-10-26T19:27:34-0400
_audit_creation_method            fapswitch 2.2
_symmetry_space_group_name_H-M    P1
_symmetry_Int_Tables_number       1
_space_group_crystal_system       triclinic
_cell_length_a                    20.804235
_cell_length_b                    21.308006
_cell_length_c                    14.787578
_cell_angle_alpha                 89.936703
_cell_angle_beta                  128.191302
_cell_angle_gamma                 90.10168
_cell_volume                      5152.12351575

loop_
_atom_site_label
_atom_site_type_symbol
_atom_type_description
_atom_site_fract_x
_atom_site_fract_y
_atom_site_fract_z
_atom_type_partial_charge
C1    C     C_R   0.602831 0.914008 0.631695 0.574153
C2    C     C_R   0.623906 0.301118 0.974760 -0.147348
C3    C     C_R   0.724582 0.786505 0.979049 0.016491
C4    C     C_R   0.207829 0.756940 0.924927 0.025949
C5    C     C_R   0.777392 0.283777 0.025659 0.020146
C6    C     C_R   0.795741 0.758729 0.078290 0.026550
C7    C     C_R   0.225635 0.285807 0.977955 0.018676
C8    C     C_R   0.350624 0.784978 0.033795 -0.157377
C9    C     C_R   0.629501 0.272925 0.895652 -0.150385
C10   C     C_R   0.654731 0.790523 0.974374 -0.154534
C11   C     C_R   0.372545 0.269301 0.099411 -0.146552
C12   C     C_R   0.849211 0.285174 0.035044 -0.155289
C13   C     C_R   0.652939 0.762741 0.057841 -0.128642
C14   C     C_R   0.131634 0.771673 0.897485 -0.147352
C15   C     C_R   0.156498 0.290509 0.975009 -0.151012
C16   C     C_R   0.871698 0.771286 0.103207 -0.143413
C17   C     C_3   0.314016 0.937986 0.984871 -0.003619
C18   C     C_3   0.222800 0.948299 0.923940 -0.250095
C19   C     C_3   0.207476 0.983507 0.998867 -0.393859
C20   C     C_3   0.690790 0.944810 0.013197 -0.009886
C21   C     C_3   0.779214 0.961015 0.065010 -0.248999
C22   C     C_3   0.785289 0.997872 0.981881 -0.389665
C23   C     C_3   0.813641 0.439085 0.986058 -0.005428
C24   C     C_R   0.376275 0.296241 0.017689 -0.142338
C25   C     C_3   0.722645 0.450116 0.925739 -0.251084
C26   C     C_3   0.708229 0.486517 0.000642 -0.392057
C27   C     C_3   0.190466 0.443617 0.013077 -0.008524
C28   C     C_3   0.279306 0.459262 0.066267 -0.250870
C29   C     C_3   0.286685 0.495875 0.984190 -0.391981
C30   C     C_3   0.443889 0.759233 0.321814 -0.129335
C31   C     C_3   0.608436 0.125687 0.867143 -0.082865
C32   C     C_3   0.559026 0.760015 0.687213 -0.126113
C33   C     C_3   0.378531 0.120099 0.120257 -0.084004
C34   C     C_3   0.932936 0.254339 0.323478 -0.139233
C35   C     C_R   0.852249 0.256624 0.953350 -0.130650
C36   C     C_3   0.111117 0.624440 0.869372 -0.084153
C37   C     C_3   0.057295 0.260820 0.684693 -0.128940
C38   C     C_3   0.880969 0.622030 0.122974 -0.084480
C39   C     C_3   0.349256 0.698115 0.691153 0.008034
C40   C     C_3   0.383510 0.641393 0.669935 -0.265220
C41   C     C_3   0.356434 0.641093 0.547614 -0.470894
C42   C     C_3   0.616839 0.303267 0.222105 0.003271
C43   C     C_3   0.605074 0.234826 0.181596 -0.282148
C44   C     C_3   0.604440 0.190045 0.261632 -0.466407
C45   C     C_3   0.660865 0.707348 0.322666 0.004275
C46   C     C_R   0.126397 0.798463 0.977755 -0.145015
C47   C     C_3   0.623841 0.653272 0.345229 -0.261124
C48   C     C_3   0.651920 0.654716 0.468079 -0.472711
C49   C     C_3   0.379701 0.307376 0.762977 0.004114
C50   C     C_3   0.392159 0.237181 0.792718 -0.280629
C51   C     C_3   0.388251 0.198920 0.702207 -0.474281
C52   C     C_3   0.848706 0.200238 0.692503 0.005548
C53   C     C_3   0.882972 0.144140 0.669886 -0.262957
C54   C     C_3   0.854685 0.144400 0.546919 -0.471832
C55   C     C_3   0.119187 0.799998 0.225749 0.008072
C56   C     C_3   0.104345 0.731738 0.183762 -0.285767
C57   C     C_R   0.156439 0.264768 0.061311 -0.144081
C58   C     C_3   0.103690 0.687527 0.264423 -0.464083
C59   C     C_3   0.178500 0.263130 0.307886 -0.007904
C60   C     C_3   0.115469 0.271817 0.328095 -0.253135
C61   C     C_3   0.131212 0.332035 0.394739 -0.455146
C62   C     C_3   0.882042 0.808763 0.770290 0.003917
C63   C     C_3   0.890648 0.738440 0.798615 -0.281140
C64   C     C_3   0.891749 0.699563 0.712989 -0.467384
C65   C     C_3   0.219888 0.084763 0.579558 -0.149116
C66   C     C_3   0.799824 0.951724 0.449537 -0.153167
C67   C     C_3   0.697021 0.462731 0.548348 -0.155073
C68   C     C_R   0.876304 0.798877 0.022665 -0.141607
C69   C     C_3   0.297191 0.447253 0.445352 -0.158350
C70   C     C_R   0.322935 0.013746 0.663905 0.238245
C71   C     C_R   0.678570 0.003439 0.337515 0.234286
C72   C     C_R   0.822152 0.509104 0.663279 0.232003
C73   C     C_R   0.398266 0.087328 0.369644 0.565468
C74   C     C_R   0.178590 0.502314 0.337621 0.230189
C75   C     C_R   0.352814 0.009682 0.602293 0.068663
C76   C     C_R   0.647917 0.004955 0.398395 0.063293
C77   C     C_R   0.852634 0.508611 0.602169 0.061307
C78   C     C_R   0.147954 0.504585 0.398446 0.055201
C79   C     C_R   0.487422 0.993312 0.774027 0.038665
C80   C     C_R   0.512310 0.994603 0.225836 0.040967
C81   C     C_R   0.987417 0.492983 0.773970 0.038356
C82   C     C_R   0.012297 0.494608 0.225877 0.030928
C83   C     C_R   0.462664 0.998452 0.844510 -0.051297
C84   C     C_R   0.397466 0.913723 0.368816 0.576785
C85   C     C_R   0.537677 0.996552 0.155715 -0.052868
C86   C     C_R   0.962577 0.497430 0.844435 -0.052099
C87   C     C_R   0.037674 0.496228 0.155765 -0.055850
C88   C     C_R   0.377530 0.006475 0.784668 -0.017031
C89   C     C_R   0.623371 0.000421 0.216130 -0.015693
C90   C     C_R   0.877266 0.504411 0.784437 -0.015172
C91   C     C_R   0.123392 0.499564 0.216210 -0.020589
C92   C     C_R   0.517424 0.996528 0.969660 -0.012686
C93   C     C_R   0.483035 0.996343 0.030480 -0.015259
C94   C     C_R   0.017395 0.495872 0.969666 -0.013545
C95   C     C_R   0.602587 0.086693 0.631416 0.565809
C96   C     C_R   0.983029 0.495988 0.030541 -0.014882
C97   C     C_R   0.395650 0.997570 0.962578 0.221917
C98   C     C_R   0.604806 0.996444 0.037136 0.225071
C99   C     C_R   0.895664 0.497401 0.962760 0.223133
C100  C     C_R   0.104811 0.495650 0.037212 0.224821
C101  C     C_R   0.346468 0.006410 0.844486 -0.092035
C102  C     C_R   0.654420 0.001043 0.156215 -0.093105
C103  C     C_R   0.846364 0.505234 0.844446 -0.091521
C104  C     C_R   0.154446 0.499992 0.156329 -0.095269
C105  C     C_R   0.662374 0.136274 0.706605 -0.035128
C106  C     C_R   0.102713 0.413925 0.631420 0.572597
C107  C     C_R   0.332863 0.869900 0.286326 -0.040803
C108  C     C_R   0.341342 0.139115 0.298258 -0.037907
C109  C     C_R   0.668356 0.871237 0.715631 -0.039562
C110  C     C_R   0.162996 0.635735 0.706823 -0.033938
C111  C     C_R   0.831062 0.371408 0.284584 -0.038738
C112  C     C_R   0.838667 0.637149 0.295168 -0.034554
C113  C     C_R   0.167946 0.370715 0.714219 -0.041281
C114  C     C_R   0.792891 0.187558 0.788270 0.252306
C115  C     C_R   0.190068 0.841103 0.167439 0.254876
C116  C     C_R   0.219535 0.198572 0.230921 0.245736
C117  C     C_R   0.897491 0.586744 0.368695 0.568325
C118  C     C_R   0.811651 0.843679 0.833852 0.257637
C119  C     C_R   0.293411 0.686820 0.787257 0.254602
C120  C     C_R   0.687399 0.344934 0.163886 0.256422
C121  C     C_R   0.712001 0.692359 0.221233 0.252389
C122  C     C_R   0.310593 0.341542 0.829116 0.257563
C123  C     C_R   0.731189 0.144555 0.711564 -0.181032
C124  C     C_R   0.257099 0.871988 0.263432 -0.185279
C125  C     C_R   0.278389 0.153820 0.304080 -0.163605
C126  C     C_R   0.743966 0.874277 0.738126 -0.186590
C127  C     C_R   0.231504 0.643857 0.710963 -0.179975
C128  C     C_R   0.897043 0.414016 0.368354 0.574810
C129  C     C_R   0.754828 0.375497 0.260103 -0.187230
C130  C     C_R   0.772151 0.647740 0.294841 -0.179155
C131  C     C_R   0.242955 0.372916 0.734756 -0.188794
C132  C     C_R   0.652808 0.173236 0.776787 0.229072
C133  C     C_R   0.344024 0.831718 0.219851 0.228939
C134  C     C_R   0.348801 0.173376 0.223197 0.230343
C135  C     C_R   0.658356 0.833619 0.784058 0.227468
C136  C     C_R   0.154109 0.672543 0.777703 0.230346
C137  C     C_R   0.841679 0.331827 0.219139 0.231903
C138  C     C_R   0.847195 0.673186 0.222986 0.231425
C139  C     C_R   0.102778 0.586505 0.631569 0.569439
C140  C     C_R   0.158284 0.333065 0.782850 0.226945
C141  C     C_R   0.713097 0.218630 0.852414 -0.011852
C142  C     C_R   0.274805 0.810021 0.110846 -0.019522
C143  C     C_R   0.291394 0.221185 0.151917 -0.009624
C144  C     C_R   0.728251 0.812539 0.892907 -0.021014
C145  C     C_R   0.214462 0.717984 0.852719 -0.009783
C146  C     C_R   0.772348 0.311269 0.109373 -0.018429
C147  C     C_R   0.788942 0.720390 0.151135 -0.011152
C148  C     C_R   0.228430 0.311301 0.890713 -0.020765
C149  C     C_R   0.786192 0.221100 0.864265 0.021886
C150  C     C_R   0.353095 0.756379 0.951647 -0.127082
C151  C     C_R   0.196904 0.815883 0.085609 0.011218
C152  C     C_R   0.222279 0.228572 0.148419 0.006824
C153  C     C_R   0.805579 0.817845 0.916221 0.012741
C154  C     C_R   0.287086 0.720558 0.863434 0.023457
C155  C     C_R   0.694269 0.318682 0.082728 0.010359
C156  C     C_R   0.717902 0.725387 0.143935 0.020734
C157  C     C_R   0.305235 0.315764 0.912181 0.012880
C158  C     C_R   0.705935 0.257744 0.924016 0.024422
C159  C     C_R   0.279415 0.783167 0.026107 0.016223
C160  C     C_R   0.297123 0.257997 0.076713 0.026425
Cu1   Cu    Cu3+1 0.526640 1.000000 0.436960 0.956201
Cu2   Cu    Cu3+1 0.473360 1.000000 0.563040 0.956779
Cu3   Cu    Cu3+1 0.026640 0.500000 0.436960 0.938659
Cu4   Cu    Cu3+1 0.973360 0.500000 0.563040 0.954129
H1    H     H_    0.408709 0.760562 0.960607 0.172971
H2    H     H_    0.738802 0.115267 0.659056 0.131980
H3    H     H_    0.662959 0.193426 0.350212 0.138546
H4    H     H_    0.596486 0.141094 0.230571 0.163872
H5    H     H_    0.553390 0.201502 0.263631 0.183913
H6    H     H_    0.631943 0.751801 0.320163 0.150308
H7    H     H_    0.727419 0.712508 0.395683 0.110600
H8    H     H_    0.556029 0.656649 0.283778 0.166120
H9    H     H_    0.641860 0.607596 0.330748 0.177978
H10   H     H_    0.717862 0.642932 0.529668 0.185409
H11   H     H_    0.617056 0.619399 0.477399 0.173786
H12   H     H_    0.641788 0.701759 0.489435 0.123735
H13   H     H_    0.751401 0.902049 0.683698 0.128407
H14   H     H_    0.429237 0.323700 0.760321 0.138387
H15   H     H_    0.321594 0.314976 0.674748 0.109220
H16   H     H_    0.452600 0.229848 0.877861 0.159891
H17   H     H_    0.343958 0.219954 0.797658 0.156067
H18   H     H_    0.327039 0.203674 0.617112 0.128613
H19   H     H_    0.399222 0.148631 0.727199 0.157474
H20   H     H_    0.435574 0.215146 0.694889 0.184369
H21   H     H_    0.881382 0.243178 0.698070 0.149791
H22   H     H_    0.783001 0.208073 0.618186 0.112377
H23   H     H_    0.950912 0.145728 0.731152 0.164921
H24   H     H_    0.273014 0.129246 0.363331 0.144093
H25   H     H_    0.862845 0.099557 0.684491 0.177823
H26   H     H_    0.787778 0.135916 0.485320 0.177817
H27   H     H_    0.886187 0.106401 0.536682 0.178651
H28   H     H_    0.868964 0.189993 0.526515 0.121087
H29   H     H_    0.070184 0.813943 0.231009 0.146558
H30   H     H_    0.177626 0.803853 0.315100 0.122713
H31   H     H_    0.044776 0.728209 0.096300 0.159884
H32   H     H_    0.153319 0.716552 0.179148 0.164990
H33   H     H_    0.163135 0.689713 0.352186 0.139919
H34   H     H_    0.093209 0.638641 0.232099 0.164104
H35   H     H_    0.746927 0.403327 0.313892 0.131211
H36   H     H_    0.054155 0.700598 0.268902 0.186960
H37   H     H_    0.179199 0.306001 0.265255 0.123614
H38   H     H_    0.239822 0.257140 0.393307 0.118838
H39   H     H_    0.053147 0.273822 0.243983 0.192863
H40   H     H_    0.118504 0.231032 0.377534 0.152404
H41   H     H_    0.193614 0.331697 0.478549 0.114190
H42   H     H_    0.086157 0.336282 0.411273 0.211850
H43   H     H_    0.124728 0.373237 0.343778 0.155075
H44   H     H_    0.933593 0.823315 0.770926 0.140612
H45   H     H_    0.825432 0.817574 0.681079 0.112781
H46   H     H_    0.238703 0.614453 0.658156 0.131379
H47   H     H_    0.948220 0.730107 0.886622 0.160046
H48   H     H_    0.838548 0.722583 0.795868 0.163471
H49   H     H_    0.835481 0.708188 0.624024 0.133301
H50   H     H_    0.895133 0.648879 0.733091 0.165410
H51   H     H_    0.945560 0.712115 0.717930 0.184798
H52   H     H_    0.232870 0.102571 0.521510 0.115593
H53   H     H_    0.252715 0.113476 0.659492 0.109661
H54   H     H_    0.153393 0.090466 0.534004 0.142599
H55   H     H_    0.773641 0.912617 0.385982 0.115724
H56   H     H_    0.795455 0.940845 0.519184 0.106502
H57   H     H_    0.250042 0.400686 0.679967 0.128529
H58   H     H_    0.865699 0.955385 0.489683 0.141808
H59   H     H_    0.720419 0.422464 0.609210 0.113987
H60   H     H_    0.700053 0.451883 0.477500 0.109891
H61   H     H_    0.631654 0.469188 0.509198 0.138230
H62   H     H_    0.269866 0.409837 0.378504 0.103784
H63   H     H_    0.291248 0.434748 0.512974 0.106748
H64   H     H_    0.363421 0.449557 0.487069 0.139082
H65   H     H_    0.764917 0.619096 0.348511 0.132428
H66   H     H_    0.404016 0.811846 0.097524 0.180871
H67   H     H_    0.572864 0.264542 0.810983 0.166815
H68   H     H_    0.602239 0.818565 0.911970 0.178947
H69   H     H_    0.563858 0.309945 0.950428 0.180953
H70   H     H_    0.429940 0.259070 0.182099 0.163145
H71   H     H_    0.902523 0.311811 0.100134 0.170121
H72   H     H_    0.074920 0.763749 0.812736 0.166097
H73   H     H_    0.103452 0.317909 0.912244 0.179288
H74   H     H_    0.928804 0.761298 0.186465 0.166768
H75   H     H_    0.281364 0.011881 0.798704 0.171641
H76   H     H_    0.719793 0.004963 0.202472 0.172922
H77   H     H_    0.781223 0.510433 0.798642 0.172858
H78   H     H_    0.219843 0.503665 0.202658 0.172516
H79   H     H_    0.450709 0.988738 0.193412 0.198814
H80   H     H_    0.598526 0.768677 0.051429 0.170086
H81   H     H_    0.548216 0.983075 0.806411 0.196183
H82   H     H_    0.950718 0.488937 0.193580 0.200150
H83   H     H_    0.048355 0.483432 0.806333 0.196331
H84   H     H_    0.688998 0.009480 0.491124 0.123698
H85   H     H_    0.311684 0.014163 0.509569 0.133495
H86   H     H_    0.189129 0.508680 0.491240 0.128111
H87   H     H_    0.811827 0.514612 0.509738 0.124504
H88   H     H_    0.341605 0.914131 0.067978 0.163750
H89   H     H_    0.319708 0.905060 0.931379 0.120478
H90   H     H_    0.194624 0.974550 0.842533 0.156335
H91   H     H_    0.435529 0.302433 0.038038 0.180660
H92   H     H_    0.192149 0.901851 0.901344 0.134938
H93   H     H_    0.242033 0.961827 0.085513 0.151216
H94   H     H_    0.141269 0.981795 0.957794 0.145186
H95   H     H_    0.225511 0.033423 0.007362 0.159108
H96   H     H_    0.662299 0.919751 0.930936 0.160971
H97   H     H_    0.692458 0.911033 0.072431 0.112399
H98   H     H_    0.808041 0.988443 0.145430 0.158335
H99   H     H_    0.814051 0.916577 0.087687 0.133653
H100  H     H_    0.749125 0.974840 0.896219 0.147210
H101  H     H_    0.850182 0.000109 0.016462 0.150303
H102  H     H_    0.908277 0.260561 0.963350 0.168171
H103  H     H_    0.763370 0.046578 0.972630 0.160456
H104  H     H_    0.841287 0.415443 0.069394 0.159931
H105  H     H_    0.818661 0.405672 0.932484 0.113000
H106  H     H_    0.694354 0.475816 0.843779 0.151497
H107  H     H_    0.691592 0.403896 0.904194 0.132570
H108  H     H_    0.743065 0.465421 0.087777 0.149662
H109  H     H_    0.642137 0.485307 0.960311 0.144027
H110  H     H_    0.726581 0.536258 0.007927 0.160024
H111  H     H_    0.162155 0.418963 0.930493 0.162389
H112  H     H_    0.191298 0.409682 0.071408 0.108181
H113  H     H_    0.066456 0.806361 0.954341 0.178811
H114  H     H_    0.307897 0.486613 0.146706 0.154592
H115  H     H_    0.313752 0.414592 0.089187 0.130581
H116  H     H_    0.250951 0.472880 0.898508 0.148743
H117  H     H_    0.351845 0.497730 0.019903 0.145634
H118  H     H_    0.265102 0.544718 0.974695 0.159294
H119  H     H_    0.404157 0.720573 0.261986 0.121243
H120  H     H_    0.440992 0.761896 0.394429 0.107153
H121  H     H_    0.507692 0.747838 0.358467 0.134920
H122  H     H_    0.656646 0.147836 0.951304 0.122911
H123  H     H_    0.629965 0.079408 0.862207 0.183504
H124  H     H_    0.102778 0.271255 0.056587 0.159384
H125  H     H_    0.554235 0.118292 0.863772 0.148269
H126  H     H_    0.599428 0.722173 0.748717 0.121583
H127  H     H_    0.561060 0.761228 0.613729 0.105784
H128  H     H_    0.495538 0.748482 0.652271 0.133234
H129  H     H_    0.329015 0.143551 0.038417 0.118110
H130  H     H_    0.355225 0.075524 0.128755 0.173726
H131  H     H_    0.428230 0.109314 0.115003 0.157896
H132  H     H_    0.891378 0.217118 0.261201 0.130416
H133  H     H_    0.925592 0.259390 0.391623 0.107760
H134  H     H_    0.996517 0.238801 0.366300 0.120693
H135  H     H_    0.935954 0.805806 0.044548 0.180993
H136  H     H_    0.159848 0.646389 0.953486 0.122402
H137  H     H_    0.132275 0.578233 0.863371 0.182395
H138  H     H_    0.057380 0.616921 0.867078 0.151029
H139  H     H_    0.097636 0.222260 0.744025 0.118327
H140  H     H_    0.057647 0.263031 0.609757 0.104260
H141  H     H_    0.994097 0.249636 0.651436 0.133592
H142  H     H_    0.832429 0.645590 0.040635 0.120159
H143  H     H_    0.857212 0.577110 0.129445 0.174237
H144  H     H_    0.932121 0.611722 0.120637 0.156467
H145  H     H_    0.382044 0.740751 0.695852 0.153758
H146  H     H_    0.248968 0.899150 0.317606 0.143870
H147  H     H_    0.283590 0.705831 0.616619 0.116497
H148  H     H_    0.451434 0.642564 0.732150 0.166080
H149  H     H_    0.362507 0.597196 0.684192 0.177315
H150  H     H_    0.289412 0.633388 0.485017 0.177614
H151  H     H_    0.387617 0.602382 0.538302 0.178709
H152  H     H_    0.372091 0.686207 0.527806 0.122775
H153  H     H_    0.566608 0.315805 0.225533 0.139403
H154  H     H_    0.674479 0.308220 0.311943 0.115637
H155  H     H_    0.546490 0.230185 0.093262 0.159783
H156  H     H_    0.655595 0.220919 0.179530 0.164350
N1    N     N_R   0.433280 1.000000 0.657760 -0.278152
N2    N     N_R   0.566720 1.000000 0.342240 -0.275343
N3    N     N_R   0.933280 0.500000 0.657760 -0.275948
N4    N     N_R   0.066720 0.500000 0.342240 -0.279660
O1    O     O_R   0.600040 0.935040 0.546740 -0.517258
O2    O     O_R   0.444990 0.064930 0.346780 -0.458301
O3    O     O_R   0.444990 0.935070 0.346780 -0.469075
O4    O     O_R   0.555010 0.064930 0.653220 -0.463907
O5    O     O_R   0.055010 0.435070 0.653220 -0.467271
O6    O     O_R   0.944990 0.564930 0.346780 -0.456643
O7    O     O_R   0.944990 0.435070 0.346780 -0.479693
O8    O     O_R   0.055010 0.564930 0.653220 -0.461276
O9    O     O_3   0.354967 0.996104 0.008773 -0.633789
O10   O     O_3   0.644781 0.000063 0.989819 -0.628733
O11   O     O_3   0.855093 0.496902 0.009159 -0.630696
O12   O     O_R   0.399960 0.064960 0.453260 -0.524398
O13   O     O_3   0.144892 0.499083 0.990026 -0.628352
O14   O     O_3   0.423060 0.817039 0.263531 -0.573305
O15   O     O_3   0.585252 0.163216 0.772663 -0.586086
O16   O     O_3   0.579746 0.818756 0.742522 -0.572073
O17   O     O_3   0.410856 0.158255 0.217499 -0.584861
O18   O     O_3   0.919879 0.311826 0.266936 -0.585847
O19   O     O_3   0.087152 0.662311 0.774897 -0.586333
O20   O     O_3   0.079798 0.318861 0.742526 -0.573109
O21   O     O_3   0.910853 0.659894 0.219815 -0.584890
O22   O     O_3   0.364942 0.691261 0.798662 -0.569972
O23   O     O_R   0.399960 0.935040 0.453260 -0.511743
O24   O     O_3   0.613034 0.345041 0.144137 -0.561649
O25   O     O_3   0.642158 0.699114 0.213460 -0.570537
O26   O     O_3   0.384870 0.342902 0.848329 -0.562902
O27   O     O_3   0.864474 0.192309 0.799904 -0.570066
O28   O     O_3   0.115550 0.841193 0.147297 -0.559558
O29   O     O_3   0.157025 0.210007 0.237198 -0.565320
O30   O     O_3   0.886285 0.845104 0.854159 -0.561541
O31   O     O_3   0.239709 0.020634 0.605202 -0.587178
O32   O     O_3   0.761906 0.009378 0.395806 -0.605998
O33   O     O_3   0.739431 0.518600 0.605745 -0.607775
O34   O     O_R   0.600040 0.064960 0.546740 -0.520617
O35   O     O_3   0.262118 0.506329 0.396321 -0.602899
O36   O     O_R   0.100040 0.435040 0.546740 -0.527743
O37   O     O_R   0.899960 0.564960 0.453260 -0.520935
O38   O     O_R   0.899960 0.435040 0.453260 -0.513918
O39   O     O_R   0.100040 0.564960 0.546740 -0.517013
O40   O     O_R   0.555010 0.935070 0.653220 -0.469468

loop_
_geom_bond_atom_site_label_1
_geom_bond_atom_site_label_2
_ccdc_geom_bond_type
C99   C103  A    
C87   C91   A    
C81   H83   S    
C82   N4    A    
C63   H48   S    
C66   H58   S    
C136  O19   S    
Cu2   O40   S    
C45   H6    S    
C17   O9    S    
C133  O14   S    
C125  H24   S    
C51   H19   S    
C19   H95   S    
Cu3   O39   S    
Cu4   O5    S    
C82   C87   A    
C57   C152  A    
C100  C104  A    
C105  C123  A    
C118  C153  A    
C122  O26   S    
C134  C143  A    
C21   H99   S    
C23   H105  S    
C41   H152  S    
C22   H100  S    
C55   O28   S    
C81   C86   A    
C61   H42   S    
C48   H11   S    
C7    C15   A    
C83   C88   A    
C59   C60   S    
C21   C22   S    
C76   H84   S    
C134  O17   S    
C107  C124  A    
C62   H44   S    
C57   H124  S    
C45   C47   S    
C112  C138  A    
C137  C146  A    
C5    C12   A    
C86   C90   A    
C73   C108  S    
C1    O40   A    
C130  H65   S    
C18   H92   S    
C98   C102  A    
C120  C155  A    
C138  O21   S    
C142  C151  A    
C8    C150  A    
C43   C44   S    
C66   H55   S    
C56   H31   S    
C37   O20   S    
Cu1   O1    S    
C97   C101  A    
C10   H68   S    
C67   H59   S    
C33   H131  S    
C34   H132  S    
C78   H86   S    
C31   H122  S    
C140  O20   S    
Cu1   O34   S    
C111  C137  A    
C27   H111  S    
C34   O18   S    
C110  C139  S    
Cu2   O23   S    
C39   H147  S    
C40   H148  S    
C19   H93   S    
C81   N3    A    
C15   H73   S    
C17   H88   S    
C65   H53   S    
C112  C117  S    
C9    C158  A    
C36   O19   S    
C4    C14   A    
C32   O16   S    
C6    C16   A    
C4    C159  A    
C27   O13   S    
C20   C21   S    
C5    C158  A    
C115  C151  A    
C8    C159  A    
C49   H15   S    
C96   C99   A    
C121  C156  A    
C109  C135  A    
C37   H141  S    
C110  C136  A    
C79   N1    A    
C121  C130  A    
C3    C6    A    
C69   H62   S    
C143  C160  A    
C53   C54   S    
C18   H90   S    
C106  O5    A    
C42   H153  S    
C133  C142  A    
C54   H28   S    
C44   H4    S    
C59   O29   S    
Cu1   O3    S    
C46   H113  S    
C59   H37   S    
C40   H149  S    
C85   C93   A    
C60   H40   S    
C29   H118  S    
C128  O7    A    
C30   H121  S    
Cu3   O6    S    
C71   O32   S    
C116  O29   S    
C1    C109  S    
C46   C151  A    
C16   H74   S    
C39   H145  S    
C52   H22   S    
C58   H36   S    
C48   H10   S    
C82   H82   S    
C106  C113  S    
C120  C129  A    
C64   H49   S    
C68   C153  A    
C39   C40   S    
C24   C157  A    
C25   C26   S    
C13   C156  A    
C72   C90   A    
C34   H134  S    
C94   C100  A    
C17   C18   S    
C77   N3    A    
C43   H155  S    
C25   H107  S    
C12   C35   A    
C38   O21   S    
C129  H35   S    
C26   H108  S    
C114  C123  A    
Cu1   N2    S    
C116  C125  A    
C38   H144  S    
C145  C154  A    
C69   H64   S    
C93   C97   A    
C122  C131  A    
C31   O15   S    
C52   C53   S    
C132  C141  A    
C40   C41   S    
C54   H26   S    
C62   O30   S    
C31   H123  S    
C63   H47   S    
C26   H109  S    
C31   H125  S    
C84   O23   A    
C49   O26   S    
C39   O22   S    
C95   O34   A    
C6    C147  A    
C59   H38   S    
C4    C145  A    
C75   N1    A    
C30   H119  S    
C56   C58   S    
C148  C157  A    
C63   C64   S    
C32   H127  S    
Cu2   O4    S    
C21   H98   S    
C55   H30   S    
C41   H151  S    
C49   C50   S    
C70   C75   A    
C27   H112  S    
C112  C130  A    
Cu4   O37   S    
C2    C9    A    
C53   H25   S    
C61   H41   S    
C48   H12   S    
C119  C127  A    
C12   H71   S    
C55   C56   S    
C58   H33   S    
C101  H75   S    
C64   H51   S    
C116  C152  A    
C142  C159  A    
Cu1   Cu2   S    
C14   C46   A    
C37   H140  S    
C132  O15   S    
C79   H81   S    
C28   C29   S    
Cu3   O36   S    
C71   C76   A    
C36   H136  S    
C13   H80   S    
C67   H61   S    
C115  O28   S    
C18   C19   S    
C121  O25   S    
C44   H5    S    
C66   H56   S    
C97   O9    S    
C56   H32   S    
C123  H2    S    
C22   H103  S    
C111  C129  A    
C146  C155  A    
C99   O11   S    
C124  H146  S    
C38   H142  S    
C42   C43   S    
C33   H130  S    
C20   O10   S    
Cu4   N3    S    
C78   N4    A    
Cu3   O7    S    
C45   H7    S    
C73   O12   A    
C11   C160  A    
C88   C101  A    
C105  C132  A    
C42   O24   S    
C92   C98   A    
C36   H137  S    
C51   H20   S    
C85   C89   A    
C2    H69   S    
C7    C160  A    
Cu4   O8    S    
C23   O11   S    
C60   C61   S    
C44   H3    S    
C74   C91   A    
C108  C134  A    
C80   C85   A    
C20   H97   S    
C127  H46   S    
C45   O25   S    
C50   C51   S    
C131  H57   S    
C147  C156  A    
C47   H9    S    
C61   H43   S    
C143  C152  A    
C119  C154  A    
C72   O33   S    
C28   H115  S    
C49   H14   S    
C33   O17   S    
C98   O10   S    
C115  C124  A    
C3    C144  A    
C80   H79   S    
C36   H138  S    
C42   H154  S    
C102  H76   S    
C107  C133  A    
C79   C83   A    
C22   H101  S    
Cu1   O2    S    
C104  H78   S    
C92   C93   A    
C122  C157  A    
C69   O35   S    
C139  O39   A    
C67   H60   S    
C90   C103  A    
C141  C158  A    
C65   O31   S    
C29   H117  S    
C74   C78   A    
C74   O35   S    
C35   C149  A    
C114  C149  A    
C75   H85   S    
C95   O4    A    
C32   H126  S    
C30   O14   S    
C119  O22   S    
C2    C155  A    
C89   C102  A    
C80   N2    A    
C23   H104  S    
Cu3   Cu4   S    
C91   C104  A    
C51   H18   S    
C70   C88   A    
C140  C148  A    
C84   C107  S    
C19   H94   S    
C14   H72   S    
C47   H8    S    
C141  C149  A    
C29   H116  S    
C83   C92   A    
C17   H89   S    
C62   C63   S    
Cu3   N4    S    
C64   H50   S    
C106  O36   A    
C65   H54   S    
C11   C24   A    
C70   O31   S    
C67   O33   S    
C126  H13   S    
C144  C153  A    
C86   C94   A    
C8    H66   S    
C16   C68   A    
C108  C125  A    
C95   C105  S    
C136  C145  A    
C110  C127  A    
C120  O24   S    
C73   O2    A    
C11   H70   S    
C118  O30   S    
C15   C57   A    
C69   H63   S    
C139  O8    A    
C68   H135  S    
C54   H27   S    
C100  O13   S    
C65   H52   S    
C26   H110  S    
Cu2   O12   S    
C150  H1    S    
C24   H91   S    
C94   C96   A    
C72   C77   A    
C114  O27   S    
C109  C126  A    
C60   H39   S    
C47   C48   S    
C71   C89   A    
C138  C147  A    
C87   C96   A    
C30   H120  S    
C135  O16   S    
C113  C140  A    
C20   H96   S    
C77   H87   S    
C32   H128  S    
Cu2   N1    S    
C135  C144  A    
C55   H29   S    
C41   H150  S    
C84   O3    A    
C50   H17   S    
C52   H21   S    
Cu4   O38   S    
C111  C128  S    
C52   O27   S    
C7    C148  A    
C66   O32   S    
C58   H34   S    
C5    C146  A    
C113  C131  A    
C25   H106  S    
C10   C13   A    
C28   H114  S    
C137  O18   S    
C37   H139  S    
C117  O37   A    
C9    H67   S    
C53   H23   S    
C3    C10   A    
C34   H133  S    
C76   N2    A    
C103  H77   S    
C62   H45   S    
C43   H156  S    
C23   C25   S    
C35   H102  S    
C33   H129  S    
C117  O6    A    
C50   H16   S    
C128  O38   A    
C150  C154  A    
C27   C28   S    
C38   H143  S    
C118  C126  A    
C1    O1    A    
