data_mof_unit_53292.cif
_audit_creation_date              2012-12-11T15:18:37-0500
_audit_creation_method            fapswitch 2.2
_symmetry_space_group_name_H-M    P1
_symmetry_Int_Tables_number       1
_space_group_crystal_system       triclinic
_cell_length_a                    6.941321
_cell_length_b                    19.846702
_cell_length_c                    23.767483
_cell_angle_alpha                 93.446909
_cell_angle_beta                  91.36034
_cell_angle_gamma                 88.425977
_cell_volume                      3266.30661765

loop_
_atom_site_label
_atom_site_type_symbol
_atom_type_description
_atom_site_fract_x
_atom_site_fract_y
_atom_site_fract_z
_atom_type_partial_charge
O1    O     O_R   0.620100 0.812200 0.810870 -0.540757
O2    O     O_R   0.379900 0.187800 0.189130 -0.542999
O3    O     O_R   0.296960 0.671650 0.794750 -0.537490
O4    O     O_R   0.703040 0.328350 0.205250 -0.536951
O5    O     O_R   0.120160 0.687800 0.689130 -0.543748
O6    O     O_R   0.879840 0.312200 0.310870 -0.543076
C1    C     C_R   0.468984 0.646940 0.804725 0.714388
C2    C     C_R   0.531028 0.353064 0.195275 0.710659
O7    O     O_R   0.290810 0.810670 0.817290 -0.543769
O8    O     O_R   0.709190 0.189330 0.182710 -0.543058
O9    O     O_R   0.113980 0.827820 0.711840 -0.537205
O10   O     O_R   0.886020 0.172180 0.288160 -0.536655
C3    C     C_R   0.459453 0.831689 0.834374 0.713692
C4    C     C_R   0.540546 0.168274 0.165651 0.710008
O11   O     O_R   0.626290 0.672180 0.788160 -0.532650
O12   O     O_R   0.373710 0.327820 0.211840 -0.534592
O13   O     O_3   0.451520 0.755460 0.715370 -0.369701
O14   O     O_3   0.548480 0.244540 0.284630 -0.367977
V1    V     V_3+5 0.179200 0.748980 0.756420 1.448114
V2    V     V_3+5 0.820800 0.251020 0.243580 1.442143
O15   O     O_R   0.783880 0.828350 0.705250 -0.537073
O16   O     O_R   0.216120 0.171650 0.294750 -0.536430
C5    C     C_R   0.949394 0.852888 0.694876 0.712461
C6    C     C_R   0.050606 0.147111 0.305123 0.714072
O17   O     O_R   0.790030 0.689320 0.682700 -0.541146
O18   O     O_R   0.209970 0.310680 0.317300 -0.540429
C7    C     C_R   0.958993 0.668328 0.665612 0.716145
C8    C     C_R   0.041008 0.331672 0.334389 0.718055
V3    V     V_3+5 0.678400 0.751010 0.743570 1.455486
V4    V     V_3+5 0.321600 0.248990 0.256430 1.446827
O19   O     O_3   0.955950 0.744540 0.784620 -0.365967
O20   O     O_3   0.044050 0.255460 0.215380 -0.368895
C9    C     C_R   0.176895 0.427031 0.395254 -0.163441
C10   C     C_R   0.823187 0.572921 0.604786 -0.163158
C11   C     C_R   0.031214 0.380181 0.384291 -0.083210
C12   C     C_R   0.968792 0.619810 0.615718 -0.082738
C13   C     C_R   0.873844 0.380627 0.420440 -0.162877
C14   C     C_R   0.126101 0.619391 0.579547 -0.162945
C15   C     C_R   0.862607 0.425992 0.468496 0.041483
C16   C     C_R   0.137382 0.573986 0.531518 0.041522
C17   C     C_R   0.006262 0.475384 0.477266 0.081741
C18   C     C_R   0.993784 0.524572 0.522766 0.081696
C19   C     C_R   0.163187 0.475504 0.440564 0.119519
C20   C     C_R   0.836893 0.524445 0.559477 0.119641
C21   C     C_R   0.709994 0.424733 0.507248 -0.036589
C22   C     C_R   0.289996 0.575237 0.492773 -0.036338
C23   C     C_R   0.696887 0.475152 0.551204 -0.205079
C24   C     C_R   0.303194 0.524798 0.448839 -0.205442
H1    H     H_    0.297907 0.427278 0.367230 0.111441
H2    H     H_    0.702215 0.572660 0.632823 0.111170
H3    H     H_    0.760114 0.345600 0.410191 0.154328
H4    H     H_    0.239742 0.654471 0.589750 0.153906
H5    H     H_    0.579536 0.474637 0.580510 0.152390
H6    H     H_    0.420574 0.525314 0.419542 0.152220
C25   C     C_R   0.945276 0.914910 0.663438 -0.073700
C26   C     C_R   0.054717 0.085089 0.336560 -0.073924
C27   C     C_R   0.850427 0.033388 0.659553 -0.007176
C28   C     C_R   0.149534 0.966609 0.340447 -0.006531
C29   C     C_R   0.866102 0.974153 0.688713 -0.200089
C30   C     C_R   0.133887 0.025845 0.311288 -0.200551
C31   C     C_R   0.998494 0.913432 0.606802 -0.195194
C32   C     C_R   0.001469 0.086567 0.393194 -0.195087
C33   C     C_R   0.965526 0.970324 0.573753 0.072064
C34   C     C_R   0.034419 0.029676 0.426245 0.072004
C35   C     C_R   0.910359 0.032314 0.602670 0.054639
C36   C     C_R   0.089585 0.967685 0.397329 0.054655
C37   C     C_R   0.994391 0.968711 0.513719 0.013305
C38   C     C_R   0.005540 0.031290 0.486279 0.013309
C39   C     C_R   0.993957 0.092591 0.520604 -0.065601
C40   C     C_R   0.005959 0.907411 0.479394 -0.065600
C41   C     C_R   0.933574 0.092469 0.576055 -0.161992
C42   C     C_R   0.066350 0.907531 0.423944 -0.162074
H7    H     H_    0.921454 0.140483 0.600076 0.165642
H8    H     H_    0.078459 0.859517 0.399922 0.165637
H9    H     H_    0.930365 0.132126 0.409944 0.127960
H10   H     H_    0.069587 0.867873 0.590049 0.127856
H11   H     H_    0.183055 0.025893 0.268304 0.137696
H12   H     H_    0.816948 0.974103 0.731698 0.138244
C43   C     C_R   0.490500 0.584873 0.835672 -0.071343
C44   C     C_R   0.509595 0.415090 0.164260 -0.070565
C45   C     C_R   0.587735 0.466481 0.836007 0.010419
C46   C     C_R   0.411963 0.533431 0.163714 0.010215
C47   C     C_R   0.564828 0.526320 0.808016 -0.194847
C48   C     C_R   0.434408 0.473612 0.191756 -0.192732
C49   C     C_R   0.452923 0.585235 0.893317 -0.139919
C50   C     C_R   0.548407 0.414725 0.106693 -0.150822
C51   C     C_R   0.503904 0.528822 0.925225 0.097099
C52   C     C_R   0.497525 0.471038 0.074661 0.102586
C53   C     C_R   0.554171 0.467177 0.894932 0.034308
C54   C     C_R   0.446692 0.532712 0.104856 0.036189
C55   C     C_R   0.498922 0.530985 0.985876 0.001878
C56   C     C_R   0.503038 0.468790 0.014003 0.000051
C57   C     C_R   0.512162 0.406964 0.980192 -0.033242
C58   C     C_R   0.490343 0.592814 0.019710 -0.029234
C59   C     C_R   0.560983 0.407468 0.923533 -0.191853
C60   C     C_R   0.440659 0.592424 0.076242 -0.195355
H13   H     H_    0.586511 0.359471 0.900757 0.194955
H14   H     H_    0.415261 0.640469 0.098951 0.196342
H15   H     H_    0.617448 0.369860 0.087741 0.113291
H16   H     H_    0.384553 0.630146 0.912433 0.113551
H17   H     H_    0.402830 0.473480 0.236246 0.124368
H18   H     H_    0.595493 0.526464 0.763466 0.124406
C61   C     C_R   0.685557 0.074063 0.103815 -0.201078
C62   C     C_R   0.314270 0.925747 0.896323 -0.199565
C63   C     C_R   0.530211 0.119269 0.116030 -0.076004
C64   C     C_R   0.469710 0.880603 0.884058 -0.080546
C65   C     C_R   0.363153 0.116571 0.081247 -0.193952
C66   C     C_R   0.636678 0.883245 0.918880 -0.215734
C67   C     C_R   0.350955 0.069732 0.034651 0.094126
C68   C     C_R   0.648745 0.930001 0.965537 0.085603
C69   C     C_R   0.506077 0.023857 0.023260 0.060572
C70   C     C_R   0.493598 0.975859 0.976943 0.062148
C71   C     C_R   0.673555 0.025847 0.058145 0.091612
C72   C     C_R   0.326151 0.973889 0.942046 0.089531
C73   C     C_R   0.186202 0.067859 0.999238 -0.167996
C74   C     C_R   0.813440 0.931842 0.000974 -0.176297
C75   C     C_R   0.174038 0.020441 0.953322 -0.163829
C76   C     C_R   0.825612 0.979263 0.046890 -0.166045
H19   H     H_    0.814250 0.075460 0.130585 0.124506
H20   H     H_    0.185611 0.924377 0.869538 0.125549
H21   H     H_    0.243219 0.151449 0.090119 0.123476
H22   H     H_    0.756647 0.848394 0.909985 0.138118
H23   H     H_    0.065963 0.102824 0.007259 0.144712
H24   H     H_    0.933675 0.896875 0.992954 0.145997
H25   H     H_    0.044852 0.019921 0.926805 0.146841
H26   H     H_    0.954798 0.979782 0.073406 0.144791
C77   C     C_2   0.645048 0.404691 0.801631 0.769956
O21   O     O_2   0.786528 0.405141 0.771971 -0.538722
O22   O     O_R   0.532151 0.347344 0.800665 -0.650191
H27   H     H_    0.585021 0.308990 0.774916 0.318204
C78   C     C_2   0.353777 0.595218 0.197959 0.769770
O23   O     O_2   0.211578 0.594740 0.227327 -0.538726
O24   O     O_R   0.466610 0.652593 0.199149 -0.650848
H28   H     H_    0.413081 0.690944 0.224781 0.317731
C79   C     C_2   0.442853 0.341932 0.999044 0.760288
O25   O     O_2   0.524297 0.288666 0.983952 -0.549391
O26   O     O_R   0.280124 0.341512 0.032629 -0.656353
H29   H     H_    0.246923 0.294342 0.042698 0.293662
C80   C     C_2   0.560502 0.657864 0.001244 0.755831
O27   O     O_2   0.704025 0.658501 0.972399 -0.553104
O28   O     O_R   0.466774 0.718612 0.018584 -0.654617
H30   H     H_    0.528873 0.759375 0.003586 0.302606
C81   C     C_2   0.568308 0.369714 0.505749 0.774385
O29   O     O_2   0.401713 0.382389 0.519270 -0.548138
O30   O     O_R   0.627264 0.302831 0.492372 -0.658529
H31   H     H_    0.518090 0.270112 0.493740 0.318761
C82   C     C_2   0.431554 0.630290 0.494255 0.774088
O31   O     O_2   0.598358 0.617610 0.480957 -0.548199
O32   O     O_R   0.372204 0.697206 0.507383 -0.658426
H32   H     H_    0.481295 0.729962 0.506049 0.318661
C83   C     C_2   0.762432 0.094418 0.689141 0.762228
O33   O     O_2   0.791889 0.105517 0.739759 -0.542011
O34   O     O_R   0.639633 0.137745 0.659774 -0.658771
H33   H     H_    0.587542 0.176971 0.684734 0.313379
C84   C     C_2   0.237517 0.905577 0.310860 0.760934
O35   O     O_2   0.208066 0.894480 0.260242 -0.543472
O36   O     O_R   0.360295 0.862245 0.340228 -0.658737
H34   H     H_    0.412382 0.823018 0.315268 0.313126
C85   C     C_1   0.065515 0.156063 0.503917 0.328521
N1    N     N_1   0.123042 0.206985 0.490990 -0.327388
C86   C     C_1   0.934356 0.843946 0.496080 0.328411
N2    N     N_1   0.876785 0.793031 0.509009 -0.327411

loop_
_geom_bond_atom_site_label_1
_geom_bond_atom_site_label_2
_ccdc_geom_bond_type
C14   C16   A    
C33   C35   A    
O36   H34   S    
C58   C80   S    
C47   H18   S    
C25   C29   A    
C84   O36   S    
O13   V3    S    
C17   C18   A    
C69   C70   A    
C6    C26   S    
C44   C48   A    
V1    O19   S    
C39   C85   S    
C70   C72   A    
O30   H31   S    
C79   O25   D    
C15   C17   A    
C24   H6    S    
C63   C65   A    
O9    V1    S    
C34   C38   A    
C82   O32   S    
O3    C1    A    
C67   C69   A    
C13   H3    S    
C50   C52   A    
C27   C29   A    
C14   H4    S    
C28   C30   A    
C81   O29   D    
C25   C31   A    
C79   O26   S    
C39   C41   A    
O7    C3    A    
C32   C34   A    
C82   O31   D    
C9    C11   A    
O5    C7    A    
C28   C36   A    
C4    C63   S    
C36   C42   A    
C52   C56   A    
C8    C11   S    
O8    V2    S    
C38   C39   A    
C73   C75   A    
C60   H14   S    
C44   C50   A    
C83   O33   D    
O3    V1    S    
O14   V4    S    
C74   H24   S    
C19   C24   A    
C10   C12   A    
C20   C23   A    
O4    C2    A    
C15   C21   A    
C26   C32   A    
C45   C53   A    
C21   C23   A    
C5    C25   S    
C2    O12   A    
C45   C77   S    
C48   H17   S    
C17   C19   A    
C18   C20   A    
C29   H12   S    
C62   C64   A    
C45   C47   A    
O7    V1    S    
O11   V3    S    
C22   C24   A    
C49   C51   A    
C31   H10   S    
O17   V3    S    
C13   C15   A    
C33   C37   A    
C30   H11   S    
C10   H2    S    
C73   H23   S    
C51   C55   A    
C37   C38   A    
C9    C19   A    
C10   C20   A    
C69   C71   A    
O8    C4    A    
C66   H22   S    
C55   C56   A    
C41   H7    S    
C3    C64   S    
C1    O11   A    
C78   O24   S    
C35   C41   A    
O15   V3    S    
C26   C30   A    
C34   C36   A    
C53   C59   A    
C16   C22   A    
C77   O22   S    
C22   C82   S    
C85   N1    T    
C2    C44   S    
O10   V2    S    
O1    V3    S    
C61   C63   A    
C58   C60   A    
C50   H15   S    
C74   C76   A    
C62   C72   A    
C42   H8    S    
C52   C54   A    
O18   V4    S    
C46   C48   A    
O15   C5    A    
O24   H28   S    
O16   C6    A    
C32   H9    S    
O1    C3    A    
C65   H21   S    
C78   O23   D    
C40   C86   S    
C68   C74   A    
C43   C49   A    
C11   C13   A    
C1    C43   S    
O22   H27   S    
V2    O20   S    
C81   O30   S    
O16   V4    S    
C61   C71   A    
C31   C33   A    
C61   H19   S    
C27   C35   A    
C16   C18   A    
C57   C79   S    
C80   O27   D    
C59   H13   S    
C54   C60   A    
O5    V1    S    
O4    V2    S    
C7    C12   S    
O17   C7    A    
O6    V2    S    
O26   H29   S    
O10   C6    A    
O18   C8    A    
C46   C54   A    
C23   H5    S    
O2    V4    S    
C37   C40   A    
C12   C14   A    
C46   C78   S    
V3    O19   S    
C49   H16   S    
C86   N2    T    
O32   H32   S    
C55   C58   A    
V4    O20   S    
C80   O28   S    
C65   C67   A    
C64   C66   A    
C27   C83   S    
O9    C5    A    
C56   C57   A    
O13   V1    S    
C66   C68   A    
O14   V2    S    
C83   O34   S    
O2    C4    A    
C68   C70   A    
C72   C75   A    
C28   C84   S    
C67   C73   A    
C71   C76   A    
C43   C47   A    
O6    C8    A    
C57   C59   A    
C9    H1    S    
C84   O35   D    
C21   C81   S    
C51   C53   A    
C40   C42   A    
C76   H26   S    
O34   H33   S    
O28   H30   S    
C75   H25   S    
O12   V4    S    
C77   O21   D    
C62   H20   S    
