data_mof_unit_39954.cif
_audit_creation_date              2012-12-11T14:50:40-0500
_audit_creation_method            fapswitch 2.2
_symmetry_space_group_name_H-M    P1
_symmetry_Int_Tables_number       1
_space_group_crystal_system       triclinic
_cell_length_a                    20.722716
_cell_length_b                    7.110973
_cell_length_c                    20.332958
_cell_angle_alpha                 90.001736
_cell_angle_beta                  101.558978
_cell_angle_gamma                 89.997541
_cell_volume                      2935.47092016

loop_
_atom_site_label
_atom_site_type_symbol
_atom_type_description
_atom_site_fract_x
_atom_site_fract_y
_atom_site_fract_z
_atom_type_partial_charge
O1    O     O_R   0.423690 0.494470 0.435930 -0.525077
O2    O     O_R   0.576310 0.994470 0.564070 -0.525078
O3    O     O_R   0.556070 0.822310 0.435760 -0.530284
O4    O     O_R   0.443930 0.322310 0.564240 -0.530297
C1    C     C_R   0.575734 0.655374 0.420831 0.712467
C2    C     C_R   0.424268 0.155381 0.579171 0.712604
O5    O     O_R   0.422940 0.824080 0.428040 -0.546418
O6    O     O_R   0.577060 0.324080 0.571960 -0.546501
O7    O     O_R   0.442240 0.995960 0.556300 -0.536644
O8    O     O_R   0.557760 0.495960 0.443700 -0.536691
C3    C     C_R   0.398989 0.656082 0.410252 0.707748
C4    C     C_R   0.601015 0.156085 0.589743 0.707736
O9    O     O_3   0.506490 0.661310 0.542090 -0.366486
O10   O     O_3   0.493510 0.161310 0.457910 -0.366476
V1    V     V_3+5 0.498800 0.935560 0.492190 1.457064
V2    V     V_3+5 0.501200 0.435560 0.507810 1.456927
C5    C     C_R   0.837232 0.079020 0.858741 -0.079402
C6    C     C_R   0.162774 0.579027 0.141247 -0.079389
C7    C     C_R   0.660889 0.153728 0.644484 -0.142446
C8    C     C_R   0.339123 0.653712 0.355502 -0.142459
C9    C     C_R   0.764524 0.308253 0.694642 0.243125
C10   C     C_R   0.235488 0.808244 0.305344 0.242981
C11   C     C_R   0.709516 0.289845 0.642683 -0.230767
C12   C     C_R   0.290501 0.789855 0.357296 -0.230683
C13   C     C_R   0.668026 0.030739 0.700374 -0.055389
C14   C     C_R   0.331980 0.530663 0.299620 -0.055395
C15   C     C_R   0.724312 0.047526 0.753647 0.078274
C16   C     C_R   0.275701 0.547515 0.246335 0.078213
C17   C     C_R   0.772787 0.187645 0.750757 0.095305
C18   C     C_R   0.227224 0.687632 0.249231 0.095341
C19   C     C_R   0.828436 0.203106 0.803979 -0.169991
C20   C     C_R   0.171569 0.703090 0.196015 -0.169958
C21   C     C_R   0.788842 0.943486 0.861470 -0.116299
C22   C     C_R   0.211175 0.443551 0.138496 -0.116289
C23   C     C_R   0.732910 0.929719 0.810607 -0.121405
C24   C     C_R   0.267112 0.429793 0.189352 -0.121572
H1    H     H_    0.866410 0.306331 0.802325 0.168672
H2    H     H_    0.133592 0.806294 0.197677 0.168670
H3    H     H_    0.794338 0.847074 0.903505 0.137484
H4    H     H_    0.205685 0.347185 0.096449 0.137487
H5    H     H_    0.696896 0.824427 0.816510 0.141883
H6    H     H_    0.303140 0.324584 0.183417 0.141898
H7    H     H_    0.704201 0.385564 0.600450 0.159425
H8    H     H_    0.295818 0.885595 0.399524 0.159489
C25   C     C_3   0.260440 0.256393 0.813561 0.114693
C26   C     C_3   0.739556 0.756457 0.186449 0.114656
C27   C     C_3   0.237078 0.913532 0.782518 -0.302434
C28   C     C_3   0.762911 0.413572 0.217455 -0.302484
C29   C     C_3   0.283255 0.921172 0.730852 -0.435925
C30   C     C_3   0.716740 0.421185 0.269128 -0.435974
H9    H     H_    0.356855 0.164764 0.799904 0.160179
H10   H     H_    0.643142 0.664815 0.200094 0.160221
H11   H     H_    0.197956 0.806497 0.766111 0.183543
H12   H     H_    0.802030 0.306514 0.233846 0.183523
H13   H     H_    0.265660 0.866980 0.832091 0.218680
H14   H     H_    0.734323 0.367069 0.167880 0.218678
H15   H     H_    0.333116 0.871955 0.755437 0.216877
H16   H     H_    0.666879 0.371979 0.244543 0.216928
H17   H     H_    0.265058 0.820676 0.690074 0.239454
H18   H     H_    0.734943 0.320669 0.309897 0.239450
C31   C     C_1   0.377905 0.146092 0.623871 -0.147361
C32   C     C_1   0.622095 0.646074 0.376130 -0.147477
C33   C     C_3   0.205345 0.108682 0.789441 0.096126
C34   C     C_3   0.794647 0.608717 0.210552 0.096154
C35   C     C_3   0.313967 0.241733 0.770155 0.157202
C36   C     C_3   0.686027 0.741773 0.229853 0.157229
C37   C     C_3   0.288440 0.124902 0.704312 0.068371
C38   C     C_3   0.711556 0.624903 0.295685 0.068386
C39   C     C_3   0.216346 0.188160 0.667239 0.285546
C40   C     C_3   0.783650 0.688137 0.332761 0.285519
C41   C     C_3   0.168605 0.168770 0.718525 -0.442670
C42   C     C_3   0.831390 0.668751 0.281474 -0.442679
C43   C     C_1   0.338095 0.136563 0.660288 0.038603
C44   C     C_1   0.661903 0.636547 0.339711 0.038654
C45   C     C_1   0.158186 0.097726 0.835999 0.021454
C46   C     C_1   0.841807 0.597766 0.163994 0.021470
C47   C     C_1   0.120264 0.089215 0.874419 -0.138700
C48   C     C_1   0.879731 0.589244 0.125576 -0.138708
H19   H     H_    0.142086 0.303279 0.722073 0.181452
H20   H     H_    0.857914 0.803247 0.277938 0.181450
H21   H     H_    0.129604 0.061965 0.701092 0.157642
H22   H     H_    0.870385 0.561921 0.298898 0.157649
H23   H     H_    0.238168 0.399367 0.807898 0.161383
H24   H     H_    0.761830 0.899420 0.192130 0.161384
O11   O     O_R   0.942280 0.741210 0.056360 -0.533894
O12   O     O_R   0.057720 0.241210 0.943640 -0.533894
O13   O     O_R   0.077070 0.409690 0.071960 -0.536534
O14   O     O_R   0.922930 0.909690 0.928040 -0.536539
C49   C     C_R   0.101454 0.577733 0.089003 0.696857
C50   C     C_R   0.898547 0.077733 0.910994 0.696863
O15   O     O_R   0.943940 0.411580 0.064250 -0.535705
O16   O     O_R   0.056060 0.911580 0.935750 -0.535709
O17   O     O_R   0.923670 0.239840 0.935920 -0.536578
O18   O     O_R   0.076330 0.739840 0.064080 -0.536574
C51   C     C_R   0.924485 0.580106 0.079176 0.719333
C52   C     C_R   0.075514 0.080098 0.920823 0.719334
O19   O     O_3   0.993540 0.572620 0.957940 -0.371035
O20   O     O_3   0.006460 0.072620 0.042060 -0.371028
V3    V     V_3+5 0.001200 0.298330 0.007800 1.468932
V4    V     V_3+5 0.998800 0.798330 0.992200 1.468932
Br1   Br    Br    0.217849 0.452350 0.639765 -0.611410
Br2   Br    Br    0.782147 0.952322 0.360248 -0.611425
Br3   Br    Br    0.353672 0.484454 0.759325 -0.579659
Br4   Br    Br    0.646311 0.984481 0.240704 -0.579562
C53   C     C_R   0.185209 0.083653 0.601360 0.114002
C54   C     C_R   0.119709 0.130100 0.570145 -0.094979
C55   C     C_R   0.088298 0.043113 0.510716 -0.120609
C56   C     C_R   0.121513 0.908882 0.480295 -0.043077
C57   C     C_R   0.186333 0.862510 0.509007 -0.038629
C58   C     C_R   0.218090 0.948715 0.568574 -0.112703
H25   H     H_    0.092471 0.234761 0.592111 0.135929
H26   H     H_    0.038072 0.080340 0.488195 0.124431
H27   H     H_    0.097143 0.841467 0.434258 0.141509
H28   H     H_    0.212249 0.759120 0.484988 0.137249
H29   H     H_    0.268076 0.905887 0.587298 0.121000
C59   C     C_R   0.814788 0.583606 0.398635 0.113997
C60   C     C_R   0.880287 0.630043 0.429854 -0.094973
C61   C     C_R   0.911697 0.543042 0.489280 -0.120600
C62   C     C_R   0.878483 0.408803 0.519692 -0.043085
C63   C     C_R   0.813664 0.362435 0.490974 -0.038630
C64   C     C_R   0.781907 0.448655 0.431411 -0.112693
H30   H     H_    0.907524 0.734708 0.407894 0.135931
H31   H     H_    0.961922 0.580263 0.511806 0.124433
H32   H     H_    0.902852 0.341379 0.565727 0.141506
H33   H     H_    0.787748 0.259036 0.514985 0.137256
H34   H     H_    0.731923 0.405829 0.412681 0.121015
Br5   Br    Br    0.825702 0.505795 0.686199 -0.613989
Br6   Br    Br    0.174310 0.005796 0.313789 -0.614020
C65   C     C_R   0.615643 0.891025 0.704211 0.085849
C66   C     C_R   0.628578 0.698032 0.700310 -0.121453
C67   C     C_R   0.579948 0.566221 0.705720 -0.097119
C68   C     C_R   0.517627 0.625824 0.713073 -0.046669
C69   C     C_R   0.504093 0.817712 0.716460 -0.068858
C70   C     C_R   0.553017 0.950257 0.712418 -0.125125
H35   H     H_    0.676626 0.650417 0.694240 0.149512
H36   H     H_    0.590526 0.417779 0.704460 0.107715
H37   H     H_    0.480060 0.522840 0.716300 0.156694
H38   H     H_    0.455844 0.863607 0.722557 0.129772
H39   H     H_    0.542138 0.098501 0.715635 0.085215
C71   C     C_R   0.384330 0.390763 0.295813 0.085951
C72   C     C_R   0.371273 0.197790 0.299500 -0.121796
C73   C     C_R   0.419864 0.065821 0.294102 -0.097448
C74   C     C_R   0.482276 0.125230 0.287011 -0.046403
C75   C     C_R   0.495936 0.317078 0.283848 -0.068630
C76   C     C_R   0.447047 0.449787 0.287846 -0.124580
H40   H     H_    0.323156 0.150306 0.305373 0.149704
H41   H     H_    0.409183 0.917412 0.295172 0.107824
H42   H     H_    0.519816 0.022118 0.283805 0.156486
H43   H     H_    0.544257 0.362823 0.277958 0.129715
H44   H     H_    0.458025 0.597999 0.284795 0.084784
Br7   Br    Br    0.300706 0.229649 0.908741 -0.500834
Br8   Br    Br    0.699293 0.729798 0.091267 -0.500825

loop_
_geom_bond_atom_site_label_1
_geom_bond_atom_site_label_2
_ccdc_geom_bond_type
C36   C38   S    
C53   C58   A    
C15   C17   A    
C55   H26   S    
C24   H6    S    
C66   H35   S    
O1    C3    A    
C13   C65   S    
C2    O7    A    
C41   H19   S    
O3    V1    S    
C27   C29   S    
C62   H32   S    
C59   C60   A    
O5    C3    A    
C21   H3    S    
C33   C45   S    
C22   H4    S    
C2    C31   S    
C46   C48   T    
C26   C36   S    
C14   C71   S    
C27   C33   S    
C28   C34   S    
C26   Br8   S    
C38   C44   S    
C74   C75   A    
O16   C52   A    
C29   H15   S    
C56   C57   A    
H9    C35   S    
C49   O18   A    
C39   C41   S    
C61   C62   A    
C72   C73   A    
C8    C12   A    
C68   C69   A    
C35   C37   S    
C25   Br7   S    
C55   C56   A    
C37   C43   S    
C20   H2    S    
C9    Br5   S    
C29   C37   S    
O17   V3    S    
C76   H44   S    
C27   H11   S    
C28   C30   S    
O2    C4    A    
C69   H38   S    
O6    V2    S    
C6    C49   S    
C25   H23   S    
C5    C21   A    
C7    C13   A    
O19   V3    S    
O13   V3    S    
C54   H25   S    
C74   H42   S    
C3    C8    S    
C59   C64   A    
C30   H16   S    
C36   Br4   S    
C71   C72   A    
O4    C2    A    
C67   H36   S    
C70   H39   S    
C39   C53   S    
C63   H33   S    
C15   C23   A    
C68   H37   S    
C9    C17   A    
C25   C33   S    
C19   H1    S    
C26   C34   S    
C37   C39   S    
C56   H27   S    
O4    V2    S    
C28   H12   S    
C60   H30   S    
C75   H43   S    
O12   V3    S    
C6    C22   A    
C10   Br6   S    
O18   V4    S    
C48   C51   S    
O6    C4    A    
C34   C46   S    
O1    V2    S    
O2    V1    S    
C45   C47   T    
O14   V4    S    
O12   C52   A    
C72   H40   S    
C26   H24   S    
C57   H28   S    
C38   C40   S    
O14   C50   A    
O20   V4    S    
C9    C11   A    
C25   C35   S    
C69   C70   A    
C12   H8    S    
C10   C12   A    
C6    C20   A    
C35   Br3   S    
C67   C68   A    
O19   V4    S    
H10   C36   S    
C63   C64   A    
O16   V4    S    
C50   O17   A    
C27   H13   S    
C65   C66   A    
C28   H14   S    
C10   C18   A    
C73   C74   A    
C11   H7    S    
C73   H41   S    
C5    C50   S    
C33   C41   S    
C75   C76   A    
O3    C1    A    
C71   C76   A    
C62   C63   A    
C40   Br2   S    
C39   Br1   S    
C13   C15   A    
C53   C54   A    
C47   C52   S    
C14   C16   A    
C29   H17   S    
C31   C43   T    
C16   C18   A    
C66   C67   A    
O7    V1    S    
C30   H18   S    
C64   H34   S    
C42   H20   S    
O11   V4    S    
O8    V2    S    
C60   C61   A    
C18   C20   A    
O11   C51   A    
C8    C14   A    
C5    C19   A    
C4    C7    S    
O5    V1    S    
C21   C23   A    
C1    C32   S    
C22   C24   A    
C61   H31   S    
C34   C42   S    
C23   H5    S    
O15   C51   A    
C65   C70   A    
C7    C11   A    
C1    O8    A    
C16   C24   A    
C17   C19   A    
O20   V3    S    
C54   C55   A    
O9    V2    S    
C40   C59   S    
O13   C49   A    
O10   V1    S    
C32   C44   T    
C40   C42   S    
O15   V3    S    
C57   C58   A    
C30   C38   S    
C58   H29   S    
C42   H22   S    
C41   H21   S    
