data_mof_unit_5266.cif
_audit_creation_date              2012-12-10T20:49:27-0500
_audit_creation_method            fapswitch 2.2
_symmetry_space_group_name_H-M    P1
_symmetry_Int_Tables_number       1
_space_group_crystal_system       triclinic
_cell_length_a                    15.629933
_cell_length_b                    8.984441
_cell_length_c                    8.161983
_cell_angle_alpha                 89.967709
_cell_angle_beta                  92.463922
_cell_angle_gamma                 93.71795
_cell_volume                      1142.68384388

loop_
_atom_site_label
_atom_site_type_symbol
_atom_type_description
_atom_site_fract_x
_atom_site_fract_y
_atom_site_fract_z
_atom_type_partial_charge
C1    C     C_1   0.499825 0.065101 0.500031 -0.197863
C2    C     C_3   0.995618 0.644915 0.596719 0.051728
C3    C     C_1   0.247567 0.468670 0.488852 -0.237919
C4    C     C_1   0.752068 0.539407 0.515012 -0.210701
C5    C     C_3   0.039171 0.507729 0.670945 0.069856
C6    C     C_3   0.963093 0.518218 0.370561 0.054285
C7    C     C_3   0.082116 0.484836 0.506231 0.061103
C8    C     C_3   0.919193 0.540238 0.533625 0.042782
C9    C     C_1   0.171596 0.464605 0.490441 -0.079064
C10   C     C_1   0.828084 0.552221 0.528012 -0.071338
C11   C     C_3   0.013739 0.233629 0.355632 -0.408757
C12   C     C_1   0.500051 0.934882 0.499966 -0.195996
C13   C     C_3   0.926590 0.145261 0.328847 -0.319712
C14   C     C_3   0.919814 0.062362 0.166949 -0.961173
C15   C     C_3   0.984653 0.791507 0.687201 -0.421247
C16   C     C_3   0.070717 0.880053 0.724484 -0.326129
C17   C     C_3   0.070745 0.971531 0.880890 -0.945181
C18   C     C_3   0.920054 0.276965 0.713483 -0.442507
C19   C     C_3   0.822984 0.243146 0.682700 -0.324365
C20   C     C_3   0.792631 0.090826 0.749028 -0.899456
C21   C     C_3   0.081476 0.748949 0.328791 -0.432326
C22   C     C_3   0.176079 0.794695 0.375302 -0.344558
C23   C     C_R   0.499634 0.218054 0.500000 0.928184
C24   C     C_3   0.205135 0.944102 0.300332 -0.898167
C25   C     C_3   0.916335 0.514240 0.200383 -0.402392
C26   C     C_3   0.885448 0.665595 0.145759 -0.370922
C27   C     C_3   0.817488 0.647293 0.005831 -0.866143
C28   C     C_3   0.080174 0.502179 0.846988 -0.455936
C29   C     C_3   0.178601 0.514302 0.855084 -0.318480
C30   C     C_3   0.214614 0.547021 0.028115 -0.872618
C31   C     C_R   0.500297 0.781937 0.499996 0.929655
C32   C     C_R   0.337308 0.487979 0.496497 0.903391
C33   C     C_R   0.662653 0.512263 0.503744 0.899825
C34   C     C_3   0.961133 0.403659 0.608209 0.073510
C35   C     C_3   0.040296 0.622646 0.433171 0.089342
C36   C     C_3   0.005398 0.381269 0.444817 0.045519
H1    H     H_    0.923274 0.143583 0.065139 0.266981
H2    H     H_    0.129972 0.046685 0.892202 0.260145
H3    H     H_    0.122962 0.803844 0.741827 0.234590
H4    H     H_    0.085337 0.956060 0.620711 0.223903
H5    H     H_    0.942291 0.860320 0.610680 0.178100
H6    H     H_    0.951884 0.764410 0.802183 0.222705
H7    H     H_    0.826737 0.001124 0.691774 0.254511
H8    H     H_    0.803410 0.087354 0.883892 0.269885
H9    H     H_    0.722790 0.070044 0.720138 0.259018
H10   H     H_    0.788075 0.328677 0.745926 0.236734
H11   H     H_    0.804725 0.245622 0.550593 0.218407
H12   H     H_    0.972794 0.987911 0.160402 0.269915
H13   H     H_    0.954462 0.175895 0.690344 0.218939
H14   H     H_    0.929811 0.306693 0.844704 0.184241
H15   H     H_    0.198171 0.938555 0.164628 0.268502
H16   H     H_    0.167203 0.034115 0.345746 0.257664
H17   H     H_    0.273784 0.971575 0.335452 0.257725
H18   H     H_    0.188070 0.800613 0.509339 0.215843
H19   H     H_    0.217735 0.711264 0.328556 0.239638
H20   H     H_    0.077814 0.712401 0.199075 0.192608
H21   H     H_    0.042440 0.846564 0.340401 0.212962
H22   H     H_    0.842023 0.583807 0.902960 0.261968
H23   H     H_    0.857679 0.995293 0.155476 0.262083
H24   H     H_    0.758460 0.587009 0.049381 0.276125
H25   H     H_    0.800868 0.758759 0.960333 0.252314
H26   H     H_    0.857954 0.723533 0.249469 0.243391
H27   H     H_    0.940272 0.736190 0.101638 0.211528
H28   H     H_    0.959560 0.473204 0.108870 0.183894
H29   H     H_    0.859791 0.433547 0.204382 0.219867
H30   H     H_    0.204110 0.664401 0.058048 0.262225
H31   H     H_    0.183281 0.470707 0.117965 0.266950
H32   H     H_    0.284766 0.533178 0.034566 0.271738
H33   H     H_    0.202257 0.406818 0.814682 0.237547
H34   H     H_    0.917006 0.063769 0.429553 0.217215
H35   H     H_    0.203681 0.605357 0.775124 0.226698
H36   H     H_    0.055673 0.592997 0.920176 0.216338
H37   H     H_    0.060383 0.395188 0.906068 0.188383
H38   H     H_    0.873111 0.219487 0.327458 0.225341
H39   H     H_    0.044200 0.258794 0.237256 0.210059
H40   H     H_    0.057186 0.165784 0.430856 0.179381
H41   H     H_    0.014493 0.039431 0.880428 0.273944
H42   H     H_    0.069219 0.895547 0.987699 0.259515
N1    N     N_1   0.500010 0.500000 0.073640 -0.040085
N2    N     N_1   0.499990 0.500000 0.926360 -0.037280
O1    O     O_R   0.500000 0.285340 0.636850 -0.613747
O2    O     O_R   0.500000 0.714660 0.363150 -0.613442
O3    O     O_R   0.500000 0.285340 0.363150 -0.612864
O4    O     O_R   0.500000 0.714660 0.636850 -0.613166
O5    O     O_R   0.376770 0.500000 0.636850 -0.616603
O6    O     O_R   0.623230 0.500000 0.363150 -0.612834
O7    O     O_R   0.376780 0.500000 0.363100 -0.617956
O8    O     O_R   0.623220 0.500000 0.636900 -0.616630
Zn1   Zn    Zn3+2 0.499990 0.500000 0.682780 0.980095
Zn2   Zn    Zn3+2 0.500010 0.500000 0.317220 0.978768

loop_
_geom_bond_atom_site_label_1
_geom_bond_atom_site_label_2
_ccdc_geom_bond_type
C2    C35   S    
C24   H16   S    
C7    C36   S    
C19   C20   S    
C26   H27   S    
C19   H10   S    
C22   H18   S    
C14   H23   S    
C26   C27   S    
C31   O2    A    
C23   O3    A    
C28   C29   S    
C33   O8    A    
C11   H40   S    
C19   H11   S    
C6    C25   S    
C13   H34   S    
C15   C16   S    
C6    C35   S    
C18   C19   S    
N2    Zn1   S    
N1    Zn2   S    
C27   H25   S    
C16   C17   S    
C30   H31   S    
O1    Zn1   S    
C24   H15   S    
C13   C14   S    
C28   H36   S    
C1    C12   T    
C28   H37   S    
C20   H8    S    
C29   H33   S    
C25   H29   S    
C15   H5    S    
O6    Zn2   S    
C5    C7    S    
O5    Zn1   S    
C14   H12   S    
C25   C26   S    
C32   O7    A    
C31   O4    A    
C25   H28   S    
C33   O6    A    
C21   H21   S    
C29   C30   S    
C3    C9    T    
C5    C28   S    
C5    C34   S    
C17   H41   S    
C8    C34   S    
O8    Zn1   S    
C2    C15   S    
C18   C34   S    
C30   H30   S    
C16   H4    S    
C1    C23   S    
C12   C31   S    
C22   C24   S    
C2    C5    S    
O4    Zn1   S    
C4    C10   T    
C20   H7    S    
C18   H14   S    
C7    C9    S    
O3    Zn2   S    
C4    C33   S    
C11   C36   S    
C23   O1    A    
C7    C35   S    
C2    C8    S    
C20   H9    S    
C15   H6    S    
C27   H22   S    
C21   H20   S    
C6    C8    S    
C22   H19   S    
C21   C35   S    
C24   H17   S    
O2    Zn2   S    
C27   H24   S    
C26   H26   S    
C11   H39   S    
C14   H1    S    
C11   C13   S    
C32   O5    A    
C17   H42   S    
C6    C36   S    
C34   C36   S    
C17   H2    S    
C3    C32   S    
C16   H3    S    
N1    N2    T    
C13   H38   S    
C8    C10   S    
O7    Zn2   S    
C21   C22   S    
C30   H32   S    
C18   H13   S    
C29   H35   S    
