data_mof_unit_38982.cif
_audit_creation_date              2012-12-10T19:00:16-0500
_audit_creation_method            fapswitch 2.2
_symmetry_space_group_name_H-M    P1
_symmetry_Int_Tables_number       1
_space_group_crystal_system       triclinic
_cell_length_a                    9.540702
_cell_length_b                    10.823456
_cell_length_c                    13.443653
_cell_angle_alpha                 90.068096
_cell_angle_beta                  72.463327
_cell_angle_gamma                 89.732037
_cell_volume                      1323.69819901

loop_
_atom_site_label
_atom_site_type_symbol
_atom_type_description
_atom_site_fract_x
_atom_site_fract_y
_atom_site_fract_z
_atom_type_partial_charge
C1    C     C_R   0.500324 0.737612 0.498492 0.806242
C2    C     C_R   0.373596 0.487131 0.814969 -0.106985
C3    C     C_R   0.372793 0.936759 0.502941 0.139416
C4    C     C_R   0.421444 0.493303 0.700088 0.784733
C5    C     C_R   0.503102 0.870596 0.489240 -0.102071
C6    C     C_R   0.637001 0.934584 0.462322 -0.213405
C7    C     C_R   0.637007 0.063339 0.462564 -0.215399
C8    C     C_R   0.503368 0.128932 0.489955 -0.097157
C9    C     C_R   0.372831 0.064027 0.503456 0.120926
C10   C     C_3   0.232054 0.070509 0.590756 -0.472534
C11   C     C_3   0.231916 0.930301 0.589780 -0.469904
C12   C     C_R   0.433508 0.479681 0.979740 0.087175
C13   C     C_R   0.961920 0.453951 0.416683 0.184273
C14   C     C_R   0.892584 0.556688 0.577260 -0.073193
C15   C     C_R   0.041404 0.556510 0.577354 -0.095674
C16   C     C_R   0.500677 0.262246 0.498653 0.789520
C17   C     C_R   0.109586 0.454590 0.416305 0.249261
C18   C     C_3   0.134292 0.326138 0.373993 0.156908
C19   C     C_3   0.974545 0.325103 0.375709 -0.469107
C20   C     C_R   0.578665 0.498229 0.299989 0.793768
C21   C     C_R   0.789628 0.398158 0.028167 -0.201574
C22   C     C_R   0.623176 0.482141 0.186716 -0.061368
C23   C     C_R   0.471392 0.452121 0.871647 0.081392
C24   C     C_R   0.231027 0.527706 0.869095 -0.197035
C25   C     C_R   0.187779 0.540374 0.976746 -0.162056
C26   C     C_R   0.287896 0.519329 0.031649 -0.152651
C27   C     C_R   0.542370 0.465213 0.031661 0.081457
C28   C     C_R   0.681042 0.412201 0.978025 0.164128
C29   C     C_R   0.708709 0.371233 0.875740 -0.251762
C30   C     C_R   0.604770 0.388972 0.823841 -0.209419
C31   C     C_R   0.518375 0.503339 0.135110 -0.226402
C32   C     C_R   0.760520 0.432319 0.132346 -0.202010
Cu1   Cu    Cu3+1 0.359330 0.500020 0.500010 0.936428
Cu2   Cu    Cu3+1 0.640670 0.499980 0.499990 0.935311
H1    H     H_    0.843082 0.415662 0.171155 0.153920
H2    H     H_    0.958635 0.319743 0.297261 0.210996
H3    H     H_    0.811430 0.325340 0.835439 0.146466
H4    H     H_    0.907882 0.259721 0.434155 0.159529
H5    H     H_    0.895722 0.357901 0.987507 0.144112
H6    H     H_    0.417928 0.549038 0.178214 0.159318
H7    H     H_    0.153254 0.552356 0.827949 0.150112
H8    H     H_    0.246506 0.532101 0.114902 0.152752
H9    H     H_    0.077000 0.570557 0.017722 0.148825
H10   H     H_    0.629580 0.349219 0.746749 0.176398
H11   H     H_    0.740953 0.885742 0.445236 0.166658
H12   H     H_    0.740807 0.110599 0.445259 0.155760
H13   H     H_    0.328147 0.301441 0.277618 0.339179
H14   H     H_    0.246361 0.110555 0.663295 0.198210
H15   H     H_    0.140771 0.111360 0.566148 0.189507
H16   H     H_    0.245760 0.888621 0.661849 0.193722
H17   H     H_    0.141457 0.890677 0.563766 0.199659
H18   H     H_    0.810012 0.601045 0.640687 0.151662
H19   H     H_    0.070020 0.600456 0.640831 0.140116
H20   H     H_    0.160753 0.257494 0.427316 0.116047
N1    N     N_R   0.852320 0.499070 0.499340 -0.186439
N2    N     N_R   0.148230 0.499110 0.499340 -0.213946
O1    O     O_R   0.381190 0.680360 0.500000 -0.574142
O2    O     O_R   0.618780 0.680320 0.499990 -0.579869
O3    O     O_R   0.323230 0.500000 0.650990 -0.584619
O4    O     O_R   0.560820 0.499960 0.650980 -0.588645
O5    O     O_R   0.381220 0.319680 0.500010 -0.591666
O6    O     O_R   0.618810 0.319640 0.500000 -0.586667
O7    O     O_R   0.439180 0.500040 0.349020 -0.580697
O8    O     O_R   0.676770 0.500000 0.349010 -0.579417
O9    O     O_3   0.229957 0.323754 0.271833 -0.718073

loop_
_geom_bond_atom_site_label_1
_geom_bond_atom_site_label_2
_ccdc_geom_bond_type
C16   O5    A    
C20   O8    A    
C2    C4    S    
C23   C30   A    
C6    C7    A    
C3    C9    A    
C6    H11   S    
C1    O1    A    
C9    C10   S    
C2    C24   A    
C21   H5    S    
C13   C17   A    
Cu1   Cu2   S    
Cu1   O7    S    
C30   H10   S    
C15   N2    A    
C25   H9    S    
C20   O7    A    
Cu2   O8    S    
C17   C18   S    
C7    C8    A    
Cu1   O3    S    
C11   H16   S    
C1    O2    A    
C24   C25   A    
C18   O9    S    
Cu2   O4    S    
C24   H7    S    
C12   C23   A    
C4    O4    A    
C29   C30   A    
C22   C32   A    
Cu1   N2    S    
C1    C5    S    
C15   H19   S    
C4    O3    A    
Cu1   O5    S    
C28   C29   A    
C19   H4    S    
C21   C28   A    
C20   C22   S    
C14   N1    A    
C17   N2    A    
C19   H2    S    
H13   O9    S    
C10   H14   S    
C5    C6    A    
C21   C32   A    
C3    C11   S    
C22   C31   A    
C13   C19   S    
C12   C27   A    
C27   C31   A    
C7    H12   S    
Cu2   N1    S    
C11   H17   S    
C31   H6    S    
C26   H8    S    
C2    C23   A    
C8    C16   S    
C18   C19   S    
C10   C11   S    
C29   H3    S    
C27   C28   A    
Cu2   O2    S    
C18   H20   S    
C14   C15   A    
Cu1   O1    S    
C3    C5    A    
C25   C26   A    
C10   H15   S    
C16   O6    A    
Cu2   O6    S    
C14   H18   S    
C32   H1    S    
C12   C26   A    
C8    C9    A    
C13   N1    A    
