data_mof_unit_65613.cif
_audit_creation_date              2013-03-05T16:32:17-0500
_audit_creation_method            fapswitch 2.2
_symmetry_space_group_name_H-M    P1
_symmetry_Int_Tables_number       1
_space_group_crystal_system       triclinic
_cell_length_a                    32.07072
_cell_length_b                    32.070769
_cell_length_c                    47.199065
_cell_angle_alpha                 90.000152
_cell_angle_beta                  89.999881
_cell_angle_gamma                 89.948536
_cell_volume                      48545.7599499

loop_
_atom_site_label
_atom_site_type_symbol
_atom_site_description
_atom_site_fract_x
_atom_site_fract_y
_atom_site_fract_z
_atom_type_partial_charge
O1    O     O_R   0.060960 0.534400 0.000040 -0.613893
O2    O     O_R   0.465600 0.060960 0.000040 -0.609529
O3    O     O_R   0.939040 0.465600 0.000040 -0.613958
O4    O     O_R   0.534400 0.939040 0.000040 -0.609470
O5    O     O_R   0.060960 0.465600 0.999960 -0.605706
O6    O     O_R   0.465600 0.939040 0.999960 -0.610046
O7    O     O_R   0.939040 0.534400 0.999960 -0.605765
O8    O     O_R   0.534400 0.060960 0.999960 -0.610125
O9    O     O_R   0.560960 0.034400 0.500040 -0.610191
O10   O     O_R   0.965600 0.560960 0.500040 -0.605728
O11   O     O_R   0.439040 0.965600 0.500040 -0.610153
O12   O     O_R   0.034400 0.439040 0.500040 -0.605702
O13   O     O_R   0.560960 0.965600 0.499960 -0.609364
O14   O     O_R   0.965600 0.439040 0.499960 -0.613919
O15   O     O_R   0.439040 0.034400 0.499960 -0.609315
O16   O     O_R   0.034400 0.560960 0.499960 -0.613922
C1    C     C_R   0.080701 0.499983 1.000000 0.913028
C2    C     C_R   0.499983 0.080701 0.000000 0.913127
C3    C     C_R   0.919299 0.500017 1.000000 0.913133
C4    C     C_R   0.500017 0.919299 0.000000 0.913026
C5    C     C_R   0.580701 0.999983 0.500000 0.912873
C6    C     C_R   0.999983 0.580701 0.500000 0.913064
C7    C     C_R   0.419299 0.000017 0.500000 0.912813
C8    C     C_R   0.000017 0.419299 0.500000 0.913042
O17   O     O_R   0.999950 0.534400 0.041950 -0.619829
O18   O     O_R   0.465600 0.999950 0.041950 -0.620095
O19   O     O_R   0.000050 0.465600 0.041950 -0.619896
O20   O     O_R   0.534400 0.000050 0.041950 -0.620029
O21   O     O_R   0.999950 0.465600 0.958050 -0.619913
O22   O     O_R   0.465600 0.000050 0.958050 -0.619878
O23   O     O_R   0.000050 0.534400 0.958050 -0.619960
O24   O     O_R   0.534400 0.999950 0.958050 -0.619950
O25   O     O_R   0.499950 0.034400 0.541950 -0.619920
O26   O     O_R   0.965600 0.499950 0.541950 -0.619924
O27   O     O_R   0.500050 0.965600 0.541950 -0.619873
O28   O     O_R   0.034400 0.500050 0.541950 -0.619908
O29   O     O_R   0.499950 0.965600 0.458050 -0.619807
O30   O     O_R   0.965600 0.500050 0.458050 -0.619846
O31   O     O_R   0.500050 0.034400 0.458050 -0.619752
O32   O     O_R   0.034400 0.499950 0.458050 -0.619856
C9    C     C_R   0.000000 0.500000 0.055557 0.879516
C10   C     C_R   0.500000 1.000000 0.055559 0.879613
C11   C     C_R   0.000000 0.500000 0.944443 0.879565
C12   C     C_R   0.500000 1.000000 0.944443 0.879595
C13   C     C_R   0.500000 0.000000 0.555557 0.879517
C14   C     C_R   1.000000 0.500000 0.555557 0.879536
C15   C     C_R   0.500000 1.000000 0.444445 0.879216
C16   C     C_R   0.000000 0.500000 0.444443 0.879501
Zn1   Zn    Zn3+2 0.000000 0.545950 0.000000 1.005252
Zn2   Zn    Zn3+2 0.454050 0.000000 0.000000 1.005141
Zn3   Zn    Zn3+2 0.000000 0.454050 0.000000 1.005227
Zn4   Zn    Zn3+2 0.545950 0.000000 0.000000 1.005111
Zn5   Zn    Zn3+2 0.500000 0.045950 0.500000 1.005494
Zn6   Zn    Zn3+2 0.954050 0.500000 0.500000 1.005332
Zn7   Zn    Zn3+2 0.500000 0.954050 0.500000 1.005478
Zn8   Zn    Zn3+2 0.045950 0.500000 0.500000 1.005359
C17   C     C_R   0.024454 0.471983 0.309814 0.562994
C18   C     C_R   0.472471 0.025003 0.309813 0.563216
C19   C     C_R   0.975547 0.528017 0.309815 0.562994
C20   C     C_R   0.527505 0.974977 0.309813 0.563267
C21   C     C_R   0.024485 0.472010 0.690185 0.563814
C22   C     C_R   0.472004 0.975571 0.690185 0.563849
C23   C     C_R   0.975515 0.527989 0.690186 0.563826
C24   C     C_R   0.527994 0.024429 0.690185 0.563877
C25   C     C_R   0.475568 0.972008 0.809814 0.563849
C26   C     C_R   0.028038 0.475570 0.809815 0.563786
C27   C     C_R   0.524433 0.027991 0.809814 0.563900
C28   C     C_R   0.971963 0.524431 0.809815 0.563821
C29   C     C_R   0.476096 0.028485 0.190183 0.563089
C30   C     C_R   0.028020 0.475548 0.190185 0.562975
C31   C     C_R   0.523885 0.971491 0.190183 0.563026
C32   C     C_R   0.971983 0.524453 0.190186 0.563008
N1    N     N_R   0.000001 0.500000 0.323842 -0.365275
N2    N     N_R   0.499990 0.999992 0.323844 -0.365136
N3    N     N_R   1.000000 0.500000 0.676158 -0.365178
N4    N     N_R   0.499999 0.000000 0.676158 -0.365158
N5    N     N_R   0.500000 0.999999 0.823842 -0.365158
N6    N     N_R   0.000001 0.500000 0.823842 -0.365185
N7    N     N_R   0.499993 0.999990 0.176160 -0.365259
N8    N     N_R   0.000001 0.500000 0.176158 -0.365278
O33   O     O_R   0.499970 0.439020 0.023730 -0.610589
O34   O     O_R   0.560980 0.499970 0.023730 -0.610401
O35   O     O_R   0.500030 0.560980 0.023730 -0.610580
O36   O     O_R   0.439020 0.500030 0.023730 -0.610584
O37   O     O_R   0.499970 0.560980 0.976270 -0.610638
O38   O     O_R   0.560980 0.500030 0.976270 -0.610582
O39   O     O_R   0.500030 0.439020 0.976270 -0.610479
O40   O     O_R   0.439020 0.499970 0.976270 -0.610545
O41   O     O_R   0.999970 0.939020 0.523730 -0.610506
O42   O     O_R   0.060980 0.999970 0.523730 -0.610589
O43   O     O_R   0.000030 0.060980 0.523730 -0.610595
O44   O     O_R   0.939020 0.000030 0.523730 -0.610559
O45   O     O_R   0.999970 0.060980 0.476270 -0.610529
O46   O     O_R   0.060980 0.000030 0.476270 -0.610726
O47   O     O_R   0.000030 0.939020 0.476270 -0.610587
O48   O     O_R   0.939020 0.999970 0.476270 -0.610667
C33   C     C_R   0.973244 0.527430 0.279990 -0.150699
C34   C     C_R   0.526826 0.972643 0.279991 -0.150571
C35   C     C_R   0.026758 0.472571 0.279990 -0.150706
C36   C     C_R   0.473140 0.027326 0.279990 -0.150576
C37   C     C_R   0.973214 0.527400 0.720010 -0.150452
C38   C     C_R   0.527406 0.026731 0.720010 -0.150436
C39   C     C_R   0.026787 0.472600 0.720010 -0.150447
C40   C     C_R   0.472592 0.973270 0.720010 -0.150428
C41   C     C_R   0.526734 0.027403 0.779990 -0.150440
C42   C     C_R   0.972543 0.526729 0.779990 -0.150463
C43   C     C_R   0.473265 0.972596 0.779990 -0.150421
C44   C     C_R   0.027458 0.473271 0.779990 -0.150453
C45   C     C_R   0.526146 0.971981 0.220011 -0.150766
C46   C     C_R   0.972570 0.526756 0.220010 -0.150707
C47   C     C_R   0.473822 0.027985 0.220010 -0.150764
C48   C     C_R   0.027433 0.473245 0.220010 -0.150694
C49   C     C_R   0.000001 0.500000 0.264989 -0.071496
C50   C     C_R   0.499983 0.999984 0.264989 -0.071596
C51   C     C_R   0.000000 0.500000 0.735011 -0.071441
C52   C     C_R   0.499999 0.000000 0.735011 -0.071445
C53   C     C_R   0.500000 1.000000 0.764989 -0.071448
C54   C     C_R   0.000001 0.500000 0.764989 -0.071437
C55   C     C_R   0.499984 0.999983 0.235010 -0.071461
C56   C     C_R   0.000001 0.500000 0.235011 -0.071501
C57   C     C_R   0.945895 0.554018 0.264842 0.224651
C58   C     C_R   0.552770 0.944678 0.264848 0.224839
C59   C     C_R   0.054108 0.445983 0.264842 0.224650
C60   C     C_R   0.447183 0.055277 0.264846 0.224835
C61   C     C_R   0.945835 0.553958 0.735158 0.225862
C62   C     C_R   0.553972 0.054054 0.735158 0.225945
C63   C     C_R   0.054167 0.446042 0.735157 0.225858
C64   C     C_R   0.446026 0.945946 0.735158 0.225933
C65   C     C_R   0.554061 0.053965 0.764842 0.225959
C66   C     C_R   0.945924 0.554048 0.764842 0.225870
C67   C     C_R   0.445938 0.946034 0.764842 0.225943
C68   C     C_R   0.054078 0.445953 0.764842 0.225857
C69   C     C_R   0.552863 0.944762 0.235164 0.224861
C70   C     C_R   0.945982 0.554104 0.235158 0.224653
C71   C     C_R   0.447091 0.055192 0.235161 0.224871
C72   C     C_R   0.054021 0.445897 0.235158 0.224677
Zn9   Zn    Zn3+2 0.500000 0.500000 0.031630 1.009005
Zn10  Zn    Zn3+2 0.500000 0.500000 0.968370 1.008964
Zn11  Zn    Zn3+2 0.000000 1.000000 0.531630 1.008870
Zn12  Zn    Zn3+2 1.000000 1.000000 0.468370 1.008559
O49   O     O_2   0.045751 0.443299 0.324915 -0.480707
O50   O     O_2   0.444178 0.046832 0.324904 -0.481276
O51   O     O_2   0.954250 0.556701 0.324915 -0.480695
O52   O     O_2   0.555805 0.953156 0.324903 -0.481256
O53   O     O_2   0.045815 0.443351 0.675085 -0.481363
O54   O     O_2   0.443342 0.954297 0.675084 -0.481487
O55   O     O_2   0.954184 0.556648 0.675085 -0.481349
O56   O     O_2   0.556656 0.045704 0.675084 -0.481474
O57   O     O_2   0.454290 0.943347 0.824915 -0.481504
O58   O     O_2   0.056734 0.454290 0.824916 -0.481368
O59   O     O_2   0.545710 0.056650 0.824915 -0.481457
O60   O     O_2   0.943267 0.545709 0.824917 -0.481339
O61   O     O_2   0.455319 0.057536 0.175073 -0.481125
O62   O     O_2   0.056705 0.454253 0.175085 -0.480766
O63   O     O_2   0.544672 0.942448 0.175072 -0.481158
O64   O     O_2   0.943298 0.545749 0.175085 -0.480637
C73   C     C_R   0.990915 0.463294 0.130969 -0.076573
C74   C     C_R   0.536820 0.008594 0.130981 -0.076766
C75   C     C_R   0.009088 0.536707 0.130969 -0.076598
C76   C     C_R   0.463173 0.991394 0.130978 -0.076865
C77   C     C_R   0.009092 0.536705 0.869029 -0.076340
C78   C     C_R   0.536710 0.990859 0.869030 -0.076340
C79   C     C_R   0.990909 0.463294 0.869029 -0.076270
C80   C     C_R   0.463290 0.009139 0.869030 -0.076230
C81   C     C_R   0.509136 0.963290 0.630970 -0.076278
C82   C     C_R   0.036693 0.509142 0.630970 -0.076264
C83   C     C_R   0.490862 0.036711 0.630970 -0.076334
C84   C     C_R   0.963307 0.490858 0.630970 -0.076289
C85   C     C_R   0.509629 0.036563 0.369037 -0.076417
C86   C     C_R   0.036707 0.509088 0.369031 -0.076577
C87   C     C_R   0.490359 0.963430 0.369040 -0.076496
C88   C     C_R   0.963294 0.490912 0.369030 -0.076572
H1    H     H_    0.983652 0.434877 0.142332 0.161655
H2    H     H_    0.565329 0.015469 0.142347 0.161494
H3    H     H_    0.016350 0.565124 0.142331 0.161664
H4    H     H_    0.434662 0.984516 0.142343 0.161477
H5    H     H_    0.016357 0.565121 0.857666 0.162179
H6    H     H_    0.565129 0.983556 0.857667 0.162269
H7    H     H_    0.983644 0.434879 0.857666 0.162193
H8    H     H_    0.434871 0.016442 0.857667 0.162305
H9    H     H_    0.516437 0.934870 0.642333 0.162300
H10   H     H_    0.065098 0.516446 0.642332 0.162236
H11   H     H_    0.483561 0.065130 0.642333 0.162288
H12   H     H_    0.934901 0.483553 0.642333 0.162226
H13   H     H_    0.517322 0.064867 0.357676 0.162150
H14   H     H_    0.065123 0.516351 0.357669 0.161680
H15   H     H_    0.482663 0.935124 0.357681 0.162134
H16   H     H_    0.934878 0.483649 0.357668 0.161688
C89   C     C_R   0.991139 0.463204 0.101496 -0.197152
C90   C     C_R   0.536906 0.008386 0.101507 -0.197000
C91   C     C_R   0.008862 0.536797 0.101496 -0.197099
C92   C     C_R   0.463090 0.991607 0.101504 -0.197154
C93   C     C_R   0.008870 0.536795 0.898503 -0.197144
C94   C     C_R   0.536800 0.991083 0.898503 -0.197213
C95   C     C_R   0.991131 0.463205 0.898503 -0.197013
C96   C     C_R   0.463201 0.008915 0.898504 -0.197030
C97   C     C_R   0.508913 0.963200 0.601497 -0.197069
C98   C     C_R   0.036783 0.508918 0.601496 -0.197050
C99   C     C_R   0.491086 0.036800 0.601497 -0.197191
C100  C     C_R   0.963217 0.491082 0.601496 -0.197091
C101  C     C_R   0.509395 0.036660 0.398511 -0.197258
C102  C     C_R   0.036797 0.508863 0.398504 -0.197108
C103  C     C_R   0.490597 0.963336 0.398513 -0.197377
C104  C     C_R   0.963204 0.491137 0.398504 -0.197102
H17   H     H_    0.984026 0.434504 0.090417 0.171638
H18   H     H_    0.565701 0.015123 0.090434 0.172174
H19   H     H_    0.015976 0.565496 0.090417 0.171675
H20   H     H_    0.434296 0.984872 0.090430 0.172148
H21   H     H_    0.015987 0.565494 0.909581 0.172160
H22   H     H_    0.565502 0.983928 0.909582 0.172274
H23   H     H_    0.984013 0.434506 0.909580 0.172181
H24   H     H_    0.434498 0.016071 0.909582 0.172319
H25   H     H_    0.516066 0.934497 0.590418 0.172329
H26   H     H_    0.065472 0.516075 0.590418 0.172180
H27   H     H_    0.483933 0.065503 0.590418 0.172306
H28   H     H_    0.934528 0.483925 0.590418 0.172168
H29   H     H_    0.516935 0.065248 0.409592 0.171900
H30   H     H_    0.065496 0.515977 0.409583 0.171677
H31   H     H_    0.483059 0.934749 0.409596 0.171874
H32   H     H_    0.934505 0.484023 0.409583 0.171685
C105  C     C_R   0.000001 0.500000 0.086567 -0.053105
C106  C     C_R   0.499999 0.999997 0.086574 -0.053856
C107  C     C_R   0.000000 0.500000 0.913432 -0.053856
C108  C     C_R   0.500000 0.999999 0.913432 -0.053987
C109  C     C_R   0.500000 0.000000 0.586568 -0.053996
C110  C     C_R   1.000000 0.500000 0.586568 -0.053850
C111  C     C_R   0.499997 0.999999 0.413438 -0.053454
C112  C     C_R   0.000000 0.500000 0.413433 -0.053125
C113  C     C_R   0.000001 0.500000 0.145799 0.273191
C114  C     C_R   0.499996 0.999992 0.145805 0.273609
C115  C     C_R   0.000001 0.500000 0.854201 0.272831
C116  C     C_R   0.500000 0.999999 0.854201 0.272746
C117  C     C_R   0.499999 0.000000 0.645799 0.272740
C118  C     C_R   1.000000 0.500000 0.645799 0.272765
C119  C     C_R   0.499993 0.999995 0.354206 0.272589
C120  C     C_R   0.000001 0.500000 0.354201 0.273164
H33   H     H_    0.211701 0.475801 0.957348 0.156029
H34   H     H_    0.526510 0.211647 0.958016 0.155877
H35   H     H_    0.788293 0.529076 0.958775 0.156082
H36   H     H_    0.479253 0.788347 0.956541 0.155808
H37   H     H_    0.211649 0.524048 0.042665 0.153396
H38   H     H_    0.520908 0.788303 0.043446 0.156248
H39   H     H_    0.788356 0.471068 0.041238 0.153083
H40   H     H_    0.473335 0.211704 0.041969 0.156393
H41   H     H_    0.711700 0.976978 0.457049 0.156110
H42   H     H_    0.026985 0.711646 0.458155 0.153184
H43   H     H_    0.288305 0.018987 0.456149 0.155962
H44   H     H_    0.974099 0.288352 0.457840 0.153266
H45   H     H_    0.711650 0.022864 0.542965 0.155844
H46   H     H_    0.026047 0.288297 0.542147 0.156044
H47   H     H_    0.288345 0.981172 0.543862 0.155783
H48   H     H_    0.972867 0.711705 0.541831 0.156065
C121  C     C_R   0.271820 0.486353 0.975984 -0.162707
C122  C     C_R   0.514909 0.271789 0.976355 -0.163362
C123  C     C_R   0.728177 0.516391 0.976788 -0.162720
C124  C     C_R   0.488338 0.728207 0.975525 -0.163261
C125  C     C_R   0.271790 0.513523 0.024028 -0.163034
C126  C     C_R   0.511796 0.728182 0.024464 -0.162743
C127  C     C_R   0.728212 0.483724 0.023224 -0.163074
C128  C     C_R   0.484964 0.271822 0.023631 -0.162759
C129  C     C_R   0.771819 0.987015 0.475816 -0.162895
C130  C     C_R   0.015178 0.771789 0.476434 -0.163101
C131  C     C_R   0.228183 0.010713 0.475309 -0.162905
C132  C     C_R   0.985432 0.228210 0.476257 -0.163058
C133  C     C_R   0.771791 0.012856 0.524196 -0.163305
C134  C     C_R   0.014686 0.228179 0.523732 -0.162705
C135  C     C_R   0.228206 0.989417 0.524701 -0.163204
C136  C     C_R   0.984702 0.771822 0.523553 -0.162677
H49   H     H_    0.288515 0.475820 0.957347 0.155135
H50   H     H_    0.526532 0.288459 0.958018 0.154869
H51   H     H_    0.711480 0.529056 0.958774 0.154918
H52   H     H_    0.479232 0.711534 0.956543 0.155064
H53   H     H_    0.288462 0.524069 0.042663 0.153822
H54   H     H_    0.520889 0.711489 0.043448 0.155601
H55   H     H_    0.711543 0.471046 0.041236 0.153473
H56   H     H_    0.473354 0.288517 0.041971 0.155484
H57   H     H_    0.788513 0.976997 0.457048 0.155412
H58   H     H_    0.027006 0.788459 0.458157 0.153543
H59   H     H_    0.211491 0.018967 0.456148 0.155436
H60   H     H_    0.974077 0.211540 0.457842 0.153653
H61   H     H_    0.788463 0.022886 0.542963 0.154998
H62   H     H_    0.026027 0.211484 0.542149 0.155031
H63   H     H_    0.211532 0.981150 0.543860 0.155130
H64   H     H_    0.972886 0.788518 0.541832 0.155012
C137  C     C_R   0.293438 0.499946 0.000005 0.154326
C138  C     C_R   0.499945 0.293438 0.999995 0.153680
C139  C     C_R   0.706562 0.500049 0.000005 0.154648
C140  C     C_R   0.500058 0.706562 0.999995 0.153484
C141  C     C_R   0.793438 0.999944 0.500005 0.153637
C142  C     C_R   0.999948 0.793438 0.499995 0.154550
C143  C     C_R   0.206562 0.000056 0.500004 0.153533
C144  C     C_R   0.000050 0.206562 0.499996 0.154478
C145  C     C_R   0.228344 0.513510 0.024029 -0.162167
C146  C     C_R   0.484952 0.228375 0.023630 -0.161700
C147  C     C_R   0.771659 0.483737 0.023226 -0.162223
C148  C     C_R   0.511808 0.771629 0.024463 -0.161809
C149  C     C_R   0.228373 0.486341 0.975985 -0.161313
C150  C     C_R   0.488351 0.771654 0.975524 -0.162177
C151  C     C_R   0.771624 0.516403 0.976789 -0.161081
C152  C     C_R   0.514896 0.228342 0.976354 -0.162161
C153  C     C_R   0.728344 0.012843 0.524198 -0.162157
C154  C     C_R   0.984690 0.728375 0.523552 -0.161163
C155  C     C_R   0.271653 0.989430 0.524702 -0.162144
C156  C     C_R   0.014698 0.271626 0.523731 -0.161217
C157  C     C_R   0.728372 0.987003 0.475816 -0.161960
C158  C     C_R   0.985445 0.271657 0.476255 -0.162171
C159  C     C_R   0.271630 0.010725 0.475309 -0.162022
C160  C     C_R   0.015165 0.728342 0.476433 -0.162190
C161  C     C_R   0.206726 0.499921 0.000007 0.155774
C162  C     C_R   0.499919 0.206726 0.999992 0.154498
C163  C     C_R   0.793274 0.500075 0.000008 0.155872
C164  C     C_R   0.500083 0.793274 0.999993 0.154635
C165  C     C_R   0.706726 0.999918 0.500007 0.154678
C166  C     C_R   0.999923 0.706726 0.499992 0.155845
C167  C     C_R   0.293274 0.000082 0.500006 0.154792
C168  C     C_R   0.000076 0.293274 0.499993 0.155822
C169  C     C_1   0.337875 0.499967 0.000002 -0.051126
C170  C     C_1   0.499967 0.337875 0.999998 -0.051232
C171  C     C_1   0.662125 0.500029 0.000002 -0.051079
C172  C     C_1   0.500035 0.662125 0.999998 -0.051264
C173  C     C_1   0.837875 0.999966 0.500002 -0.051334
C174  C     C_1   0.999969 0.837875 0.499998 -0.051102
C175  C     C_1   0.162125 0.000034 0.500001 -0.051343
C176  C     C_1   0.000030 0.162125 0.499998 -0.051109
C177  C     C_1   0.162290 0.499929 0.000004 -0.047005
C178  C     C_1   0.499928 0.162291 0.999995 -0.047164
C179  C     C_1   0.837709 0.500069 0.000004 -0.046996
C180  C     C_1   0.500074 0.837709 0.999996 -0.047139
C181  C     C_1   0.662290 0.999927 0.500004 -0.047239
C182  C     C_1   0.999930 0.662290 0.499996 -0.046985
C183  C     C_1   0.337710 0.000073 0.500003 -0.047215
C184  C     C_1   0.000069 0.337709 0.499996 -0.046985
C185  C     C_1   0.124967 0.499947 0.000002 -0.159580
C186  C     C_1   0.499946 0.124967 0.999998 -0.159569
C187  C     C_1   0.875033 0.500052 0.000002 -0.159587
C188  C     C_1   0.500054 0.875033 0.999998 -0.159560
C189  C     C_1   0.624967 0.999946 0.500002 -0.159602
C190  C     C_1   0.999948 0.624967 0.499998 -0.159559
C191  C     C_1   0.375033 0.000054 0.500001 -0.159595
C192  C     C_1   0.000052 0.375033 0.499998 -0.159556
C193  C     C_1   0.375198 0.499985 0.000000 -0.156389
C194  C     C_1   0.499985 0.375199 0.999999 -0.156406
C195  C     C_1   0.624801 0.500013 0.000000 -0.156379
C196  C     C_1   0.500016 0.624801 1.000000 -0.156416
C197  C     C_1   0.875199 0.999984 0.500000 -0.156500
C198  C     C_1   0.999985 0.875198 0.499999 -0.156418
C199  C     C_1   0.124801 0.000016 0.500000 -0.156500
C200  C     C_1   0.000014 0.124801 0.500000 -0.156417
C201  C     C_R   0.500001 0.419467 1.000000 0.898042
C202  C     C_R   0.580533 0.499999 0.000000 0.898042
C203  C     C_R   0.499999 0.580533 0.000000 0.898148
C204  C     C_R   0.419467 0.500001 0.000000 0.898142
C205  C     C_R   0.000001 0.919467 0.500000 0.898163
C206  C     C_R   0.080533 0.999999 0.500000 0.898228
C207  C     C_R   0.999999 0.080533 0.500000 0.898187
C208  C     C_R   0.919467 0.000001 0.500000 0.898156
N9    N     N_R   0.917025 0.580809 0.279258 0.273888
O65   O     O_R   0.883915 0.565053 0.291036 -0.291741
O66   O     O_R   0.920906 0.621094 0.277423 -0.281114
N10   N     N_R   0.578813 0.915135 0.279269 0.273733
O67   O     O_R   0.619184 0.917877 0.277348 -0.281064
O68   O     O_R   0.562190 0.882533 0.291152 -0.292602
N11   N     N_R   0.082977 0.419192 0.279257 0.273890
O69   O     O_R   0.079097 0.378907 0.277422 -0.281127
O70   O     O_R   0.116087 0.434948 0.291036 -0.291774
N12   N     N_R   0.421116 0.084800 0.279265 0.273754
O71   O     O_R   0.380747 0.082006 0.277360 -0.281150
O72   O     O_R   0.437707 0.117433 0.291129 -0.292479
N13   N     N_R   0.916933 0.580714 0.720742 0.273510
O73   O     O_R   0.920764 0.621004 0.722578 -0.283659
O74   O     O_R   0.883842 0.564918 0.708965 -0.293304
N14   N     N_R   0.580740 0.082897 0.720742 0.273485
O75   O     O_R   0.621028 0.078975 0.722576 -0.283865
O76   O     O_R   0.564958 0.116026 0.708968 -0.293415
N15   N     N_R   0.083069 0.419287 0.720742 0.273509
O77   O     O_R   0.079240 0.378997 0.722578 -0.283664
O78   O     O_R   0.116160 0.435085 0.708964 -0.293296
N16   N     N_R   0.419257 0.917104 0.720742 0.273490
O79   O     O_R   0.378969 0.921028 0.722575 -0.283856
O80   O     O_R   0.435038 0.883975 0.708968 -0.293400
N17   N     N_R   0.582908 0.080729 0.779258 0.273485
O81   O     O_R   0.616034 0.064943 0.791032 -0.293486
O82   O     O_R   0.578990 0.121018 0.777425 -0.283818
N18   N     N_R   0.919097 0.582885 0.779257 0.273515
O83   O     O_R   0.934810 0.616023 0.791025 -0.293303
O84   O     O_R   0.878817 0.578946 0.777429 -0.283682
N19   N     N_R   0.417091 0.919271 0.779258 0.273486
O85   O     O_R   0.383966 0.935058 0.791033 -0.293431
O86   O     O_R   0.421006 0.878982 0.777423 -0.283858
N20   N     N_R   0.080906 0.417118 0.779257 0.273518
O87   O     O_R   0.065195 0.383978 0.791023 -0.293263
O88   O     O_R   0.121186 0.421059 0.777429 -0.283687
N21   N     N_R   0.581035 0.917234 0.220755 0.273896
O89   O     O_R   0.614651 0.932098 0.209102 -0.291502
O90   O     O_R   0.576006 0.877068 0.222498 -0.281970
N22   N     N_R   0.919189 0.582973 0.220742 0.273891
O91   O     O_R   0.878904 0.579090 0.222578 -0.280979
O92   O     O_R   0.934943 0.616084 0.208965 -0.291840
N23   N     N_R   0.418896 0.082694 0.220751 0.273877
O93   O     O_R   0.385313 0.067794 0.209076 -0.291652
O94   O     O_R   0.423868 0.122865 0.222511 -0.281891
N24   N     N_R   0.080814 0.417029 0.220742 0.273879
O95   O     O_R   0.121100 0.420912 0.222577 -0.281114
O96   O     O_R   0.065061 0.383918 0.208964 -0.291890

loop_
_geom_bond_atom_site_label_1
_geom_bond_atom_site_label_2
_geom_bond_distance
_ccdc_geom_bond_type
C133  C153  1.393367 A    
N9    O65   1.301109 A    
O25   C13   1.276550 A    
C135  C155  1.393371 A    
C184  C192  1.196983 T    
C103  C111  1.403666 A    
C133  H61   1.083622 S    
C81   C117  1.400442 A    
N22   O92   1.301111 A    
C20   C34   1.409720 A    
O18   Zn2   2.014353 S    
C34   C50   1.417743 A    
O33   C201  1.283629 A    
N14   O75   1.300961 A    
N23   O94   1.300957 A    
C132  C144  1.398812 A    
C23   O55   1.348926 S    
O24   Zn4   2.014358 S    
C150  C164  1.398809 A    
C40   C52   1.417802 A    
C74   H2    1.082946 S    
H45   C153  1.083624 S    
H41   C157  1.083624 S    
O3    C3    1.271955 A    
C19   N1    1.363632 A    
C161  C177  1.425078 S    
C42   C54   1.417806 A    
C133  C141  1.398808 A    
C41   C53   1.417802 A    
C59   N11   1.434221 S    
O39   C201  1.283629 A    
C1    C185  1.419658 S    
C156  C168  1.398808 A    
H35   C151  1.083625 S    
C88   C120  1.400453 A    
C25   N5    1.363627 A    
C45   C69   1.416475 A    
C18   C36   1.409729 A    
O17   C9    1.276545 A    
C48   C56   1.417797 A    
C27   C41   1.409747 A    
N20   O88   1.300962 A    
C62   C65   1.401082 A    
O43   C207  1.283628 A    
N6    C115  1.432912 S    
C27   O59   1.348929 S    
C36   C60   1.416379 A    
C3    C187  1.419661 S    
C82   C98   1.391148 A    
C49   C56   1.414952 A    
C40   C64   1.416421 A    
C51   C54   1.414952 A    
C175  C199  1.197008 T    
O13   C5    1.272002 A    
C13   C109  1.463685 S    
O40   Zn10  1.990904 S    
C96   C108  1.403747 A    
C30   C48   1.409747 A    
O26   Zn6   2.014353 S    
O7    C3    1.272010 A    
C134  C156  1.393376 A    
N17   O81   1.301105 A    
C37   C51   1.417802 A    
C76   C114  1.400343 A    
C57   N9    1.434219 S    
C77   H5    1.082946 S    
N19   O85   1.301106 A    
O27   C13   1.276550 A    
O31   C15   1.276507 A    
O36   C204  1.283628 A    
C83   C117  1.400442 A    
H44   C158  1.083625 S    
O38   C202  1.283631 A    
C60   C71   1.401086 A    
C171  C195  1.197008 T    
C131  C143  1.398813 A    
N18   O84   1.300962 A    
C102  C112  1.403740 A    
N15   O77   1.300965 A    
N21   O89   1.301125 A    
C154  C166  1.398806 A    
C80   C116  1.400442 A    
C183  C191  1.196982 T    
H46   C156  1.083626 S    
O11   C7    1.271964 A    
C25   O57   1.348928 S    
C86   C102  1.391153 A    
O4    C4    1.272001 A    
O46   Zn12  1.990902 S    
O5    Zn3   1.990138 S    
C134  C144  1.398814 A    
N16   O79   1.300962 A    
O44   Zn11  1.990904 S    
O37   Zn10  1.990902 S    
C128  C138  1.398813 A    
C98   C110  1.403745 A    
C32   O64   1.348927 S    
C178  C186  1.196987 T    
C82   H10   1.082945 S    
O9    C5    1.271964 A    
C31   N7    1.363559 A    
C141  C173  1.425108 S    
N7    C114  1.432770 S    
C87   C119  1.400528 A    
C24   C38   1.409747 A    
O23   C11   1.276557 A    
C99   H27   1.083043 S    
C75   C113  1.400453 A    
C90   H18   1.083030 S    
O37   C203  1.283630 A    
C90   C106  1.403831 A    
C16   C112  1.463667 S    
N23   O93   1.301122 A    
C17   C35   1.409747 A    
C195  C202  1.419723 S    
O44   C208  1.283628 A    
C47   C55   1.417864 A    
O14   C8    1.271954 A    
N1    C120  1.432935 S    
C33   C57   1.416420 A    
O2    Zn2   1.990141 S    
C77   C115  1.400435 A    
C164  C180  1.425080 S    
O17   Zn1   2.014354 S    
H47   C155  1.083626 S    
O28   C14   1.276551 A    
O26   C14   1.276551 A    
O29   C15   1.276502 A    
C121  C149  1.393374 A    
O8    Zn4   1.989487 S    
O30   C16   1.276544 A    
C50   C55   1.414948 A    
C134  H62   1.083616 S    
C8    C192  1.419663 S    
C196  C203  1.419729 S    
C19   O51   1.348927 S    
C24   O56   1.348929 S    
C87   C103  1.391151 A    
C129  C157  1.393374 A    
C48   C72   1.416424 A    
C181  C189  1.196985 T    
N10   O67   1.300967 A    
O19   Zn3   2.014352 S    
C22   C40   1.409748 A    
C24   N4    1.363625 A    
C36   C50   1.417752 A    
C89   H17   1.083045 S    
C42   C66   1.416422 A    
C91   H19   1.083047 S    
C66   N18   1.434216 S    
C96   H24   1.083041 S    
C11   C107  1.463700 S    
O16   Zn8   1.989487 S    
C69   N21   1.434138 S    
C94   H22   1.083043 S    
C162  C178  1.425080 S    
C77   C93   1.391152 A    
C100  C110  1.403744 A    
O6    Zn2   1.989490 S    
C84   H12   1.082947 S    
C173  C197  1.197008 T    
C123  C151  1.393377 A    
C128  C146  1.393376 A    
O36   Zn9   1.990904 S    
C70   N22   1.434217 S    
C46   C70   1.416422 A    
C159  C167  1.398806 A    
O39   Zn10  1.990907 S    
C64   C67   1.401082 A    
C167  C183  1.425081 S    
C18   N2    1.363682 A    
N24   O95   1.300964 A    
O21   Zn3   2.014358 S    
C34   C58   1.416377 A    
C85   C119  1.400537 A    
N19   O86   1.300964 A    
O48   Zn12  1.990904 S    
C80   C96   1.391153 A    
O12   C8    1.272009 A    
O1    C1    1.271955 A    
C102  H30   1.083044 S    
C92   C106  1.403829 A    
C32   N8    1.363629 A    
C79   H7    1.082945 S    
C23   N3    1.363624 A    
C67   N19   1.434219 S    
C100  H28   1.083043 S    
N14   O76   1.301108 A    
C199  C206  1.419726 S    
C44   C68   1.416420 A    
C122  C152  1.393370 A    
C155  C167  1.398806 A    
C128  H56   1.083622 S    
C15   C111  1.463511 S    
C22   O54   1.348931 S    
C83   C99   1.391153 A    
C130  C160  1.393366 A    
N2    C119  1.433053 S    
C10   C106  1.463870 S    
C136  C142  1.398817 A    
C25   C43   1.409749 A    
C78   C116  1.400446 A    
C97   C109  1.403746 A    
N13   O74   1.301110 A    
H42   C160  1.083625 S    
C82   C118  1.400444 A    
N12   O72   1.301141 A    
C58   N10   1.434277 S    
C2    C186  1.419663 S    
O35   C203  1.283628 A    
C179  C187  1.196982 T    
O10   C6    1.272009 A    
O33   Zn9   1.990907 S    
C170  C194  1.197010 T    
C74   C90   1.391159 A    
C153  C165  1.398807 A    
C104  H32   1.083043 S    
O15   Zn5   1.990141 S    
C35   C59   1.416421 A    
C21   C39   1.409750 A    
C5    C189  1.419658 S    
C26   O58   1.348930 S    
H37   C145  1.083623 S    
C193  C204  1.419726 S    
O5    C1    1.272010 A    
C123  C139  1.398814 A    
C157  C165  1.398809 A    
C142  C174  1.425110 S    
C124  C140  1.398811 A    
N3    C118  1.432926 S    
C165  C181  1.425078 S    
C88   C104  1.391153 A    
C21   O53   1.348927 S    
N12   O71   1.300967 A    
H36   C150  1.083623 S    
C121  H49   1.083622 S    
C28   O60   1.348928 S    
O32   Zn8   2.014358 S    
C129  C141  1.398813 A    
N11   O69   1.300965 A    
O47   C205  1.283629 A    
C127  H55   1.083623 S    
C12   C108  1.463681 S    
C57   C70   1.401081 A    
C80   H8    1.082944 S    
C125  C145  1.393367 A    
C145  C161  1.398811 A    
C122  C138  1.398810 A    
O22   Zn2   2.014357 S    
C127  C147  1.393367 A    
N9    O66   1.300962 A    
O21   C11   1.276557 A    
O22   C12   1.276549 A    
O23   Zn1   2.014356 S    
N10   O68   1.301147 A    
H33   C149  1.083625 S    
C28   N6    1.363619 A    
C26   N6    1.363618 A    
C137  C169  1.425108 S    
C73   C113  1.400451 A    
C75   C91   1.391153 A    
N22   O91   1.300962 A    
C140  C172  1.425110 S    
C68   N20   1.434213 S    
O3    Zn3   1.989488 S    
C38   C62   1.416423 A    
C86   C120  1.400452 A    
O42   C206  1.283626 A    
O8    C2    1.271963 A    
C39   C51   1.417799 A    
O34   C202  1.283626 A    
C81   C97   1.391153 A    
C27   N5    1.363626 A    
N21   O90   1.300957 A    
C18   O50   1.348936 S    
O30   Zn6   2.014357 S    
C135  H63   1.083619 S    
C31   O63   1.348922 S    
C126  H54   1.083618 S    
C86   H14   1.082941 S    
C125  C137  1.398810 A    
C127  C139  1.398808 A    
C149  C161  1.398807 A    
C160  C166  1.398806 A    
O43   Zn11  1.990906 S    
C6    C190  1.419663 S    
C136  C154  1.393376 A    
O4    Zn4   1.990144 S    
O9    Zn5   1.989484 S    
N16   O80   1.301108 A    
C132  C158  1.393370 A    
O35   Zn9   1.990906 S    
O11   Zn7   1.989488 S    
C45   C55   1.417871 A    
C84   C118  1.400442 A    
O16   C6    1.271954 A    
C84   C100  1.391153 A    
C26   C44   1.409750 A    
C35   C49   1.417798 A    
C144  C176  1.425110 S    
H38   C148  1.083623 S    
N20   O87   1.301110 A    
C103  H31   1.083053 S    
O6    C4    1.271963 A    
C17   O49   1.348930 S    
C135  C143  1.398812 A    
C81   H9    1.082942 S    
C180  C188  1.196983 T    
O45   Zn12  1.990902 S    
C20   O52   1.348940 S    
C47   C71   1.416472 A    
C61   N13   1.434220 S    
O31   Zn5   2.014356 S    
H43   C159  1.083624 S    
C131  H59   1.083618 S    
C176  C200  1.197007 T    
C63   N15   1.434218 S    
C168  C184  1.425084 S    
C89   C105  1.403738 A    
O18   C10   1.276598 A    
C62   N14   1.434219 S    
C29   O61   1.348922 S    
C4    C188  1.419663 S    
C85   C101  1.391159 A    
C126  C148  1.393376 A    
C93   C107  1.403750 A    
N17   O82   1.300963 A    
C43   C53   1.417802 A    
C9    C105  1.463667 S    
C73   H1    1.082945 S    
O13   Zn7   1.990138 S    
H34   C152  1.083625 S    
O2    C2    1.272001 A    
O20   Zn4   2.014352 S    
C177  C185  1.196985 T    
N8    C113  1.432935 S    
C23   C37   1.409749 A    
N18   O83   1.301108 A    
C74   C114  1.400346 A    
O40   C204  1.283629 A    
O42   Zn11  1.990899 S    
C174  C198  1.197007 T    
C123  H51   1.083620 S    
C21   N3    1.363624 A    
C124  H52   1.083620 S    
O47   Zn12  1.990907 S    
C136  H64   1.083620 S    
O28   Zn8   2.014352 S    
O34   Zn9   1.990899 S    
C79   C115  1.400431 A    
C29   N7    1.363559 A    
C121  C137  1.398814 A    
H39   C147  1.083627 S    
C130  H58   1.083625 S    
C163  C179  1.425082 S    
C52   C53   1.414952 A    
C126  C140  1.398818 A    
C20   N2    1.363679 A    
O32   C16   1.276543 A    
C63   C68   1.401082 A    
N11   O70   1.301109 A    
C61   C66   1.401077 A    
C147  C163  1.398808 A    
O48   C208  1.283629 A    
C148  C164  1.398808 A    
C32   C46   1.409751 A    
N4    C117  1.432921 S    
C79   C95   1.391152 A    
C104  C112  1.403737 A    
C60   N12   1.434267 S    
C198  C205  1.419729 S    
O15   C7    1.272002 A    
C75   H3    1.082942 S    
C76   H4    1.082946 S    
C28   C42   1.409751 A    
C182  C190  1.196983 T    
C65   N17   1.434218 S    
N24   O96   1.301110 A    
N15   O78   1.301110 A    
O25   Zn5   2.014354 S    
C64   N16   1.434217 S    
C78   H6    1.082945 S    
C197  C208  1.419723 S    
O27   Zn7   2.014352 S    
C44   C54   1.417808 A    
O7    Zn1   1.990141 S    
C43   C67   1.416421 A    
C46   C56   1.417798 A    
C41   C65   1.416423 A    
O41   Zn11  1.990907 S    
C122  H50   1.083622 S    
C72   N24   1.434216 S    
C130  C142  1.398808 A    
O29   Zn7   2.014358 S    
C58   C69   1.401086 A    
C95   H23   1.083041 S    
C194  C201  1.419725 S    
C131  C159  1.393374 A    
O19   C9    1.276545 A    
C93   H21   1.083043 S    
C146  C162  1.398809 A    
C143  C175  1.425108 S    
C78   C94   1.391148 A    
C14   C110  1.463681 S    
C129  H57   1.083625 S    
C30   N8    1.363629 A    
C101  C111  1.403664 A    
C99   C109  1.403744 A    
O12   Zn8   1.990144 S    
C7    C191  1.419658 S    
C151  C163  1.398804 A    
O14   Zn6   1.989490 S    
C92   H20   1.083031 S    
C138  C170  1.425107 S    
C19   C33   1.409751 A    
O46   C206  1.283631 A    
C33   C49   1.417798 A    
C39   C63   1.416419 A    
C166  C182  1.425084 S    
C139  C171  1.425105 S    
C94   C108  1.403746 A    
N13   O73   1.300963 A    
C91   C105  1.403739 A    
N5    C116  1.432921 S    
C83   H11   1.082940 S    
C22   N4    1.363625 A    
C30   O62   1.348930 S    
C17   N1    1.363630 A    
O45   C207  1.283630 A    
C125  H53   1.083623 S    
C87   H15   1.082945 S    
C59   C72   1.401081 A    
C158  C168  1.398804 A    
C101  H29   1.083052 S    
C71   N23   1.434152 S    
C85   H13   1.082946 S    
C95   C107  1.403753 A    
C29   C47   1.409767 A    
H40   C146  1.083624 S    
C88   H16   1.082945 S    
C31   C45   1.409776 A    
O20   C10   1.276604 A    
C132  H60   1.083619 S    
O10   Zn6   1.990141 S    
C73   C89   1.391153 A    
C38   C52   1.417802 A    
O38   Zn10  1.990902 S    
C76   C92   1.391150 A    
C152  C162  1.398806 A    
C97   H25   1.083042 S    
H48   C154  1.083628 S    
O24   C12   1.276548 A    
O41   C205  1.283629 A    
C169  C193  1.197005 T    
C124  C150  1.393370 A    
O1    Zn1   1.989484 S    
C37   C61   1.416419 A    
C172  C196  1.197007 T    
C200  C207  1.419729 S    
C98   H26   1.083044 S    
