data_mof_unit_18443.cif
_audit_creation_date              2012-12-11T17:12:45-0500
_audit_creation_method            fapswitch 2.2
_symmetry_space_group_name_H-M    P1
_symmetry_Int_Tables_number       1
_space_group_crystal_system       triclinic
_cell_length_a                    17.205333
_cell_length_b                    6.890085
_cell_length_c                    14.385429
_cell_angle_alpha                 90.099054
_cell_angle_beta                  110.059815
_cell_angle_gamma                 89.86928
_cell_volume                      1601.87881336

loop_
_atom_site_label
_atom_site_type_symbol
_atom_type_description
_atom_site_fract_x
_atom_site_fract_y
_atom_site_fract_z
_atom_type_partial_charge
O1    O     O_R   0.314130 0.635770 0.168990 -0.539866
O2    O     O_R   0.685870 0.364230 0.831010 -0.539423
O3    O     O_R   0.185870 0.135770 0.331010 -0.533154
O4    O     O_R   0.814130 0.864230 0.668990 -0.539468
O5    O     O_R   0.146800 0.302460 0.139760 -0.528862
O6    O     O_R   0.853200 0.697540 0.860240 -0.538317
O7    O     O_R   0.353200 0.802460 0.360240 -0.535427
O8    O     O_R   0.646800 0.197540 0.639760 -0.538589
C1    C     C_R   0.114003 0.475877 0.112834 0.762023
C2    C     C_R   0.885995 0.524108 0.887168 0.760414
C3    C     C_R   0.385987 0.975783 0.387188 0.761241
C4    C     C_R   0.614010 0.024214 0.612816 0.759877
O9    O     O_R   0.311100 0.305780 0.157130 -0.528102
O10   O     O_R   0.688900 0.694220 0.842870 -0.528922
O11   O     O_R   0.188900 0.805780 0.342870 -0.536352
O12   O     O_R   0.811100 0.194220 0.657130 -0.529612
O13   O     O_R   0.351340 0.139640 0.348510 -0.533885
O14   O     O_R   0.648660 0.860360 0.651490 -0.531429
O15   O     O_R   0.148660 0.639640 0.151490 -0.539830
O16   O     O_R   0.851340 0.360360 0.848510 -0.529872
C5    C     C_R   0.334557 0.474121 0.138214 0.827551
C6    C     C_R   0.665878 0.525354 0.862376 0.823725
C7    C     C_R   0.166101 0.975058 0.362636 0.822621
C8    C     C_R   0.833931 0.025168 0.637343 0.824065
C9    C     C_1   0.533573 0.008958 0.533058 -0.065595
C10   C     C_1   0.466423 0.991022 0.466951 -0.064754
C11   C     C_1   0.966422 0.508813 0.966933 -0.063914
C12   C     C_1   0.033574 0.491115 0.033071 -0.062721
O17   O     O_3   0.263010 0.470920 0.312770 -0.372010
O18   O     O_3   0.736990 0.529080 0.687230 -0.370993
O19   O     O_3   0.236990 0.970920 0.187230 -0.369679
O20   O     O_3   0.763010 0.029080 0.812770 -0.368956
V1    V     V_3+5 0.247590 0.194450 0.238360 1.617108
V2    V     V_3+5 0.752410 0.805550 0.761640 1.611020
V3    V     V_3+5 0.252410 0.694450 0.261640 1.600572
V4    V     V_3+5 0.747590 0.305550 0.738360 1.610669
C13   C     C_R   0.116206 0.985050 0.427876 -0.239548
C14   C     C_R   0.884306 0.014229 0.572571 -0.236120
C15   C     C_R   0.385191 0.481786 0.073892 -0.236959
C16   C     C_R   0.616455 0.514015 0.928064 -0.234087
C17   C     C_R   0.893724 0.957171 0.409721 0.362198
C18   C     C_R   0.107980 0.977202 0.593448 0.361416
C19   C     C_R   0.609574 0.462861 0.092254 0.362490
C20   C     C_R   0.393193 0.509557 0.909309 0.366289
C21   C     C_R   0.846408 0.968096 0.472263 0.180442
C22   C     C_R   0.154817 0.965089 0.530334 0.178797
C23   C     C_R   0.655312 0.466939 0.027873 0.176813
C24   C     C_R   0.346334 0.509462 0.972204 0.179689
C25   C     C_R   0.970660 0.039038 0.612755 0.239214
C26   C     C_R   0.029815 0.006173 0.386826 0.239561
C27   C     C_R   0.531022 0.551864 0.890810 0.236551
C28   C     C_R   0.470606 0.442269 0.112937 0.237643
C29   C     C_R   0.020475 0.003882 0.553110 -0.117846
C30   C     C_R   0.980656 0.990379 0.448383 -0.117390
C31   C     C_R   0.481316 0.512611 0.950000 -0.120457
C32   C     C_R   0.521173 0.472275 0.053414 -0.115902
Br1   Br    Br    0.985441 0.100463 0.251912 -0.421992
Br2   Br    Br    0.013363 0.161555 0.741799 -0.427073
Br3   Br    Br    0.508106 0.308970 0.239383 -0.438526
Br4   Br    Br    0.489875 0.691356 0.766333 -0.427084
Br5   Br    Br    0.273595 0.929524 0.583813 -0.361917
Br6   Br    Br    0.727985 0.927352 0.420228 -0.369943
Br7   Br    Br    0.226846 0.525182 0.918744 -0.364323
Br8   Br    Br    0.773674 0.421991 0.077378 -0.365356
Br9   Br    Br    0.839677 0.849953 0.279111 -0.261640
Br10  Br    Br    0.164993 0.911368 0.730621 -0.253426
Br11  Br    Br    0.674060 0.480224 0.231751 -0.246616
Br12  Br    Br    0.333444 0.454553 0.771173 -0.256054

loop_
_geom_bond_atom_site_label_1
_geom_bond_atom_site_label_2
_ccdc_geom_bond_type
C2    C11   S    
O10   V2    S    
C16   C23   A    
O7    C3    A    
C31   C32   A    
O19   V1    S    
O2    C6    A    
C28   Br3   S    
C16   C27   A    
O17   V3    S    
O3    C7    A    
C5    C15   S    
O18   V4    S    
C4    C9    S    
O8    C4    A    
C6    C16   S    
O10   C6    A    
O11   C7    A    
C15   C28   A    
C9    C10   T    
O9    C5    A    
O12   C8    A    
C14   C25   A    
O15   V3    S    
C29   C30   A    
O12   V4    S    
O1    C5    A    
C13   C26   A    
O14   V2    S    
C20   C31   A    
O7    V3    S    
O5    C1    A    
C26   C30   A    
O13   V1    S    
C14   C21   A    
C25   C29   A    
O20   V4    S    
O19   V3    S    
O11   V3    S    
C27   C31   A    
O5    V1    S    
C18   C29   A    
C18   C22   A    
O4    C8    A    
O4    V2    S    
C17   C30   A    
C20   Br12  S    
O6    V2    S    
O6    C2    A    
O18   V2    S    
C22   Br5   S    
O2    V4    S    
C8    C14   S    
O16   V4    S    
O17   V1    S    
C19   C32   A    
C11   C12   T    
C20   C24   A    
O1    V3    S    
C19   Br11  S    
O9    V1    S    
O8    V4    S    
C4    O14   A    
C23   Br8   S    
C18   Br10  S    
C17   C21   A    
O3    V1    S    
C3    O13   A    
C24   Br7   S    
C17   Br9   S    
C27   Br4   S    
C3    C10   S    
C13   C22   A    
C7    C13   S    
C26   Br1   S    
C19   C23   A    
C1    O15   A    
C25   Br2   S    
C28   C32   A    
C1    C12   S    
C2    O16   A    
C21   Br6   S    
C15   C24   A    
O20   V2    S    
