data_mof_unit_38431.cif
_audit_creation_date              2012-12-11T16:04:54-0500
_audit_creation_method            fapswitch 2.2
_symmetry_space_group_name_H-M    P1
_symmetry_Int_Tables_number       1
_space_group_crystal_system       triclinic
_cell_length_a                    10.633907
_cell_length_b                    10.655016
_cell_length_c                    16.902162
_cell_angle_alpha                 98.835938
_cell_angle_beta                  98.240551
_cell_angle_gamma                 61.721814
_cell_volume                      1661.0364293

loop_
_atom_site_label
_atom_site_type_symbol
_atom_type_description
_atom_site_fract_x
_atom_site_fract_y
_atom_site_fract_z
_atom_type_partial_charge
C1    C     C_R   0.354248 0.777188 0.399953 0.575372
C2    C     C_3   0.711705 0.294675 0.240630 -0.119356
C3    C     C_3   0.750233 0.385196 0.309562 0.060598
C4    C     C_3   0.905591 0.315296 0.288882 -0.061116
C5    C     C_3   0.864141 0.432949 0.234143 -0.124899
C6    C     C_3   0.708403 0.504316 0.256141 -0.154051
C7    C     C_3   0.670116 0.413853 0.185182 -0.148467
C8    C     C_3   0.826144 0.341771 0.164720 0.043620
C9    C     C_3   0.428324 0.808177 0.213783 -0.126570
C10   C     C_3   0.354325 0.735292 0.247470 -0.152293
C11   C     C_3   0.335688 0.836113 0.325265 0.060275
C12   C     C_R   0.405149 0.372760 0.356913 0.529436
C13   C     C_3   0.410420 0.907323 0.292690 -0.019471
C14   C     C_3   0.262688 0.020436 0.259281 -0.137942
C15   C     C_3   0.189212 0.944974 0.292259 0.218133
C16   C     C_3   0.207228 0.844716 0.214370 0.037788
C17   C     C_3   0.281570 0.918328 0.181110 0.005607
C18   C     C_3   0.457743 0.220407 0.768604 -0.139890
C19   C     C_3   0.476789 0.348900 0.753226 -0.125306
C20   C     C_3   0.370882 0.368381 0.678510 0.017388
C21   C     C_3   0.351855 0.240173 0.693492 -0.132161
C22   C     C_3   0.224446 0.343706 0.743234 -0.140974
C23   C     C_R   0.708447 0.414393 0.390771 0.552691
C24   C     C_3   0.243737 0.472333 0.727933 0.019674
C25   C     C_3   0.349507 0.451647 0.803117 0.227689
C26   C     C_3   0.330719 0.324887 0.817519 0.062309
C27   C     C_1   0.822596 0.339720 0.708596 -0.060272
C28   C     C_1   0.850008 0.312170 0.776991 -0.055358
C29   C     C_1   0.336066 0.817327 0.708615 -0.055283
C30   C     C_1   0.310989 0.845089 0.777371 -0.019065
C31   C     C_R   0.886635 0.313624 0.088688 0.554069
C32   C     C_R   0.321269 0.302408 0.119416 0.544987
C33   C     C_R   0.255632 0.958828 0.099413 0.563897
C34   C     C_R   0.355414 0.774059 0.626484 0.547338
C35   C     C_R   0.888259 0.297876 0.860108 0.564550
C36   C     C_R   0.308273 0.291324 0.891347 0.591656
C37   C     C_R   0.277901 0.889057 0.857908 0.632798
C38   C     C_R   0.406193 0.377715 0.600992 0.564197
C39   C     C_R   0.775526 0.379005 0.629117 0.561328
C40   C     C_1   0.372321 0.359982 0.272586 -0.091576
C41   C     C_1   0.346898 0.342646 0.201632 -0.079870
C42   C     C_3   0.868478 0.223658 0.218812 -0.079912
Cr1   Cr    Cr6+3 0.608340 0.611040 0.520430 1.005019
Cr2   Cr    Cr6+3 0.287650 0.601120 0.489350 1.031135
Cr3   Cr    Cr6+3 0.604040 0.287870 0.490280 1.031300
Cr4   Cr    Cr6+3 0.054020 0.052700 0.970850 1.025473
Cr5   Cr    Cr6+3 0.059230 0.375120 0.993390 1.025345
Cr6   Cr    Cr6+3 0.374950 0.061200 0.992340 1.034531
H1    H     H_    0.653788 0.233254 0.245333 0.127859
H2    H     H_    0.225977 0.137263 0.261819 0.110320
H3    H     H_    0.578860 0.353372 0.755871 0.125347
H4    H     H_    0.545804 0.116527 0.786509 0.144048
H5    H     H_    0.352859 0.153518 0.647320 0.147844
H6    H     H_    0.121546 0.339823 0.741367 0.121911
H7    H     H_    0.933179 0.109012 0.199928 0.148377
H8    H     H_    0.000201 0.283246 0.333305 0.176491
H9    H     H_    0.926968 0.490371 0.230738 0.129562
H10   H     H_    0.652702 0.617200 0.280510 0.123143
H11   H     H_    0.575246 0.453870 0.140970 0.136127
H12   H     H_    0.392264 0.618294 0.244914 0.098262
H13   H     H_    0.522754 0.754832 0.177680 0.141649
O1    O     O_R   0.751220 0.499230 0.435170 -0.510763
O2    O     O_R   0.297880 0.469080 0.560050 -0.499239
O3    O     O_R   0.489720 0.254590 0.564810 -0.509552
O4    O     O_R   0.725220 0.304230 0.585080 -0.498174
O5    O     O_3   0.500010 0.500010 0.500020 -0.325309
O6    O     O_R   0.171830 0.913880 0.057510 -0.508966
O7    O     O_R   0.940690 0.186050 0.054730 -0.527900
O8    O     O_R   0.920470 0.405720 0.075010 -0.516642
O9    O     O_R   0.196690 0.370460 0.084120 -0.498237
O10   O     O_R   0.412990 0.180750 0.091610 -0.522907
O11   O     O_R   0.366620 0.943130 0.065760 -0.483284
O12   O     O_R   0.477220 0.727600 0.436870 -0.545613
O13   O     O_R   0.160510 0.906330 0.879210 -0.483162
O14   O     O_R   0.930190 0.179050 0.889450 -0.501672
O15   O     O_R   0.909140 0.398170 0.896710 -0.504666
O16   O     O_R   0.186190 0.363460 0.918830 -0.491642
O17   O     O_R   0.401670 0.173200 0.913310 -0.526723
O18   O     O_R   0.356120 0.936130 0.900470 -0.488545
O19   O     O_3   0.162740 0.163010 0.985530 -0.293394
O20   O     O_R   0.258650 0.745120 0.411470 -0.466852
O21   O     O_R   0.297070 0.467240 0.395960 -0.486445
O22   O     O_R   0.488830 0.252610 0.387790 -0.526432
O23   O     O_R   0.724400 0.302390 0.420980 -0.460289
O24   O     O_R   0.752100 0.501210 0.612190 -0.503092
O25   O     O_R   0.478040 0.729440 0.600970 -0.493192
O26   O     O_R   0.259530 0.747110 0.588490 -0.519649
Cl1   Cl    Cl    0.043181 0.019215 0.354864 -0.653794
C43   C     C_3   0.099681 0.794598 0.169651 -0.240699
C44   C     C_3   0.047947 0.729345 0.223940 -0.415901
H14   H     H_    0.139767 0.646726 0.257446 0.178724
H15   H     H_    0.976031 0.813254 0.267093 0.201737
H16   H     H_    0.986545 0.678277 0.186663 0.131079
H17   H     H_    0.005516 0.884771 0.142608 0.152615
H18   H     H_    0.153165 0.711920 0.120142 0.181747
C45   C     C_3   0.118309 0.613803 0.704359 -0.244811
C46   C     C_3   0.005052 0.677723 0.765067 -0.408293
H19   H     H_    0.958290 0.604853 0.767511 0.162917
H20   H     H_    0.052308 0.696728 0.825783 0.211934
H21   H     H_    0.917744 0.781657 0.746765 0.139835
H22   H     H_    0.158623 0.690926 0.700727 0.179779
H23   H     H_    0.068005 0.595264 0.644481 0.170412
Cl2   Cl    Cl    0.358344 0.574172 0.884970 -0.627972
C47   C     C_3   0.531173 0.932942 0.339810 -0.259165
C48   C     C_3   0.611900 0.965982 0.285069 -0.406313
H24   H     H_    0.671514 0.870071 0.243496 0.132343
H25   H     H_    0.536378 0.055177 0.249251 0.181775
H26   H     H_    0.690432 0.996305 0.321818 0.177872
H27   H     H_    0.485101 0.021806 0.387554 0.197245
H28   H     H_    0.608433 0.835735 0.369324 0.153966

loop_
_geom_bond_atom_site_label_1
_geom_bond_atom_site_label_2
_ccdc_geom_bond_type
Cr1   O12   S    
C47   H28   S    
C37   O13   A    
C43   H18   S    
C45   H23   S    
C18   C21   S    
C6    H10   S    
Cr2   O5    S    
C2    C7    S    
C1    C11   S    
C3    C6    S    
C46   H19   S    
C18   H4    S    
C7    C8    S    
C22   H6    S    
C14   H2    S    
C48   H25   S    
C35   O14   A    
C9    H13   S    
Cr6   O18   S    
C8    C42   S    
Cr5   O15   S    
Cr2   O21   S    
C36   O16   A    
C24   C45   S    
C5    C6    S    
C1    O20   A    
C15   C16   S    
C20   C38   S    
C18   C19   S    
C34   O25   A    
Cr6   O17   S    
C43   H17   S    
C9    C13   S    
Cr4   O14   S    
C33   O11   A    
C3    C23   S    
C23   O1    A    
Cr5   O8    S    
C20   C24   S    
C28   C35   S    
C27   C39   S    
C16   C17   S    
C18   C26   S    
C32   C41   S    
Cr2   O26   S    
C9    C10   S    
C16   C43   S    
C13   C14   S    
C4    H8    S    
C39   O4    A    
C14   C17   S    
Cr3   O22   S    
C17   C33   S    
Cr5   O19   S    
Cr6   O11   S    
C7    H11   S    
C47   C48   S    
C46   H20   S    
C32   O10   A    
C38   O3    A    
Cr2   O2    S    
C31   O7    A    
C48   H26   S    
C35   O15   A    
C23   O23   A    
Cr1   O24   S    
C45   H22   S    
C24   C25   S    
Cr2   O20   S    
C25   Cl2   S    
C32   O9    A    
C25   C26   S    
C29   C34   S    
C12   O22   A    
C12   C40   S    
C10   H12   S    
Cr5   O9    S    
Cr4   O7    S    
C29   C30   T    
C2    H1    S    
C42   H7    S    
C37   O18   A    
C44   H15   S    
C45   C46   S    
C12   O21   A    
C13   C47   S    
C9    C17   S    
C40   C41   T    
C11   C15   S    
Cr3   O4    S    
C22   C24   S    
Cr3   O23   S    
Cr5   O16   S    
Cr6   O10   S    
C3    C4    S    
Cr4   O13   S    
C46   H21   S    
C33   O6    A    
C44   H16   S    
C38   O2    A    
C26   C36   S    
C8    C31   S    
C4    C5    S    
C5    C8    S    
C6    C7    S    
C48   H24   S    
Cr3   O3    S    
C5    H9    S    
C1    O12   A    
Cr6   O19   S    
C19   C20   S    
C2    C3    S    
Cr4   O6    S    
C36   O17   A    
C21   H5    S    
C11   C13   S    
C44   H14   S    
C47   H27   S    
C4    C42   S    
C2    C42   S    
Cr1   O5    S    
C34   O26   A    
C19   C25   S    
Cr1   O25   S    
C10   C11   S    
C19   H3    S    
C31   O8    A    
C20   C21   S    
C30   C37   S    
C22   C26   S    
Cr3   O5    S    
C39   O24   A    
C14   C15   S    
C10   C16   S    
Cr4   O19   S    
C43   C44   S    
C21   C22   S    
Cr1   O1    S    
C15   Cl1   S    
C27   C28   T    
