data_mof_unit_29368.cif
_audit_creation_date              2012-12-10T20:55:44-0500
_audit_creation_method            fapswitch 2.2
_symmetry_space_group_name_H-M    P1
_symmetry_Int_Tables_number       1
_space_group_crystal_system       triclinic
_cell_length_a                    15.813787
_cell_length_b                    15.058131
_cell_length_c                    10.715731
_cell_angle_alpha                 90.350176
_cell_angle_beta                  90.04685
_cell_angle_gamma                 90.112886
_cell_volume                      2551.64148952

loop_
_atom_site_label
_atom_site_type_symbol
_atom_type_description
_atom_site_fract_x
_atom_site_fract_y
_atom_site_fract_z
_atom_type_partial_charge
C1    C     C_1   0.250500 0.499589 0.490722 -0.203413
C2    C     C_1   0.749298 0.499988 0.485843 -0.187224
C3    C     C_R   0.520730 0.499182 0.876660 -0.218651
C4    C     C_R   0.472244 0.497375 0.125574 -0.221040
C5    C     C_R   0.500022 0.905059 0.498534 0.086182
C6    C     C_R   0.500089 0.094977 0.498416 0.117873
C7    C     C_R   0.424954 0.952883 0.477964 -0.191267
C8    C     C_R   0.575163 0.047150 0.518830 -0.174449
C9    C     C_R   0.575155 0.953354 0.518493 -0.192829
C10   C     C_R   0.425001 0.046700 0.477687 -0.176647
C11   C     C_R   0.955851 0.577011 0.432887 0.153602
C12   C     C_R   0.043432 0.417264 0.482892 0.131421
C13   C     C_R   0.044251 0.577531 0.440495 0.100423
C14   C     C_R   0.954929 0.416584 0.474248 0.114446
C15   C     C_R   0.338777 0.499914 0.500067 0.902148
C16   C     C_R   0.661240 0.500068 0.499348 0.898808
C17   C     C_R   0.486643 0.499375 0.260396 0.884619
C18   C     C_R   0.511003 0.500014 0.740766 0.881350
C19   C     C_R   0.912370 0.497095 0.454710 -0.009661
C20   C     C_R   0.086788 0.498044 0.468217 -0.013281
C21   C     C_1   0.499988 0.807203 0.499351 0.008498
C22   C     C_1   0.500067 0.192821 0.499176 -0.019900
C23   C     C_1   0.823620 0.499089 0.471185 0.046837
C24   C     C_1   0.175848 0.498986 0.480423 0.014087
C25   C     C_R   0.444223 0.658163 0.113089 -0.199353
C26   C     C_R   0.539730 0.334937 0.885424 -0.203735
C27   C     C_R   0.537723 0.662886 0.894891 -0.201495
C28   C     C_R   0.458605 0.333288 0.114230 -0.202806
C29   C     C_R   0.463883 0.740668 0.061096 0.128226
C30   C     C_R   0.518095 0.253611 0.938888 0.118400
C31   C     C_R   0.515023 0.743186 0.952802 0.128688
C32   C     C_R   0.481138 0.252803 0.058257 0.121553
C33   C     C_R   0.511441 0.580146 0.942821 0.052129
C34   C     C_R   0.480898 0.415803 0.060594 0.058225
C35   C     C_R   0.475081 0.578422 0.060968 0.054260
C36   C     C_R   0.514701 0.416734 0.940044 0.057926
H1    H     H_    0.366216 0.081582 0.461565 0.131760
H2    H     H_    0.634007 0.918470 0.533958 0.132667
H3    H     H_    0.633971 0.082373 0.534964 0.130298
H4    H     H_    0.366124 0.917643 0.462126 0.131797
H5    H     H_    0.404167 0.656344 0.195036 0.154838
H6    H     H_    0.576942 0.332971 0.800936 0.165106
H7    H     H_    0.578538 0.665740 0.813957 0.163865
H8    H     H_    0.422360 0.330346 0.199603 0.164774
N1    N     N_1   0.500000 0.270550 0.500000 -0.097709
N2    N     N_1   0.500000 0.729450 0.500000 -0.094492
O1    O     O_R   0.378020 0.573650 0.500040 -0.617080
O2    O     O_R   0.621980 0.426350 0.499960 -0.609377
O3    O     O_R   0.621980 0.573650 0.499960 -0.607360
O4    O     O_R   0.378020 0.426350 0.500040 -0.607451
O5    O     O_R   0.499990 0.573670 0.316780 -0.610888
O6    O     O_R   0.500010 0.426330 0.683220 -0.616362
O7    O     O_R   0.500010 0.573670 0.683220 -0.614626
O8    O     O_R   0.499990 0.426330 0.316780 -0.616857
Zn1   Zn    Zn3+2 0.500000 0.598370 0.500000 0.959961
Zn2   Zn    Zn3+2 0.500000 0.401630 0.500000 0.956088
N3    N     N_2   0.089561 0.658677 0.424729 -0.308951
H9    H     H_    0.134893 0.670226 0.492190 0.231403
C37   C     C_3   0.121489 0.672717 0.299920 -0.780101
H10   H     H_    0.150207 0.739911 0.294032 0.233901
H11   H     H_    0.069496 0.668278 0.230608 0.247109
H12   H     H_    0.170609 0.622633 0.276647 0.237147
N4    N     N_2   0.907725 0.336839 0.492812 -0.297788
H13   H     H_    0.933750 0.292421 0.554602 0.229757
C38   C     C_3   0.877935 0.294986 0.379097 -0.793701
H14   H     H_    0.932351 0.272094 0.321873 0.227514
H15   H     H_    0.839086 0.341948 0.323870 0.254537
H16   H     H_    0.837957 0.236741 0.402579 0.236325
N5    N     N_2   0.910178 0.657531 0.413163 -0.290671
H17   H     H_    0.941025 0.714745 0.440822 0.248305
C39   C     C_3   0.871318 0.665643 0.291374 -0.768340
H18   H     H_    0.920459 0.668494 0.217652 0.230475
H19   H     H_    0.833483 0.727627 0.288103 0.233288
H20   H     H_    0.828310 0.608909 0.271877 0.246944
N6    N     N_2   0.089516 0.337298 0.503737 -0.294091
H21   H     H_    0.064914 0.281770 0.460111 0.227742
C40   C     C_3   0.112219 0.321672 0.632627 -0.792518
H22   H     H_    0.054572 0.312320 0.690259 0.224675
H23   H     H_    0.149469 0.378187 0.670888 0.254998
H24   H     H_    0.151578 0.260863 0.638623 0.237121
C41   C     C_3   0.472789 0.167646 0.131528 -0.435431
C42   C     C_3   0.560278 0.137139 0.178051 -0.308565
C43   C     C_3   0.564364 0.036629 0.191943 -0.905713
H25   H     H_    0.511057 0.012395 0.249557 0.286679
H26   H     H_    0.561214 0.004725 0.098488 0.253157
H27   H     H_    0.624861 0.017628 0.237017 0.257624
H28   H     H_    0.611508 0.157311 0.113103 0.215068
H29   H     H_    0.574374 0.169486 0.268983 0.226673
H30   H     H_    0.430642 0.176777 0.213634 0.184227
H31   H     H_    0.442439 0.115973 0.072685 0.216347
C44   C     C_3   0.546884 0.828460 0.895433 -0.450912
C45   C     C_3   0.639700 0.844583 0.930297 -0.341023
C46   C     C_3   0.674517 0.927121 0.866301 -0.892687
H32   H     H_    0.672134 0.918735 0.763379 0.261606
H33   H     H_    0.637304 0.986476 0.893343 0.258876
H34   H     H_    0.741296 0.937791 0.894806 0.250072
H35   H     H_    0.645222 0.853261 0.033118 0.224360
H36   H     H_    0.678694 0.786532 0.901920 0.223267
H37   H     H_    0.540184 0.824235 0.792194 0.211783
H38   H     H_    0.509007 0.886161 0.925391 0.205302
C47   C     C_3   0.525798 0.169392 0.862008 -0.430891
C48   C     C_3   0.437911 0.140009 0.814450 -0.305168
C49   C     C_3   0.431395 0.039418 0.801625 -0.901406
H39   H     H_    0.486423 0.012212 0.750051 0.288722
H40   H     H_    0.429014 0.009662 0.895843 0.249672
H41   H     H_    0.372405 0.021346 0.751228 0.256088
H42   H     H_    0.386658 0.162209 0.878324 0.214973
H43   H     H_    0.424995 0.171452 0.723209 0.225658
H44   H     H_    0.567944 0.179457 0.780252 0.183530
H45   H     H_    0.555794 0.116754 0.918408 0.214177
C50   C     C_3   0.432003 0.822976 0.127225 -0.440526
C51   C     C_3   0.349623 0.855585 0.067918 -0.345603
C52   C     C_3   0.315444 0.936834 0.136849 -0.899557
H46   H     H_    0.299659 0.919629 0.234755 0.259286
H47   H     H_    0.362959 0.991060 0.136939 0.262759
H48   H     H_    0.257264 0.960656 0.089758 0.251166
H49   H     H_    0.360321 0.872707 0.968520 0.220553
H50   H     H_    0.301314 0.801888 0.071426 0.225232
H51   H     H_    0.420021 0.808333 0.227348 0.206769
H52   H     H_    0.480914 0.875484 0.127272 0.205879

loop_
_geom_bond_atom_site_label_1
_geom_bond_atom_site_label_2
_ccdc_geom_bond_type
C7    C10   A    
C51   H50   S    
N4    C38   S    
C46   H32   S    
C50   C51   S    
C15   O1    A    
C16   O2    A    
C41   C42   S    
C18   O6    A    
C40   H22   S    
C27   C33   A    
C32   C41   S    
C11   C19   A    
C47   C48   S    
C10   H1    S    
O1    Zn1   S    
C21   N2    T    
C51   H49   S    
N3    C37   S    
C13   N3    S    
C3    C33   A    
C47   H44   S    
C42   H28   S    
C6    C22   S    
C3    C18   S    
C50   H51   S    
C15   O4    A    
N5    C39   S    
C9    H2    S    
C18   O7    A    
C20   C24   S    
N1    Zn2   S    
C8    C9    A    
C38   H15   S    
N2    Zn1   S    
C7    H4    S    
C48   H43   S    
C1    C15   S    
C8    H3    S    
C44   H38   S    
C2    C16   S    
C34   C36   A    
C52   H48   S    
C41   H30   S    
C40   H23   S    
C4    C35   A    
C28   C34   A    
C37   H10   S    
C46   H33   S    
C17   O5    A    
C48   C49   S    
C51   C52   S    
C45   H35   S    
O8    Zn2   S    
O7    Zn1   S    
C25   C29   A    
C4    C34   A    
C37   H11   S    
C45   H36   S    
C28   C32   A    
C16   O3    A    
C25   H5    S    
C44   C45   S    
C39   H19   S    
C6    C8    A    
C47   H45   S    
O3    Zn1   S    
C27   C31   A    
C28   H8    S    
O4    Zn2   S    
C50   H52   S    
C19   C23   S    
N6    H21   S    
C5    C9    A    
C43   H25   S    
C38   H16   S    
C12   C20   A    
C43   H27   S    
C48   H42   S    
C49   H40   S    
N6    C40   S    
C25   C35   A    
C4    C17   S    
C26   C36   A    
C43   H26   S    
C12   C14   A    
C26   C30   A    
C46   H34   S    
C31   C44   S    
C41   H31   S    
C49   H39   S    
C26   H6    S    
C5    C7    A    
C52   H46   S    
C40   H24   S    
O2    Zn2   S    
C37   H12   S    
C13   C20   A    
C14   C19   A    
C29   C50   S    
C6    C10   A    
C39   H20   S    
C11   N5    S    
C39   H18   S    
C29   C31   A    
C30   C32   A    
C11   C13   A    
N3    H9    S    
C3    C36   A    
C42   H29   S    
C14   N4    S    
C30   C47   S    
C45   C46   S    
C33   C35   A    
C49   H41   S    
O5    Zn1   S    
C38   H14   S    
N5    H17   S    
N4    H13   S    
C27   H7    S    
C22   N1    T    
C5    C21   S    
C1    C24   T    
C42   C43   S    
C12   N6    S    
C2    C23   T    
C44   H37   S    
C17   O8    A    
O6    Zn2   S    
C52   H47   S    
