data_mof_unit_16574.cif
_audit_creation_date              2012-10-26T19:15:05-0400
_audit_creation_method            fapswitch 2.2
_symmetry_space_group_name_H-M    P1
_symmetry_Int_Tables_number       1
_space_group_crystal_system       triclinic
_cell_length_a                    10.895249
_cell_length_b                    10.867479
_cell_length_c                    9.539543
_cell_angle_alpha                 90.655362
_cell_angle_beta                  90.084676
_cell_angle_gamma                 93.780925
_cell_volume                      1126.98402547

loop_
_atom_site_label
_atom_site_type_symbol
_atom_type_description
_atom_site_fract_x
_atom_site_fract_y
_atom_site_fract_z
_atom_type_partial_charge
C1    C     C_R   0.491461 0.262566 0.499558 0.588755
C2    C     C_R   0.524213 0.943092 0.618326 -0.053664
C3    C     C_3   0.645424 0.962320 0.695494 0.190906
C4    C     C_R   0.262450 0.496733 0.499893 0.543034
C5    C     C_3   0.621160 0.097653 0.714647 0.182796
C6    C     C_R   0.586036 0.570785 0.074802 0.145968
C7    C     C_R   0.423064 0.420352 0.074106 -0.020455
C8    C     C_R   0.420826 0.420426 0.922850 0.360950
C9    C     C_R   0.586767 0.569864 0.927687 0.170336
C10   C     C_3   0.607941 0.706069 0.923702 -0.283426
C11   C     C_3   0.606365 0.707492 0.082360 -0.291759
C12   C     C_R   0.938456 0.499506 0.625142 0.048812
C13   C     C_R   0.499125 0.738095 0.500457 0.548771
C14   C     C_R   0.737623 0.497089 0.500188 0.573614
C15   C     C_R   0.064760 0.498810 0.625179 -0.061260
C16   C     C_R   0.129289 0.485909 0.500418 -0.007697
C17   C     C_R   0.061843 0.457500 0.376690 -0.173438
C18   C     C_R   0.933058 0.456621 0.377166 -0.181973
C19   C     C_R   0.870119 0.485092 0.501010 -0.011118
C20   C     C_3   0.755001 0.969654 0.474912 -0.081110
C21   C     C_3   0.802387 0.213298 0.755528 -0.084066
C22   C     C_3   0.239523 0.290267 0.914964 -0.157325
C23   C     C_3   0.940668 0.590867 0.745761 0.534131
C24   C     C_3   0.929546 0.754227 0.577748 -0.110574
C25   C     C_3   0.908707 0.604842 0.986937 -0.127420
C26   C     C_3   0.163153 0.703778 0.740567 -0.275715
C27   C     C_3   0.260597 0.716095 0.855335 -0.442630
C28   C     C_3   0.081973 0.581051 0.752750 -0.077041
C29   C     C_R   0.511553 0.068906 0.622326 0.002371
C30   C     C_R   0.476626 0.129340 0.502100 0.019526
C31   C     C_R   0.432480 0.058943 0.385815 -0.184373
C32   C     C_R   0.436503 0.930103 0.386388 -0.179180
C33   C     C_R   0.488504 0.871305 0.501101 -0.000561
Cu1   Cu    Cu3+1 0.499990 0.499980 0.640670 1.040583
Cu2   Cu    Cu3+1 0.500010 0.500020 0.359330 0.919060
H1    H     H_    0.108313 0.440430 0.278751 0.126174
H2    H     H_    0.399425 0.103395 0.293331 0.120246
H3    H     H_    0.403447 0.877397 0.295375 0.123781
H4    H     H_    0.644931 0.917860 0.798524 0.077157
H5    H     H_    0.703209 0.050075 0.447360 0.173786
H6    H     H_    0.720191 0.887965 0.412519 0.097318
H7    H     H_    0.851179 0.992408 0.441548 0.106462
H8    H     H_    0.835698 0.131486 0.809622 0.116699
H9    H     H_    0.767180 0.279280 0.833283 0.148535
H10   H     H_    0.882756 0.259296 0.702072 0.145153
H11   H     H_    0.172421 0.249161 0.837287 0.142144
H12   H     H_    0.591450 0.123867 0.822312 0.070739
H13   H     H_    0.192230 0.361631 0.974996 0.084684
H14   H     H_    0.266063 0.214773 0.984099 0.098667
H15   H     H_    0.848753 0.740815 0.507425 0.149471
H16   H     H_    0.957566 0.853741 0.587246 0.165176
H17   H     H_    0.008153 0.712705 0.526494 0.071136
H18   H     H_    0.843933 0.573186 0.070354 0.128092
H19   H     H_    0.901563 0.705775 0.974997 0.146115
H20   H     H_    0.001975 0.586191 0.024608 0.089126
H21   H     H_    0.216580 0.715619 0.960320 0.125918
H22   H     H_    0.321176 0.639024 0.848090 0.197162
H23   H     H_    0.362509 0.358018 0.133489 0.107215
H24   H     H_    0.316895 0.804277 0.843189 0.128832
H25   H     H_    0.208641 0.711786 0.636776 0.152207
H26   H     H_    0.108445 0.785205 0.755245 0.174087
H27   H     H_    0.699324 0.733839 0.879007 0.195448
H28   H     H_    0.529051 0.751019 0.877747 0.124179
H29   H     H_    0.696548 0.737885 0.130134 0.107875
H30   H     H_    0.526222 0.753190 0.125738 0.148522
H31   H     H_    0.883661 0.438709 0.279735 0.135384
H32   H     H_    0.110692 0.523305 0.840750 0.135559
N1    N     N_R   0.500790 0.500930 0.147930 -0.263099
N2    N     N_R   0.500790 0.500890 0.852020 -0.238241
O1    O     O_R   0.500000 0.319640 0.618810 -0.430868
O2    O     O_3   0.711366 0.180227 0.654298 -0.546145
O3    O     O_3   0.342932 0.341082 0.841916 -0.530748
O4    O     O_3   0.897826 0.709167 0.713212 -0.551841
O5    O     O_3   0.877914 0.537550 0.862526 -0.568226
O6    O     O_R   0.500010 0.319680 0.381230 -0.523204
O7    O     O_R   0.319650 0.499970 0.618810 -0.468169
O8    O     O_R   0.319660 0.500010 0.381230 -0.525314
O9    O     O_R   0.499990 0.680320 0.618770 -0.511146
O10   O     O_R   0.500000 0.680360 0.381190 -0.517042
O11   O     O_R   0.680340 0.499990 0.618770 -0.444677
O12   O     O_R   0.680350 0.500030 0.381190 -0.516702
O13   O     O_3   0.755319 0.941309 0.620027 -0.542455

loop_
_geom_bond_atom_site_label_1
_geom_bond_atom_site_label_2
_ccdc_geom_bond_type
C24   H17   S    
C22   H13   S    
C13   O10   A    
C20   O13   S    
C10   H28   S    
C6    C9    A    
C20   H6    S    
Cu2   O12   S    
C7    C8    A    
C5    H12   S    
C12   C23   S    
Cu2   O6    S    
C8    N2    A    
C21   O2    S    
C2    C29   A    
C26   H26   S    
C9    N2    A    
C25   O5    S    
C30   C31   A    
C20   H5    S    
C24   O4    S    
C15   C16   A    
Cu1   Cu2   S    
Cu1   O11   S    
C7    N1    A    
C21   H8    S    
C16   C17   A    
C17   H1    S    
C14   O11   A    
C9    C10   S    
Cu1   O1    S    
C7    H23   S    
C21   H10   S    
C24   H16   S    
C6    N1    A    
C3    H4    S    
C10   H27   S    
C23   O4    S    
C22   O3    S    
C5    C29   S    
C24   H15   S    
C8    O3    S    
C1    O6    A    
C28   H32   S    
C25   H19   S    
C11   H29   S    
C27   H22   S    
C6    C11   S    
C27   H21   S    
C18   C19   A    
Cu2   O8    S    
C31   H2    S    
C4    C16   S    
C13   C33   S    
C29   C30   A    
C21   H9    S    
C31   C32   A    
C12   C15   A    
C3    O13   S    
C17   C18   A    
C26   C27   S    
C23   C28   S    
Cu1   N2    S    
C22   H14   S    
C2    C33   A    
C22   H11   S    
C32   H3    S    
C23   O5    S    
C13   O9    A    
C14   C19   S    
C25   H20   S    
C25   H18   S    
C3    C5    S    
C20   H7    S    
C18   H31   S    
C26   C28   S    
C1    O1    A    
C32   C33   A    
C2    C3    S    
C4    O8    A    
C5    O2    S    
C27   H24   S    
Cu1   O9    S    
C15   C28   S    
Cu2   N1    S    
C12   C19   A    
Cu2   O10   S    
C1    C30   S    
C4    O7    A    
C10   C11   S    
C14   O12   A    
C26   H25   S    
C11   H30   S    
Cu1   O7    S    
