data_mof_unit_41693.cif
_audit_creation_date              2012-12-10T18:05:50-0500
_audit_creation_method            fapswitch 2.2
_symmetry_space_group_name_H-M    P1
_symmetry_Int_Tables_number       1
_space_group_crystal_system       triclinic
_cell_length_a                    12.585039
_cell_length_b                    13.122454
_cell_length_c                    14.99812
_cell_angle_alpha                 90.506046
_cell_angle_beta                  102.624016
_cell_angle_gamma                 82.351959
_cell_volume                      2394.98388453

loop_
_atom_site_label
_atom_site_type_symbol
_atom_type_description
_atom_site_fract_x
_atom_site_fract_y
_atom_site_fract_z
_atom_type_partial_charge
C1    C     C_R   0.438790 0.691220 0.485339 0.856271
C2    C     C_R   0.599832 0.501476 0.833348 -0.255943
C3    C     C_R   0.500733 0.501843 0.769244 -0.075902
C4    C     C_R   0.500411 0.500691 0.673115 0.894879
C5    C     C_R   0.401377 0.502282 0.796837 -0.254267
C6    C     C_R   0.707051 0.064100 0.438861 0.158712
C7    C     C_R   0.596885 0.199952 0.501087 -0.089265
C8    C     C_R   0.298090 0.839171 0.492402 -0.183881
C9    C     C_R   0.268478 0.944400 0.497373 -0.124485
C10   C     C_R   0.342859 0.011333 0.489057 -0.193413
C11   C     C_R   0.446998 0.973578 0.471081 0.099240
C12   C     C_R   0.399999 0.498663 0.074331 0.117557
C13   C     C_R   0.468479 0.869054 0.451067 0.086140
C14   C     C_R   0.530625 0.036006 0.472613 0.051521
C15   C     C_R   0.625787 0.999249 0.438962 0.114455
C16   C     C_R   0.561123 0.308651 0.509306 0.882506
C17   C     C_R   0.636134 0.899576 0.405495 -0.207503
C18   C     C_R   0.558799 0.835331 0.411595 -0.204421
C19   C     C_R   0.522887 0.133446 0.509453 -0.255375
C20   C     C_R   0.690765 0.165004 0.468336 -0.223569
C21   C     C_R   0.399510 0.800830 0.472277 -0.117998
C22   C     C_R   0.087941 0.345421 0.374381 -0.297907
C23   C     C_R   0.699016 0.497772 0.083249 -0.209588
C24   C     C_R   0.799659 0.630687 0.607598 0.019579
C25   C     C_R   0.904269 0.659642 0.629265 -0.238675
C26   C     C_R   0.985755 0.610266 0.588451 -0.192119
C27   C     C_R   0.962662 0.531028 0.525495 0.017793
C28   C     C_R   0.499634 0.499247 0.326905 0.875548
C29   C     C_R   0.854655 0.504280 0.505979 0.239172
C30   C     C_R   0.041808 0.477579 0.481210 -0.012376
C31   C     C_R   0.011352 0.398953 0.418660 0.193056
C32   C     C_R   0.904906 0.374181 0.401055 -0.286407
C33   C     C_R   0.827986 0.426041 0.444271 -0.225284
C34   C     C_R   0.699222 0.499160 0.990638 -0.213000
C35   C     C_R   0.150756 0.498439 0.496379 -0.048894
C36   C     C_R   0.194160 0.369820 0.392470 0.003209
C37   C     C_R   0.400474 0.497905 0.166743 -0.253046
C38   C     C_R   0.499496 0.497753 0.230845 -0.070606
C39   C     C_R   0.598925 0.497111 0.203299 -0.257002
C40   C     C_R   0.599959 0.497752 0.111302 0.117782
C41   C     C_R   0.500099 0.498817 0.046448 0.062118
C42   C     C_R   0.600393 0.500438 0.925794 0.118144
C43   C     C_R   0.500315 0.500205 0.953691 0.062242
C44   C     C_R   0.400433 0.501340 0.888846 0.117312
C45   C     C_R   0.301402 0.501207 0.916907 -0.214974
C46   C     C_R   0.301194 0.499835 0.009506 -0.212511
H1    H     H_    0.323717 0.498622 0.188574 0.163771
H2    H     H_    0.065941 0.285244 0.326621 0.157237
H3    H     H_    0.675688 0.496132 0.253287 0.167895
H4    H     H_    0.181769 0.556083 0.542727 0.122050
H5    H     H_    0.735814 0.669011 0.638789 0.142965
H6    H     H_    0.065386 0.635798 0.607454 0.134768
H7    H     H_    0.922128 0.720323 0.677380 0.155239
H8    H     H_    0.748035 0.403030 0.428028 0.212010
H9    H     H_    0.776018 0.496878 0.132847 0.151899
H10   H     H_    0.776377 0.499216 0.969724 0.147912
H11   H     H_    0.676552 0.500875 0.811489 0.163064
H12   H     H_    0.704631 0.869445 0.375992 0.188750
H13   H     H_    0.324563 0.503439 0.746839 0.160062
H14   H     H_    0.224395 0.502086 0.867326 0.148492
H15   H     H_    0.224036 0.499793 0.030420 0.148030
H16   H     H_    0.748874 0.216877 0.462026 0.171696
H17   H     H_    0.457087 0.161195 0.542741 0.157724
H18   H     H_    0.243055 0.787762 0.506811 0.158770
H19   H     H_    0.315715 0.092215 0.494611 0.139218
H20   H     H_    0.189510 0.974002 0.511602 0.166263
H21   H     H_    0.569841 0.759227 0.383867 0.176342
H22   H     H_    0.254873 0.329002 0.359312 0.139373
H23   H     H_    0.880861 0.314169 0.353679 0.173709
I1    I     I_    0.853421 0.019056 0.391491 -0.449918
N1    N     N_R   0.222190 0.444670 0.452360 -0.103075
N2    N     N_R   0.776970 0.554790 0.547140 -0.132782
O1    O     O_R   0.366740 0.627160 0.477250 -0.614949
O2    O     O_R   0.544830 0.662520 0.507680 -0.618267
O3    O     O_R   0.410940 0.482340 0.616930 -0.625201
O4    O     O_R   0.589030 0.517700 0.647360 -0.623557
O5    O     O_R   0.455170 0.337480 0.492320 -0.615093
O6    O     O_R   0.633260 0.372840 0.522750 -0.634936
O7    O     O_R   0.410970 0.482300 0.352640 -0.619982
O8    O     O_R   0.589060 0.517660 0.383070 -0.649656
Zn1   Zn    Zn3+2 0.381090 0.476390 0.479680 0.942004
Zn2   Zn    Zn3+2 0.618910 0.523610 0.520320 0.929349

loop_
_geom_bond_atom_site_label_1
_geom_bond_atom_site_label_2
_ccdc_geom_bond_type
C22   H2    S    
C45   H14   S    
C34   H10   S    
C27   C29   A    
C34   C42   A    
C2    H11   S    
C45   C46   A    
C1    C21   S    
C26   C27   A    
C37   C38   A    
C13   C18   A    
C1    O2    A    
C25   H7    S    
C30   C31   A    
C11   C14   A    
C23   C40   A    
C29   C33   A    
C15   C17   A    
C16   O5    A    
C12   C37   A    
C28   O7    A    
C9    H20   S    
C4    O3    A    
C6    C15   A    
C19   H17   S    
C8    C9    A    
O5    Zn1   S    
C37   H1    S    
C9    C10   A    
C36   N1    A    
C17   H12   S    
C29   N2    A    
C24   H5    S    
C35   N1    A    
C27   C30   A    
C41   C43   A    
O2    Zn2   S    
O1    Zn1   S    
C8    C21   A    
C22   C31   A    
C5    H13   S    
C46   H15   S    
C24   C25   A    
O8    Zn2   S    
O4    Zn2   S    
C39   C40   A    
O7    Zn1   S    
O3    Zn1   S    
C18   H21   S    
C43   C44   A    
C12   C41   A    
C26   H6    S    
O6    Zn2   S    
C31   C32   A    
C28   C38   S    
C23   C34   A    
C35   H4    S    
C17   C18   A    
C13   C21   A    
C8    H18   S    
C30   C35   A    
C12   C46   A    
C7    C16   S    
C39   H3    S    
C5    C44   A    
C7    C19   A    
C42   C43   A    
C3    C4    S    
C6    C20   A    
C44   C45   A    
C24   N2    A    
C10   H19   S    
C33   H8    S    
C6    I1    S    
C40   C41   A    
C14   C19   A    
C3    C5    A    
C36   H22   S    
C23   H9    S    
C32   H23   S    
C22   C36   A    
C1    O1    A    
C32   C33   A    
C2    C3    A    
C25   C26   A    
C11   C13   A    
C38   C39   A    
C2    C42   A    
C16   O6    A    
C20   H16   S    
C28   O8    A    
C4    O4    A    
C10   C11   A    
C7    C20   A    
C14   C15   A    
N2    Zn2   S    
N1    Zn1   S    
