data_mof_unit_10191.cif
_audit_creation_date              2012-12-10T17:55:03-0500
_audit_creation_method            fapswitch 2.2
_symmetry_space_group_name_H-M    P1
_symmetry_Int_Tables_number       1
_space_group_crystal_system       triclinic
_cell_length_a                    8.843685
_cell_length_b                    10.921897
_cell_length_c                    9.617194
_cell_angle_alpha                 90.337171
_cell_angle_beta                  97.438122
_cell_angle_gamma                 95.723359
_cell_volume                      916.34832635

loop_
_atom_site_label
_atom_site_type_symbol
_atom_type_description
_atom_site_fract_x
_atom_site_fract_y
_atom_site_fract_z
_atom_type_partial_charge
C1    C     C_R   0.505408 0.262795 0.499882 0.861208
C2    C     C_R   0.495310 0.737252 0.500242 0.914115
C3    C     C_R   0.204426 0.498910 0.464456 0.758598
C4    C     C_R   0.795521 0.500638 0.535662 0.810486
C5    C     C_2   0.038026 0.487658 0.445743 0.196194
C6    C     C_2   0.961833 0.510838 0.554979 0.207746
C7    C     C_R   0.486789 0.060415 0.371820 0.338013
C8    C     C_R   0.517160 0.939677 0.628756 0.332689
C9    C     C_R   0.463884 0.932619 0.373660 0.346181
C10   C     C_R   0.539183 0.067601 0.626834 0.365066
C11   C     C_R   0.490031 0.871045 0.501340 -0.393613
C12   C     C_R   0.512308 0.129090 0.499100 -0.399508
C13   C     C_R   0.419991 0.406477 0.065995 0.540150
C14   C     C_R   0.581398 0.592486 0.933522 0.483231
C15   C     C_R   0.421152 0.405519 0.916891 -0.114128
C16   C     C_R   0.577723 0.595050 0.081814 -0.121016
Cu1   Cu    Cu3+1 0.500000 0.500020 0.640660 0.996481
Cu2   Cu    Cu3+1 0.500000 0.499980 0.359340 1.029887
N1    N     N_R   0.500040 0.500030 0.852080 -0.253364
N2    N     N_R   0.499960 0.499970 0.147920 -0.237808
O1    O     O_R   0.499990 0.319660 0.618740 -0.577503
O2    O     O_R   0.500010 0.680340 0.381260 -0.524496
O3    O     O_R   0.499990 0.319630 0.381170 -0.501066
O4    O     O_R   0.500010 0.680370 0.618830 -0.498930
O5    O     O_R   0.274840 0.500010 0.591370 -0.587087
O6    O     O_R   0.725160 0.499990 0.408630 -0.511761
O7    O     O_R   0.274830 0.499980 0.353800 -0.592817
O8    O     O_R   0.725170 0.500020 0.646200 -0.583142
O9    O     O_3   0.960745 0.432992 0.322659 -0.613428
C17   C     C_3   0.968043 0.515983 0.211233 -0.268915
H1    H     H_    0.067626 0.504674 0.155802 0.148799
H2    H     H_    0.975459 0.614323 0.244365 0.181911
H3    H     H_    0.863508 0.493750 0.135448 0.180528
O10   O     O_3   0.038695 0.564699 0.678696 -0.595492
C18   C     C_3   0.035593 0.478747 0.787514 -0.336852
H4    H     H_    0.049335 0.383749 0.752582 0.120008
H5    H     H_    0.927962 0.476071 0.834880 0.180250
H6    H     H_    0.130876 0.509049 0.870710 0.167384
O11   O     O_3   0.476557 0.116648 0.243424 -0.484818
C19   C     C_3   0.621706 0.123722 0.196089 -0.106803
H7    H     H_    0.710294 0.178718 0.270311 0.124890
H8    H     H_    0.614347 0.170939 0.093978 0.207100
H9    H     H_    0.657450 0.030616 0.178643 0.134960
O12   O     O_3   0.530627 0.883376 0.757196 -0.501543
C20   C     C_3   0.385472 0.871159 0.804733 -0.141556
H10   H     H_    0.395803 0.825282 0.907638 0.175152
H11   H     H_    0.299571 0.812813 0.731422 0.139969
H12   H     H_    0.344003 0.962300 0.820581 0.196065
O13   O     O_3   0.420838 0.869021 0.247682 -0.555694
C21   C     C_3   0.259450 0.849209 0.224558 -0.268558
H13   H     H_    0.224884 0.795850 0.125052 0.155951
H14   H     H_    0.207399 0.937902 0.213420 0.174262
H15   H     H_    0.213308 0.794284 0.309687 0.134681
O14   O     O_3   0.582901 0.131397 0.752613 -0.498540
C22   C     C_3   0.744183 0.153085 0.773867 -0.247082
H16   H     H_    0.798044 0.065122 0.783439 0.161623
H17   H     H_    0.779230 0.205997 0.873636 0.155839
H18   H     H_    0.788021 0.209230 0.688569 0.121930
O15   O     O_3   0.355976 0.305569 0.131919 -0.485925
C23   C     C_3   0.194332 0.291557 0.107144 -0.176936
H19   H     H_    0.155318 0.195462 0.071586 0.183688
H20   H     H_    0.143227 0.353472 0.027476 0.046353
H21   H     H_    0.148877 0.304430 0.207519 0.199102
O16   O     O_3   0.651361 0.690385 0.866593 -0.514917
C24   C     C_3   0.812004 0.705681 0.903349 -0.248868
H22   H     H_    0.859596 0.629079 0.963188 0.086584
H23   H     H_    0.845296 0.792484 0.965136 0.140284
H24   H     H_    0.866303 0.715239 0.805829 0.223706
C25   C     C_2   0.336234 0.300926 0.832668 0.472507
H25   H     H_    0.276431 0.315000 0.729988 0.082290
O17   O     O_2   0.333349 0.196221 0.876444 -0.540345
C26   C     C_2   0.652584 0.707421 0.157913 0.479768
H26   H     H_    0.635419 0.796571 0.112775 0.101646
O18   O     O_2   0.741985 0.703071 0.264712 -0.574764

loop_
_geom_bond_atom_site_label_1
_geom_bond_atom_site_label_2
_ccdc_geom_bond_type
C2    O2    A    
C21   H14   S    
C22   H16   S    
C1    O1    A    
O9    C17   S    
C13   O15   S    
C14   C16   A    
Cu2   N2    S    
C18   H4    S    
Cu2   O6    S    
C13   C15   A    
C17   H1    S    
C16   N2    A    
C24   H24   S    
C14   O16   S    
O16   C24   S    
C19   H9    S    
C1    O3    A    
C19   H8    S    
Cu1   Cu2   S    
C3    C5    S    
Cu1   O5    S    
O15   C23   S    
C17   H3    S    
C22   H17   S    
Cu2   O2    S    
C20   H10   S    
C23   H20   S    
C17   H2    S    
C9    C11   A    
C8    O12   S    
C5    C6    D    
C1    C12   S    
C10   C12   A    
C8    C11   A    
C10   O14   S    
C2    C11   S    
C3    O7    A    
C19   H7    S    
Cu1   N1    S    
C21   H13   S    
C5    O9    S    
C25   H25   S    
C20   H11   S    
C2    O4    A    
C7    C12   A    
C15   C25   S    
C23   H21   S    
C4    O6    A    
C22   H18   S    
Cu1   O4    S    
C25   O17   D    
C4    C6    S    
Cu2   O3    S    
C21   H15   S    
C7    C9    A    
C3    O5    A    
C18   H6    S    
C9    O13   S    
O12   C20   S    
C26   O18   D    
C24   H22   S    
C4    O8    A    
C20   H12   S    
O11   C19   S    
O13   C21   S    
C7    O11   S    
O14   C22   S    
C26   H26   S    
O10   C18   S    
C18   H5    S    
C15   N1    A    
Cu1   O8    S    
C14   N1    A    
C13   N2    A    
C8    C10   A    
Cu1   O1    S    
Cu2   O7    S    
C6    O10   S    
C23   H19   S    
C24   H23   S    
C16   C26   S    
