data_mof_unit_25574.cif
_audit_creation_date              2012-12-11T14:27:06-0500
_audit_creation_method            fapswitch 2.2
_symmetry_space_group_name_H-M    P1
_symmetry_Int_Tables_number       1
_space_group_crystal_system       triclinic
_cell_length_a                    14.953018
_cell_length_b                    14.923406
_cell_length_c                    14.923885
_cell_angle_alpha                 109.283231
_cell_angle_beta                  109.545942
_cell_angle_gamma                 109.524288
_cell_volume                      2565.52912203

loop_
_atom_site_label
_atom_site_type_symbol
_atom_type_description
_atom_site_fract_x
_atom_site_fract_y
_atom_site_fract_z
_atom_type_partial_charge
C1    C     C_R   0.985190 0.795319 0.075838 0.418140
C2    C     C_R   0.222856 0.747076 0.313150 -0.073477
C3    C     C_R   0.918144 0.407174 0.212973 -0.116114
C4    C     C_R   0.790556 0.199202 0.699280 -0.214438
C5    C     C_R   0.296592 0.590359 0.990175 -0.239153
C6    C     C_R   0.955798 0.498045 0.310249 0.126994
C7    C     C_R   0.294442 0.499722 0.921465 -0.091315
C8    C     C_R   0.324990 0.770870 0.321790 0.113005
C9    C     C_R   0.935312 0.134799 0.937061 0.099359
C10   C     C_3   0.470736 0.401674 0.822454 -0.456281
C11   C     C_3   0.365677 0.395795 0.820607 -0.325384
C12   C     C_R   0.697741 0.134993 0.696847 0.075192
C13   C     C_3   0.560361 0.497909 0.029851 -0.379154
C14   C     C_3   0.574178 0.606509 0.930620 -0.445852
C15   C     C_3   0.571825 0.501747 0.931520 0.356555
C16   C     C_R   0.024952 0.589997 0.776667 -0.144939
C17   C     C_3   0.393172 0.501062 0.918668 0.271572
C18   C     C_3   0.460241 0.505018 0.026155 -0.451895
C19   C     C_3   0.465904 0.604551 0.917887 0.079865
C20   C     C_2   0.445974 0.852547 0.519042 -0.127400
C21   C     C_2   0.430820 0.818528 0.417853 -0.189531
C22   C     C_2   0.553385 0.942659 0.613128 -0.106844
C23   C     C_R   0.947771 0.498045 0.675184 0.095160
C24   C     C_2   0.611146 0.026827 0.604146 -0.155773
C25   C     C_2   0.843317 0.409486 0.476644 -0.101991
C26   C     C_2   0.896866 0.499932 0.574596 -0.195362
C27   C     C_2   0.848547 0.416069 0.382636 -0.111655
C28   C     C_R   0.685997 0.409825 0.931673 -0.167472
C29   C     C_2   0.934314 0.499820 0.398103 -0.184165
C30   C     C_2   0.920952 0.956248 0.845935 0.267726
C31   C     C_2   0.893679 0.019651 0.905284 -0.289302
C32   C     C_2   0.957774 0.890370 0.886285 -0.186309
C33   C     C_2   0.000951 0.918283 0.993061 -0.190852
C34   C     C_R   0.674295 0.501117 0.947015 -0.000232
C35   C     C_R   0.935020 0.407268 0.686877 -0.039196
C36   C     C_R   0.776104 0.591465 0.024669 -0.133190
C37   C     C_R   0.702196 0.196114 0.793110 0.229660
C38   C     C_R   0.073370 0.790532 0.982093 -0.230485
C39   C     C_R   0.027731 0.845329 0.025128 0.075742
C40   C     C_3   0.405230 0.610858 0.815075 -0.339583
C41   C     C_3   0.462753 0.725235 0.830174 -0.933375
C42   C     C_3   0.915712 0.951256 0.740954 -0.342371
C43   C     C_3   0.837903 0.835274 0.642713 -0.896658
C44   C     C_3   0.641329 0.152657 0.845772 -0.392647
C45   C     C_R   0.007158 0.589989 0.304506 -0.152652
C46   C     C_3   0.518308 0.112667 0.783696 -0.903868
C47   C     C_R   0.203778 0.408741 0.896154 0.433932
C48   C     C_R   0.312734 0.745799 0.219699 -0.142505
C49   C     C_R   0.908678 0.199584 0.999455 -0.136497
C50   C     C_R   0.000208 0.197714 0.908826 -0.095808
Cl1   Cl    Cl    0.969850 0.863653 0.185849 -0.710595
Cl2   Cl    Cl    0.127564 0.281997 0.773858 -0.768719
H1    H     H_    0.375542 0.753395 0.197508 0.102031
H2    H     H_    0.819412 0.170897 0.644212 0.144623
H3    H     H_    0.326220 0.323190 0.828153 0.216616
H4    H     H_    0.552421 0.420246 0.027864 0.167352
H5    H     H_    0.409428 0.436049 0.032815 0.175292
H6    H     H_    0.642788 0.681484 0.008637 0.157703
H7    H     H_    0.588710 0.612325 0.863828 0.171597
H8    H     H_    0.489184 0.679073 0.991161 0.120564
H9    H     H_    0.634392 0.566866 0.109030 0.169398
H10   H     H_    0.487168 0.582498 0.098688 0.167955
H11   H     H_    0.377208 0.827101 0.532914 0.124748
H12   H     H_    0.849199 0.172568 0.024289 0.094241
H13   H     H_    0.055501 0.673410 0.793711 0.098271
H14   H     H_    0.501507 0.839625 0.406212 0.135175
H15   H     H_    0.575678 0.946605 0.691570 0.136736
H16   H     H_    0.588431 0.021114 0.524516 0.133705
H17   H     H_    0.812322 0.328586 0.468260 0.121516
H18   H     H_    0.920550 0.580081 0.581350 0.131759
H19   H     H_    0.790515 0.344360 0.301906 0.119665
H20   H     H_    0.995077 0.570913 0.478467 0.132892
H21   H     H_    0.866483 0.997513 0.957777 0.142529
H22   H     H_    0.952456 0.819101 0.828109 0.147822
H23   H     H_    0.029215 0.170243 0.854226 0.156986
H24   H     H_    0.622038 0.326490 0.880801 0.139192
H25   H     H_    0.008882 0.988927 0.054825 0.174240
H26   H     H_    0.881961 0.322312 0.624119 0.095747
H27   H     H_    0.795107 0.674926 0.062104 0.162645
H28   H     H_    0.124862 0.816641 0.949120 0.128411
H29   H     H_    0.031686 0.673007 0.359960 0.115997
H30   H     H_    0.466368 0.786633 0.900317 0.256373
H31   H     H_    0.547199 0.748878 0.844978 0.265829
H32   H     H_    0.416247 0.725888 0.754956 0.256511
H33   H     H_    0.398711 0.550389 0.741928 0.202197
H34   H     H_    0.204052 0.757316 0.378346 0.093261
H35   H     H_    0.320624 0.590779 0.797767 0.202983
H36   H     H_    0.871179 0.780067 0.649310 0.245705
H37   H     H_    0.756247 0.801837 0.636477 0.263744
H38   H     H_    0.827588 0.837319 0.566308 0.261650
H39   H     H_    0.884060 0.003694 0.720843 0.205268
H40   H     H_    0.999039 0.980451 0.750961 0.199265
H41   H     H_    0.499736 0.148436 0.730077 0.258181
H42   H     H_    0.469859 0.022168 0.732522 0.258099
H43   H     H_    0.490121 0.136394 0.843190 0.245350
H44   H     H_    0.654614 0.086640 0.854725 0.177384
H45   H     H_    0.863920 0.322394 0.184700 0.089676
H46   H     H_    0.678068 0.218123 0.931254 0.179621
H47   H     H_    0.351023 0.675230 0.019301 0.120824
H48   H     H_    0.467144 0.323214 0.812028 0.165092
H49   H     H_    0.474100 0.409008 0.751680 0.171288
H50   H     H_    0.308879 0.382954 0.740988 0.192263
N1    N     N_R   0.993980 0.704500 0.053430 -0.082789
N2    N     N_R   0.053690 0.556380 0.849240 -0.041317
N3    N     N_R   0.790390 0.443640 0.997160 -0.044778
N4    N     N_R   0.998260 0.443670 0.792970 -0.032707
N5    N     N_R   0.845830 0.556350 0.053430 -0.029540
N6    N     N_R   0.792820 0.295510 0.849240 -0.077424
N7    N     N_R   0.051260 0.704510 0.997160 -0.062472
N8    N     N_R   0.001740 0.556330 0.207030 -0.041572
N9    N     N_R   0.154170 0.443650 0.946570 -0.069135
N10   N     N_R   0.207180 0.704490 0.150760 -0.041915
N11   N     N_R   0.948740 0.295490 0.002840 -0.050054
N12   N     N_R   0.006020 0.295500 0.946570 -0.039306
N13   N     N_R   0.149890 0.704480 0.207030 -0.040499
N14   N     N_R   0.946310 0.443620 0.150760 -0.050058
N15   N     N_R   0.209610 0.556360 0.002840 -0.053471
N16   N     N_R   0.850110 0.295520 0.792970 -0.049310
Ni1   Ni    Ni4+2 0.997880 0.629240 0.129060 0.265166
Ni2   Ni    Ni4+2 0.002120 0.370760 0.870940 0.264246
Ni3   Ni    Ni4+2 0.129260 0.629260 0.000000 0.210095
Ni4   Ni    Ni4+2 0.870740 0.370740 0.000000 0.191004

loop_
_geom_bond_atom_site_label_1
_geom_bond_atom_site_label_2
_ccdc_geom_bond_type
C49   N11   A    
C6    C45   A    
C21   H14   S    
C27   C29   D    
C3    C6    A    
N7    Ni3   S    
N2    N4    A    
C27   H19   S    
C14   H7    S    
N3    N5    A    
C33   C39   S    
N14   Ni4   S    
C13   C18   S    
C43   H36   S    
C40   H35   S    
C3    N14   A    
C32   H22   S    
C30   C31   D    
C31   H21   S    
C41   H31   S    
C42   H39   S    
C23   C26   S    
C12   C37   A    
N15   Ni3   S    
C44   H46   S    
C16   N2    A    
N11   Ni4   S    
C5    H47   S    
C7    C17   S    
C4    C12   A    
C1    N1    A    
C15   C34   S    
C34   C36   A    
C29   H20   S    
N4    Ni2   S    
N1    N7    A    
C28   C34   A    
C49   H12   S    
C36   N5    A    
C4    N16   A    
N5    Ni1   S    
C44   C46   S    
C8    C21   S    
C9    C31   S    
C48   H1    S    
C14   H6    S    
N1    Ni1   S    
C43   H38   S    
C46   H43   S    
N6    N16   A    
C9    C49   A    
C37   N6    A    
C10   C11   S    
C5    C7    A    
C1    C39   A    
C45   N8    A    
C18   H10   S    
N2    Ni3   S    
C25   C26   D    
C41   H32   S    
C5    N15   A    
N9    Ni2   S    
C50   N12   A    
C7    C47   A    
C40   H33   S    
C8    C48   A    
C44   H44   S    
C2    N13   A    
C3    H45   S    
C18   H5    S    
C46   H42   S    
C28   N3    A    
C17   C18   S    
C43   H37   S    
C38   N7    A    
C10   H48   S    
C1    Cl1   S    
C40   C41   S    
C48   N10   A    
C20   C22   S    
C16   C23   A    
C23   C35   A    
C13   C15   S    
C26   H18   S    
C22   C24   D    
C25   H17   S    
C42   C43   S    
C28   H24   S    
N8    N14   A    
C11   H3    S    
N11   N12   A    
C11   C17   S    
C4    H2    S    
C14   C19   S    
C10   H49   S    
C45   H29   S    
C9    C50   A    
N6    Ni4   S    
C36   H27   S    
N8    Ni1   S    
C47   Cl2   S    
C19   H8    S    
C25   C27   S    
C12   C24   S    
C35   H26   S    
N13   Ni1   S    
N9    N15   A    
C10   C15   S    
C32   C33   D    
C13   H4    S    
C20   H11   S    
N10   Ni3   S    
C35   N4    A    
C50   H23   S    
C30   C32   S    
C33   H25   S    
C38   C39   A    
C46   H41   S    
C38   H28   S    
C37   C44   S    
C47   N9    A    
C41   H30   S    
C17   C19   S    
N3    Ni4   S    
C2    H34   S    
C11   H50   S    
C42   H40   S    
N16   Ni2   S    
C22   H15   S    
C19   C40   S    
C24   H16   S    
C6    C29   S    
C13   H9    S    
C20   C21   D    
C2    C8    A    
C14   C15   S    
C30   C42   S    
C16   H13   S    
N10   N13   A    
N12   Ni2   S    
