data_mof_unit_63143.cif
_audit_creation_date              2012-12-10T17:25:18-0500
_audit_creation_method            fapswitch 2.2
_symmetry_space_group_name_H-M    P1
_symmetry_Int_Tables_number       1
_space_group_crystal_system       triclinic
_cell_length_a                    18.817147
_cell_length_b                    18.728664
_cell_length_c                    18.827074
_cell_angle_alpha                 109.389968
_cell_angle_beta                  109.611981
_cell_angle_gamma                 109.426797
_cell_volume                      5106.68695308

loop_
_atom_site_label
_atom_site_type_symbol
_atom_type_description
_atom_site_fract_x
_atom_site_fract_y
_atom_site_fract_z
_atom_type_partial_charge
C1    C     C_R   0.619826 0.618950 0.501311 0.794021
C2    C     C_R   0.201631 0.165534 0.196224 -0.116163
C3    C     C_R   0.179834 0.421711 0.175128 -0.235433
C4    C     C_R   0.185299 0.501534 0.187443 -0.039326
C5    C     C_R   0.252614 0.579935 0.264559 0.053956
C6    C     C_R   0.315847 0.577333 0.326967 -0.181173
C7    C     C_R   0.311229 0.497534 0.314370 -0.097602
C8    C     C_R   0.241831 0.418549 0.238323 0.001202
C9    C     C_R   0.302050 0.716596 0.257492 -0.177249
C10   C     C_R   0.304582 0.795703 0.271800 -0.126695
C11   C     C_R   0.261528 0.823797 0.312299 -0.182621
C12   C     C_R   0.379905 0.498850 0.381133 0.787273
C13   C     C_R   0.216336 0.773238 0.339236 -0.195030
C14   C     C_R   0.213013 0.693436 0.325216 0.442389
C15   C     C_R   0.255821 0.664514 0.283099 -0.025066
C16   C     C_R   0.771423 0.742215 0.577164 -0.009282
C17   C     C_R   0.834764 0.804768 0.574605 -0.221065
C18   C     C_R   0.814587 0.813396 0.500270 -0.033896
C19   C     C_R   0.730907 0.758061 0.427216 -0.176897
C20   C     C_R   0.667904 0.694181 0.428316 -0.213067
C21   C     C_R   0.687503 0.686365 0.502939 -0.044955
C22   C     C_R   0.683624 0.509258 0.761930 -0.186490
C23   C     C_R   0.381203 0.380951 0.500013 0.774803
C24   C     C_R   0.747049 0.508019 0.825449 -0.192578
C25   C     C_R   0.814502 0.500228 0.814347 -0.003820
C26   C     C_R   0.817572 0.491864 0.738925 -0.216009
C27   C     C_R   0.752196 0.489540 0.673814 -0.174648
C28   C     C_R   0.685727 0.499422 0.685704 -0.000390
C29   C     C_R   0.243892 0.322772 0.502017 -0.189650
C30   C     C_R   0.178875 0.257824 0.500249 -0.178133
C31   C     C_R   0.185646 0.185356 0.499337 -0.009972
C32   C     C_R   0.256540 0.176959 0.498241 -0.187069
C33   C     C_R   0.320009 0.240421 0.496925 -0.188327
C34   C     C_R   0.618945 0.499882 0.618915 0.788648
C35   C     C_R   0.314215 0.313843 0.499753 -0.017944
C36   C     C_R   0.000189 0.619201 0.119043 0.802640
C37   C     C_R   0.118759 0.500918 0.119731 0.822430
C38   C     C_R   0.998356 0.380846 0.879658 0.786791
C39   C     C_R   0.881201 0.500076 0.881108 0.777936
C40   C     C_R   0.000317 0.881379 0.381176 0.778888
C41   C     C_R   0.881057 0.880556 0.499686 0.798857
C42   C     C_R   0.998543 0.117339 0.618601 0.798657
C43   C     C_R   0.118886 0.118680 0.499707 0.774611
C44   C     C_R   0.024108 0.768838 0.192824 -0.186372
C45   C     C_R   0.214353 0.192491 0.138468 -0.137232
C46   C     C_R   0.022976 0.832499 0.256206 -0.195391
C47   C     C_R   0.000719 0.814946 0.314709 -0.018433
C48   C     C_R   0.978484 0.733584 0.309347 -0.153795
C49   C     C_R   0.976856 0.668964 0.244268 -0.108584
C50   C     C_R   0.000406 0.686557 0.186211 -0.046668
C51   C     C_R   0.073787 0.322168 0.815136 -0.196930
C52   C     C_R   0.074041 0.256914 0.753096 -0.198346
C53   C     C_R   0.995665 0.181931 0.684864 -0.065817
C54   C     C_R   0.915551 0.170983 0.678891 -0.047277
C55   C     C_R   0.915157 0.237408 0.741691 -0.044981
C56   C     C_R   0.227848 0.275157 0.152320 -0.143394
C57   C     C_R   0.995198 0.312855 0.810363 -0.069881
C58   C     C_R   0.229585 0.331808 0.224755 0.128818
C59   C     C_R   0.216343 0.304116 0.282325 -0.111331
C60   C     C_R   0.202292 0.221152 0.267880 -0.117712
Cu1   Cu    Cu3+1 0.500020 0.438210 0.438220 0.956622
Cu2   Cu    Cu3+1 0.499980 0.561790 0.561780 0.956958
Cu3   Cu    Cu3+1 0.938210 0.438200 0.999980 0.987251
Cu4   Cu    Cu3+1 0.061840 0.561770 0.999960 0.941774
Cu5   Cu    Cu3+1 0.061800 0.999890 0.561700 0.959589
Cu6   Cu    Cu3+1 0.938200 0.999930 0.438120 0.951112
H1    H     H_    0.190873 0.101406 0.185243 0.121622
H2    H     H_    0.263318 0.885001 0.323059 0.145429
H3    H     H_    0.183721 0.796532 0.370804 0.186202
H4    H     H_    0.899428 0.847828 0.631414 0.157824
H5    H     H_    0.714497 0.763756 0.369187 0.152259
H6    H     H_    0.603443 0.651320 0.371262 0.135557
H7    H     H_    0.632254 0.516457 0.771557 0.143586
H8    H     H_    0.744475 0.514649 0.883801 0.137636
H9    H     H_    0.869528 0.485553 0.729907 0.135067
H10   H     H_    0.213464 0.149206 0.082785 0.129044
H11   H     H_    0.754725 0.482421 0.615350 0.145961
H12   H     H_    0.238636 0.379082 0.503550 0.145879
H13   H     H_    0.124267 0.264798 0.501251 0.143153
H14   H     H_    0.261902 0.120777 0.497022 0.138117
H15   H     H_    0.374274 0.233119 0.495263 0.139628
H16   H     H_    0.042141 0.783340 0.148278 0.148034
H17   H     H_    0.040493 0.895649 0.260451 0.130754
H18   H     H_    0.961129 0.719818 0.354561 0.150538
H19   H     H_    0.958628 0.605866 0.240200 0.195178
H20   H     H_    0.135319 0.379605 0.867896 0.150230
H21   H     H_    0.237308 0.295195 0.106935 0.122845
H22   H     H_    0.135554 0.265473 0.757580 0.147587
H23   H     H_    0.216157 0.346437 0.337778 0.103252
H24   H     H_    0.191528 0.199743 0.311964 0.143631
H25   H     H_    0.126412 0.361524 0.116323 0.144562
H26   H     H_    0.368525 0.637791 0.385906 0.163998
H27   H     H_    0.335373 0.695330 0.225555 0.140194
H28   H     H_    0.339809 0.835180 0.251265 0.130719
O1    O     O_R   0.590200 0.537990 0.447840 -0.580829
O2    O     O_R   0.052220 0.642350 0.090110 -0.587353
O3    O     O_R   0.038000 0.447810 0.090170 -0.555328
O4    O     O_R   0.142390 0.552170 0.090150 -0.595886
O5    O     O_R   0.947830 0.357620 0.909840 -0.580190
O6    O     O_R   0.052230 0.461980 0.909820 -0.591725
O7    O     O_R   0.857660 0.447800 0.909790 -0.578002
O8    O     O_R   0.962050 0.552160 0.909780 -0.594080
O9    O     O_R   0.052180 0.909730 0.461910 -0.575279
O10   O     O_R   0.947800 0.909770 0.357550 -0.585906
O11   O     O_R   0.962000 0.909720 0.552080 -0.590882
O12   O     O_R   0.590170 0.642360 0.552180 -0.595377
O13   O     O_R   0.857620 0.909750 0.447720 -0.582497
O14   O     O_R   0.052200 0.090060 0.642270 -0.588932
O15   O     O_R   0.947820 0.090090 0.537910 -0.579617
O16   O     O_R   0.142380 0.090070 0.552100 -0.584086
O17   O     O_R   0.038000 0.090100 0.447740 -0.588616
O18   O     O_R   0.409840 0.447810 0.357640 -0.575956
O19   O     O_R   0.409810 0.552180 0.461990 -0.574931
O20   O     O_R   0.409830 0.357640 0.447820 -0.582271
O21   O     O_R   0.409800 0.462010 0.552160 -0.583789
O22   O     O_R   0.590190 0.447820 0.538010 -0.594120
O23   O     O_R   0.590160 0.552190 0.642360 -0.583604
O24   O     O_R   0.947830 0.537990 0.090130 -0.577897
S1    S     S_3+6 0.155619 0.631547 0.360938 -0.021688
O25   O     O_2   0.122504 0.679977 0.409631 -0.287062
O26   O     O_2   0.079574 0.546364 0.283177 -0.334021
O27   O     O_3   0.222347 0.611856 0.427270 -0.523230
H29   H     H_    0.191165 0.547832 0.403382 0.368735
C61   C     C_R   0.795910 0.734920 0.656716 0.076675
C62   C     C_R   0.854407 0.704716 0.679180 -0.170806
C63   C     C_R   0.880059 0.700430 0.755787 -0.127565
C64   C     C_R   0.847102 0.725678 0.810079 -0.094584
C65   C     C_R   0.789443 0.756530 0.788495 -0.131979
C66   C     C_R   0.764525 0.762009 0.712511 -0.106426
H30   H     H_    0.880108 0.684632 0.637434 0.140078
H31   H     H_    0.925065 0.676982 0.772788 0.140830
H32   H     H_    0.866382 0.721484 0.868909 0.130891
H33   H     H_    0.764477 0.776713 0.830918 0.125758
H34   H     H_    0.721294 0.787789 0.697456 0.132464
C67   C     C_R   0.832658 0.089191 0.609652 0.119541
C68   C     C_R   0.775471 0.087122 0.537267 -0.089108
C69   C     C_R   0.695571 0.010936 0.474213 -0.137391
C70   C     C_R   0.672018 0.936982 0.483671 -0.098862
C71   C     C_R   0.728448 0.939037 0.556065 -0.120587
C72   C     C_R   0.808984 0.014585 0.618524 -0.179640
H35   H     H_    0.792682 0.144507 0.530067 0.117386
H36   H     H_    0.651630 0.009428 0.418362 0.121012
H37   H     H_    0.609928 0.878220 0.435125 0.122002
H38   H     H_    0.709749 0.882079 0.563806 0.144522
H39   H     H_    0.852169 0.015549 0.674470 0.119346
C73   C     C_R   0.831079 0.228839 0.733440 0.127224
C74   C     C_R   0.782743 0.171247 0.753223 -0.093483
C75   C     C_R   0.702964 0.162471 0.744126 -0.136425
C76   C     C_R   0.670989 0.210887 0.715091 -0.103418
C77   C     C_R   0.718740 0.268152 0.695102 -0.116564
C78   C     C_R   0.798749 0.277413 0.704468 -0.160258
H40   H     H_    0.806941 0.133404 0.775686 0.116775
H41   H     H_    0.665867 0.118050 0.759462 0.127213
H42   H     H_    0.609151 0.203925 0.707936 0.124558
H43   H     H_    0.693628 0.305227 0.672241 0.144167
H44   H     H_    0.835208 0.321790 0.688639 0.110057

loop_
_geom_bond_atom_site_label_1
_geom_bond_atom_site_label_2
_ccdc_geom_bond_type
C40   C47   S    
C69   H36   S    
C1    C21   S    
C16   C21   A    
C19   H5    S    
C19   C20   A    
Cu6   O13   S    
Cu3   O7    S    
C65   C66   A    
C37   O3    A    
C67   C68   A    
C53   C54   A    
C52   C53   A    
Cu4   O8    S    
C26   C27   A    
C63   C64   A    
C31   C43   S    
C45   H10   S    
C27   C28   A    
C42   O15   A    
C73   C74   A    
C44   H16   S    
C70   H37   S    
C42   C53   S    
C5    C6    A    
C2    C60   A    
C46   H17   S    
C32   H14   S    
C10   H28   S    
C34   O22   A    
C3    H25   S    
C18   C19   A    
C59   H23   S    
C49   C50   A    
C64   H32   S    
Cu2   O23   S    
Cu3   O5    S    
C8    C58   S    
C54   C55   A    
C62   H30   S    
C29   H12   S    
C74   C75   A    
C45   C56   A    
C16   C17   A    
C17   C18   A    
C51   C57   A    
C43   O16   A    
Cu6   O17   S    
C36   O24   A    
C9    C10   A    
Cu5   O14   S    
C1    O12   A    
C34   O23   A    
Cu4   O4    S    
C28   C34   S    
C59   C60   A    
C22   C28   A    
C13   C14   A    
C67   C72   A    
C43   O17   A    
C51   H20   S    
Cu5   O11   S    
C37   O4    A    
C44   C46   A    
C39   O7    A    
S1    O26   D    
C2    C45   A    
C7    C12   S    
C51   C52   A    
Cu6   O10   S    
C7    C8    A    
C24   C25   A    
Cu4   O2    S    
Cu2   O19   S    
C38   O6    A    
C3    C8    A    
C10   C11   A    
C18   C41   S    
Cu3   O24   S    
C4    C5    A    
C56   H21   S    
C25   C26   A    
Cu3   Cu4   S    
C48   H18   S    
C73   C78   A    
C76   H42   S    
C29   C30   A    
C49   H19   S    
C40   O10   A    
C38   C57   S    
C71   H38   S    
C36   O2    A    
C47   C48   A    
C14   C15   A    
C52   H22   S    
C1    O1    A    
C20   C21   A    
Cu1   O22   S    
C26   H9    S    
C78   H44   S    
C75   C76   A    
S1    O25   D    
C41   O11   A    
C30   H13   S    
C48   C49   A    
C33   H15   S    
C2    H1    S    
C23   C35   S    
C77   H43   S    
C55   C57   A    
C62   C63   A    
C22   C24   A    
C75   H41   S    
Cu5   O9    S    
C64   C65   A    
C9    H27   S    
C12   O18   A    
C36   C50   S    
C11   H2    S    
C39   O8    A    
C12   O19   A    
S1    O27   S    
C44   C50   A    
C46   C47   A    
C55   C73   S    
C41   O13   A    
C9    C15   A    
C31   C32   A    
C38   O5    A    
C27   H11   S    
C72   H39   S    
C71   C72   A    
Cu1   O1    S    
C6    C7    A    
Cu2   O12   S    
C60   H24   S    
C69   C70   A    
C29   C35   A    
C32   C33   A    
C74   H40   S    
C58   C59   A    
Cu4   O6    S    
Cu2   O21   S    
Cu3   O3    S    
C65   H33   S    
C25   C39   S    
C23   O20   A    
C11   C13   A    
C24   H8    S    
C30   C31   A    
C13   H3    S    
C63   H31   S    
C6    H26   S    
C54   C67   S    
C33   C35   A    
C68   H35   S    
C56   C58   A    
C61   C66   A    
Cu5   Cu6   S    
Cu6   O15   S    
C16   C61   S    
Cu1   Cu2   S    
Cu5   O16   S    
C5    C15   S    
C70   C71   A    
C23   O21   A    
C66   H34   S    
C17   H4    S    
C4    C37   S    
C14   S1    S    
Cu1   O20   S    
C77   C78   A    
C20   H6    S    
C22   H7    S    
O27   H29   S    
C76   C77   A    
Cu1   O18   S    
C42   O14   A    
C68   C69   A    
C3    C4    A    
C61   C62   A    
C40   O9    A    
