data_mof_unit_15924.cif
_audit_creation_date              2012-12-11T15:28:42-0500
_audit_creation_method            fapswitch 2.2
_symmetry_space_group_name_H-M    P1
_symmetry_Int_Tables_number       1
_space_group_crystal_system       triclinic
_cell_length_a                    6.960505
_cell_length_b                    19.596146
_cell_length_c                    23.386097
_cell_angle_alpha                 96.07745
_cell_angle_beta                  91.258381
_cell_angle_gamma                 88.585013
_cell_volume                      3170.34621641

loop_
_atom_site_label
_atom_site_type_symbol
_atom_type_description
_atom_site_fract_x
_atom_site_fract_y
_atom_site_fract_z
_atom_type_partial_charge
O1    O     O_R   0.617180 0.809390 0.808140 -0.521658
O2    O     O_R   0.382820 0.190610 0.191860 -0.521657
O3    O     O_R   0.293300 0.672410 0.795490 -0.535398
O4    O     O_R   0.706700 0.327590 0.204510 -0.535398
O5    O     O_R   0.117220 0.690610 0.691850 -0.522632
O6    O     O_R   0.882780 0.309390 0.308150 -0.522632
C1    C     C_R   0.465032 0.647870 0.805289 0.696165
C2    C     C_R   0.534968 0.352130 0.194711 0.696166
O7    O     O_R   0.287840 0.807750 0.814460 -0.524790
O8    O     O_R   0.712160 0.192250 0.185540 -0.524790
O9    O     O_R   0.111720 0.826910 0.710960 -0.530668
O10   O     O_R   0.888280 0.173090 0.289040 -0.530668
C3    C     C_R   0.456520 0.830751 0.833169 0.719767
C4    C     C_R   0.543480 0.169249 0.166831 0.719766
O11   O     O_R   0.622680 0.673080 0.789040 -0.533491
O12   O     O_R   0.377320 0.326920 0.210960 -0.533492
O13   O     O_3   0.448820 0.756130 0.716020 -0.359340
O14   O     O_3   0.551180 0.243870 0.283980 -0.359340
V1    V     V_3+5 0.176220 0.748860 0.756300 1.427071
V2    V     V_3+5 0.823780 0.251140 0.243700 1.427071
O15   O     O_R   0.781670 0.827580 0.704500 -0.534457
O16   O     O_R   0.218330 0.172420 0.295500 -0.534457
C5    C     C_R   0.947612 0.851819 0.694056 0.711014
C6    C     C_R   0.052388 0.148181 0.305944 0.711014
O17   O     O_R   0.787130 0.692240 0.685530 -0.525976
O18   O     O_R   0.212870 0.307760 0.314470 -0.525976
C7    C     C_R   0.956084 0.669237 0.666794 0.713693
C8    C     C_R   0.043916 0.330763 0.333206 0.713693
V3    V     V_3+5 0.675510 0.751130 0.743690 1.427639
V4    V     V_3+5 0.324490 0.248870 0.256310 1.427639
O19   O     O_3   0.952780 0.743870 0.783980 -0.359261
O20   O     O_3   0.047220 0.256130 0.216020 -0.359261
C9    C     C_1   0.966584 0.617176 0.614737 -0.213527
C10   C     C_1   0.033416 0.382824 0.385263 -0.213527
C11   C     C_1   0.978157 0.573662 0.571921 0.004355
C12   C     C_1   0.021843 0.426338 0.428079 0.004355
C13   C     C_1   0.993410 0.521859 0.521316 0.004581
C14   C     C_1   0.006590 0.478141 0.478684 0.004581
C15   C     C_R   0.944772 0.914187 0.663555 -0.085854
C16   C     C_R   0.055227 0.085813 0.336445 -0.085855
C17   C     C_R   0.848324 0.033828 0.663146 0.170359
C18   C     C_R   0.151676 0.966172 0.336854 0.170359
C19   C     C_R   0.870933 0.975132 0.691616 -0.170716
C20   C     C_R   0.129067 0.024868 0.308384 -0.170716
C21   C     C_R   0.996457 0.911810 0.605617 -0.211933
C22   C     C_R   0.003543 0.088190 0.394383 -0.211933
C23   C     C_R   0.971742 0.970408 0.574451 0.064155
C24   C     C_R   0.028258 0.029592 0.425549 0.064155
C25   C     C_R   0.896701 0.031975 0.604521 0.086100
C26   C     C_R   0.103298 0.968024 0.395479 0.086100
C27   C     C_R   0.015714 0.969718 0.514443 0.073103
C28   C     C_R   0.984285 0.030282 0.485557 0.073103
C29   C     C_R   0.910606 0.089651 0.517715 -0.189833
C30   C     C_R   0.089394 0.910349 0.482285 -0.189833
C31   C     C_R   0.868709 0.090375 0.575488 -0.155575
C32   C     C_R   0.131291 0.909624 0.424512 -0.155574
H1    H     H_    0.812218 0.137904 0.597035 0.167622
H2    H     H_    0.187782 0.862096 0.402965 0.167622
H3    H     H_    0.950561 0.137018 0.413988 0.103493
H4    H     H_    0.049438 0.862982 0.586012 0.103493
H5    H     H_    0.171393 0.023153 0.263923 0.136779
H6    H     H_    0.828607 0.976847 0.736076 0.136779
H7    H     H_    0.882405 0.137147 0.499505 0.126428
H8    H     H_    0.117594 0.862853 0.500495 0.126428
C33   C     C_R   0.485592 0.585751 0.835484 -0.047702
C34   C     C_R   0.514408 0.414248 0.164516 -0.047701
C35   C     C_R   0.591245 0.467132 0.833576 -0.150050
C36   C     C_R   0.408755 0.532868 0.166424 -0.150050
C37   C     C_R   0.554121 0.525112 0.805275 -0.163879
C38   C     C_R   0.445879 0.474888 0.194725 -0.163879
C39   C     C_R   0.454993 0.588207 0.894884 -0.212356
C40   C     C_R   0.545007 0.411793 0.105116 -0.212356
C41   C     C_R   0.496460 0.530034 0.925268 0.087357
C42   C     C_R   0.503540 0.469965 0.074732 0.087357
C43   C     C_R   0.564868 0.469150 0.893033 0.132047
C44   C     C_R   0.435132 0.530850 0.106967 0.132047
C45   C     C_R   0.475909 0.530313 0.986300 0.056416
C46   C     C_R   0.524091 0.469686 0.013700 0.056416
C47   C     C_R   0.590343 0.410780 0.979129 -0.183253
C48   C     C_R   0.409657 0.589220 0.020871 -0.183253
C49   C     C_R   0.609616 0.410689 0.920212 -0.188141
C50   C     C_R   0.390384 0.589310 0.079788 -0.188141
H9    H     H_    0.661909 0.364182 0.895606 0.138806
H10   H     H_    0.338091 0.635818 0.104393 0.138806
H11   H     H_    0.594941 0.363308 0.083977 0.097297
H12   H     H_    0.405058 0.636692 0.916023 0.097298
H13   H     H_    0.644321 0.420758 0.808989 0.129226
H14   H     H_    0.355678 0.579242 0.191011 0.129226
H15   H     H_    0.629659 0.363428 0.996260 0.127836
H16   H     H_    0.370341 0.636572 0.003740 0.127836
C51   C     C_1   0.467260 0.882822 0.885225 -0.206386
C52   C     C_1   0.532740 0.117178 0.114775 -0.206386
C53   C     C_1   0.478687 0.926340 0.928050 0.013289
C54   C     C_1   0.521313 0.073660 0.071950 0.013289
C55   C     C_1   0.493581 0.978142 0.978675 0.013221
C56   C     C_1   0.506419 0.021858 0.021325 0.013221
I1    I     I_    0.733346 0.122283 0.712677 -0.412735
I2    I     I_    0.266653 0.877717 0.287323 -0.412735
H17   H     H_    0.419484 0.477119 0.240387 0.111790
H18   H     H_    0.580516 0.522881 0.759613 0.111790

loop_
_geom_bond_atom_site_label_1
_geom_bond_atom_site_label_2
_ccdc_geom_bond_type
C21   H4    S    
C2    C34   S    
O6    C8    A    
C22   H3    S    
O13   V3    S    
C55   C56   T    
O4    C2    A    
V1    O19   S    
C40   H11   S    
C23   C25   A    
C45   C46   A    
C28   C29   A    
C16   C22   A    
O9    V1    S    
C42   C44   A    
C11   C13   S    
O3    C1    A    
C18   I2    S    
C9    C11   T    
C5    C15   S    
C1    C33   S    
O12   V4    S    
O9    C5    A    
O7    C3    A    
C53   C55   S    
C17   I1    S    
C6    C16   S    
O5    C7    A    
O7    V1    S    
C34   C40   A    
O8    V2    S    
O3    V1    S    
O14   V4    S    
C10   C12   T    
C15   C21   A    
C21   C23   A    
C8    C10   S    
C2    O12   A    
C3    C51   S    
C17   C19   A    
C18   C20   A    
C17   C25   A    
C49   H9    S    
O11   V3    S    
C30   C32   A    
C29   C31   A    
O17   V3    S    
C22   C24   A    
C27   C28   A    
C40   C42   A    
O8    C4    A    
C44   C50   A    
C47   C49   A    
C46   C47   A    
C43   C49   A    
C15   C19   A    
C1    O11   A    
C25   C31   A    
O15   V3    S    
C26   C32   A    
C35   C37   A    
C13   C14   T    
C51   C53   T    
C39   H12   S    
C16   C20   A    
O10   V2    S    
C52   C54   T    
C36   C44   A    
C54   C56   S    
C4    C52   S    
C18   C26   A    
C48   C50   A    
O18   V4    S    
C50   H10   S    
C31   H1    S    
C36   H14   S    
O16   C6    A    
O1    C3    A    
C41   C43   A    
C12   C14   S    
C38   H17   S    
C39   C41   A    
V2    O20   S    
C45   C48   A    
O16   V4    S    
C35   H13   S    
C23   C27   A    
O5    V1    S    
C20   H5    S    
O17   C7    A    
O6    V2    S    
O10   C6    A    
O18   C8    A    
O2    V4    S    
C27   C30   A    
O15   C5    A    
V3    O19   S    
C33   C39   A    
V4    O20   S    
C29   H7    S    
O1    V3    S    
C34   C38   A    
C30   H8    S    
C33   C37   A    
C24   C26   A    
O13   V1    S    
C32   H2    S    
O14   V2    S    
C48   H16   S    
O2    C4    A    
C47   H15   S    
O4    V2    S    
C37   H18   S    
C24   C28   A    
C35   C43   A    
C36   C38   A    
C42   C46   A    
C7    C9    S    
C41   C45   A    
C19   H6    S    
