data_mof_unit_46050.cif
_audit_creation_date              2013-03-05T15:51:48-0500
_audit_creation_method            fapswitch 2.2
_symmetry_space_group_name_H-M    P1
_symmetry_Int_Tables_number       1
_space_group_crystal_system       triclinic
_cell_length_a                    15.885097
_cell_length_b                    10.830956
_cell_length_c                    9.639198
_cell_angle_alpha                 91.22842
_cell_angle_beta                  90.227059
_cell_angle_gamma                 93.992296
_cell_volume                      1654.0023093

loop_
_atom_site_label
_atom_site_type_symbol
_atom_site_description
_atom_site_fract_x
_atom_site_fract_y
_atom_site_fract_z
_atom_type_partial_charge
O1    O     O_R   0.499990 0.319640 0.618810 -0.574397
O2    O     O_R   0.500000 0.319660 0.381240 -0.583724
C1    C     C_R   0.505528 0.263189 0.498938 0.831603
O3    O     O_R   0.379070 0.499980 0.618770 -0.572286
O4    O     O_R   0.379080 0.500000 0.381190 -0.577636
C2    C     C_R   0.340101 0.499143 0.499701 0.797741
Cu1   Cu    Cu3+1 0.499990 0.499990 0.640660 1.001843
Cu2   Cu    Cu3+1 0.500010 0.500010 0.359340 0.985312
O5    O     O_R   0.500000 0.680340 0.618760 -0.599963
O6    O     O_R   0.500010 0.680360 0.381190 -0.586628
O7    O     O_R   0.620920 0.500000 0.618810 -0.547040
O8    O     O_R   0.620930 0.500020 0.381230 -0.601113
C3    C     C_R   0.492810 0.736948 0.502284 0.807578
C4    C     C_R   0.659904 0.500489 0.500087 0.863574
C5    C     C_3   0.965409 0.385783 0.536090 -0.266348
C6    C     C_3   0.023401 0.411252 0.409121 -0.149092
H1    H     H_    0.937472 0.294263 0.568891 0.201520
C7    C     C_1   0.250525 0.498579 0.499037 -0.120395
C8    C     C_1   0.749489 0.500769 0.499977 -0.059476
C9    C     C_3   0.025724 0.474520 0.623322 0.394493
C10   C     C_3   0.083456 0.497915 0.498325 -0.012825
C11   C     C_3   0.975875 0.586791 0.587895 -0.239523
C12   C     C_3   0.916374 0.498930 0.497456 0.011339
C13   C     C_3   0.034030 0.610658 0.459611 -0.265570
C14   C     C_3   0.973723 0.522300 0.372007 0.368525
C15   C     C_1   0.175072 0.498136 0.498602 0.061834
C16   C     C_1   0.824890 0.500207 0.498935 0.095996
H2    H     H_    0.062004 0.702017 0.426434 0.189833
H3    H     H_    0.956651 0.658268 0.663009 0.204318
H4    H     H_    0.464422 0.105150 0.287030 0.177165
C17   C     C_R   0.584269 0.125534 0.729617 0.308975
C18   C     C_R   0.582254 0.071625 0.860507 -0.270034
H5    H     H_    0.618209 0.116299 0.945476 0.223353
C19   C     C_R   0.535044 0.959966 0.881825 0.318952
C20   C     C_R   0.496664 0.896486 0.767623 -0.238804
H6    H     H_    0.459093 0.811807 0.786550 0.211998
C21   C     C_R   0.505447 0.943378 0.632484 0.012320
C22   C     C_R   0.535213 0.067797 0.619254 -0.005117
C23   C     C_R   0.512467 0.129309 0.497652 -0.071148
C24   C     C_R   0.481795 0.060384 0.381378 -0.145108
H7    H     H_    0.452730 0.880877 0.292785 0.227332
C25   C     C_R   0.472697 0.932550 0.385603 -0.121808
C26   C     C_R   0.486476 0.871910 0.509264 -0.088805
H8    H     H_    0.391433 0.378944 0.124466 0.140721
C27   C     C_R   0.624299 0.641817 0.154433 -0.065306
H9    H     H_    0.617943 0.670026 0.259648 0.202880
C28   C     C_R   0.700616 0.678809 0.097699 -0.157700
H10   H     H_    0.750236 0.722182 0.163582 0.189222
C29   C     C_R   0.711176 0.668417 0.957005 -0.057986
C30   C     C_R   0.640127 0.636151 0.871550 -0.044910
C31   C     C_R   0.565523 0.568722 0.928802 0.193548
C32   C     C_R   0.562469 0.569380 0.078486 0.236162
N1    N     N_R   0.500800 0.501210 0.147910 -0.200786
C33   C     C_R   0.440365 0.433811 0.071485 -0.022976
H11   H     H_    0.390679 0.380535 0.867766 0.148650
C34   C     C_R   0.439937 0.434651 0.924104 -0.013505
N2    N     N_R   0.500830 0.501290 0.852040 -0.196319
C35   C     C_1   0.049126 0.316636 0.309820 0.366066
N3    N     N_1   0.069434 0.242098 0.231443 -0.213722
N4    N     N_R   0.530430 0.907008 0.017163 0.104879
O9    O     O_R   0.582788 0.947170 0.114861 -0.382505
O10   O     O_R   0.475546 0.815515 0.042433 -0.415823
C36   C     C_1   0.792515 0.712621 0.902405 0.357678
N5    N     N_1   0.857395 0.748320 0.859420 -0.237938
C37   C     C_1   0.645603 0.707763 0.747063 0.320818
N6    N     N_1   0.657181 0.768405 0.650495 -0.305131
N7    N     N_R   0.946595 0.548124 0.231626 0.139735
O11   O     O_R   0.002622 0.574006 0.136718 -0.282064
O12   O     O_R   0.866855 0.542723 0.199505 -0.359542
N8    N     N_R   0.052538 0.448104 0.763676 0.146453
O13   O     O_R   0.996295 0.427743 0.859643 -0.264568
O14   O     O_R   0.132117 0.443697 0.793795 -0.341351
N9    N     N_R   0.644721 0.227685 0.705468 0.139499
O15   O     O_R   0.668754 0.303848 0.806624 -0.343607
O16   O     O_R   0.686358 0.231970 0.589419 -0.379337

loop_
_geom_bond_atom_site_label_1
_geom_bond_atom_site_label_2
_geom_bond_distance
_ccdc_geom_bond_type
H11   C34   1.081582 S    
C6    C10   1.537757 S    
C29   C36   1.451112 S    
C11   H3    1.107906 S    
H7    C25   1.079754 S    
C20   H6    1.078182 S    
C14   N7    1.457187 S    
C10   C15   1.455153 S    
Cu1   Cu2   2.711705 S    
C28   C29   1.370369 A    
C27   H9    1.060159 S    
Cu1   O7    1.933317 S    
C20   C21   1.412164 A    
C22   C23   1.418444 A    
O7    C4    1.303290 A    
C17   N9    1.437115 S    
C5    C6    1.552621 S    
C34   N2    1.367008 A    
N4    O10   1.301229 A    
C19   C20   1.400028 A    
N9    O15   1.302191 A    
O5    C3    1.299134 A    
C17   C18   1.401104 A    
C7    C15   1.198246 T    
N8    O13   1.300154 A    
C31   N2    1.415363 A    
C12   C16   1.454390 S    
C8    C16   1.198273 T    
C24   C25   1.383525 A    
C1    C23   1.461654 S    
C19   N4    1.436387 S    
N9    O16   1.301819 A    
C9    N8    1.456927 S    
O3    Cu1   1.931543 S    
Cu1   O5    1.969220 S    
C27   C28   1.369781 A    
C5    C9    1.542553 S    
C2    C7    1.422493 S    
C33   C34   1.420858 A    
N7    O11   1.300116 A    
C13   C14   1.542049 S    
O3    C2    1.301425 A    
C23   C24   1.400009 A    
C27   C32   1.406603 A    
C35   N3    1.156996 T    
N1    C33   1.367829 A    
C31   C32   1.443721 A    
N4    O9    1.301409 A    
O1    C1    1.301802 A    
C18   C19   1.397426 A    
C21   C26   1.423371 A    
C21   C22   1.405319 A    
C28   H10   1.084869 S    
Cu2   O8    1.931541 S    
C30   C31   1.464346 A    
H4    C24   1.083460 S    
C6    C35   1.467217 S    
O8    C4    1.299849 A    
C37   N6    1.158644 T    
C11   C13   1.561665 S    
C25   C26   1.397013 A    
C3    C26   1.472319 S    
C32   N1    1.370508 A    
C6    C14   1.531565 S    
C5    H1    1.110301 S    
O1    Cu1   1.960190 S    
C4    C8    1.422866 S    
O2    Cu2   1.969220 S    
C13   H2    1.110099 S    
C9    C11   1.540145 S    
O6    C3    1.315806 A    
Cu2   N1    2.038418 S    
O4    Cu2   1.933319 S    
C17   C22   1.423752 A    
C18   H5    1.082574 S    
O2    C1    1.305897 A    
O4    C2    1.301422 A    
C5    C12   1.548359 S    
C12   C14   1.531647 S    
C30   C37   1.442355 S    
C36   N5    1.156777 T    
H8    C33   1.081655 S    
C9    C10   1.531816 S    
Cu2   O6    1.960190 S    
C29   C30   1.414144 A    
C10   C13   1.548402 S    
C11   C12   1.546465 S    
N8    O14   1.300255 A    
N7    O12   1.299836 A    
Cu1   N2    2.037266 S    
