data_mof_unit_16657.cif
_audit_creation_date              2013-03-05T16:02:16-0500
_audit_creation_method            fapswitch 2.2
_symmetry_space_group_name_H-M    P1
_symmetry_Int_Tables_number       1
_space_group_crystal_system       triclinic
_cell_length_a                    21.602134
_cell_length_b                    6.989909
_cell_length_c                    14.489894
_cell_angle_alpha                 90.055479
_cell_angle_beta                  102.64046
_cell_angle_gamma                 89.976349
_cell_volume                      2134.89876178

loop_
_atom_site_label
_atom_site_type_symbol
_atom_site_description
_atom_site_fract_x
_atom_site_fract_y
_atom_site_fract_z
_atom_type_partial_charge
O1    O     O_R   0.835850 0.638310 0.002120 -0.588441
O2    O     O_R   0.164150 0.361690 0.997880 -0.586673
O3    O     O_R   0.664150 0.138310 0.997880 -0.585796
O4    O     O_R   0.335850 0.861690 0.002120 -0.587437
O5    O     O_R   0.717530 0.306070 0.861970 -0.586748
O6    O     O_R   0.282470 0.693930 0.138030 -0.602346
O7    O     O_R   0.782470 0.806070 0.138030 -0.590537
O8    O     O_R   0.217530 0.193930 0.861970 -0.590378
C1    C     C_R   0.702389 0.475548 0.824875 0.923146
C2    C     C_R   0.297625 0.524350 0.175269 0.916746
C3    C     C_R   0.797122 0.975498 0.175307 0.917576
C4    C     C_R   0.202065 0.023424 0.824720 0.907072
O9    O     O_R   0.838690 0.308440 0.993250 -0.591016
O10   O     O_R   0.161310 0.691560 0.006750 -0.590409
O11   O     O_R   0.661310 0.808440 0.006750 -0.593223
O12   O     O_R   0.338690 0.191560 0.993250 -0.587319
O13   O     O_R   0.786170 0.140510 0.130090 -0.583808
O14   O     O_R   0.213830 0.859490 0.869910 -0.599800
O15   O     O_R   0.713830 0.640510 0.869910 -0.593044
O16   O     O_R   0.286170 0.359490 0.130090 -0.591661
C5    C     C_R   0.863052 0.478924 0.986269 0.950553
C6    C     C_R   0.136961 0.521112 0.013862 0.953664
C7    C     C_R   0.636866 0.978763 0.013251 0.951141
C8    C     C_R   0.363288 0.022572 0.986734 0.953983
O17   O     O_3   0.732630 0.472520 0.044740 -0.276276
O18   O     O_3   0.267370 0.527480 0.955260 -0.276153
O19   O     O_3   0.767370 0.972520 0.955260 -0.277119
O20   O     O_3   0.232630 0.027480 0.044740 -0.278613
V1    V     V_3+5 0.753220 0.196740 0.991700 1.166798
V2    V     V_3+5 0.246780 0.803260 0.008300 1.142189
V3    V     V_3+5 0.746780 0.696740 0.008300 1.162189
V4    V     V_3+5 0.253220 0.303260 0.991700 1.140014
H1    H     H_    0.578530 0.091442 0.334549 0.157009
H2    H     H_    0.425683 0.108229 0.667827 0.144941
H3    H     H_    0.922563 0.599823 0.666011 0.160395
H4    H     H_    0.079426 0.396954 0.331829 0.139628
C9    C     C_R   0.552804 0.992460 0.838136 -0.289258
C10   C     C_R   0.447783 0.028915 0.163062 -0.402719
C11   C     C_R   0.947585 0.457560 0.160616 -0.280150
C12   C     C_R   0.052712 0.568879 0.840544 -0.397666
C13   C     C_R   0.517807 0.028527 0.748365 0.528929
C14   C     C_R   0.484703 0.053561 0.254496 0.534327
C15   C     C_R   0.983804 0.439472 0.250880 0.535377
C16   C     C_R   0.016440 0.581365 0.748591 0.529111
C17   C     C_R   0.452935 0.067530 0.736904 -0.333055
C18   C     C_R   0.549935 0.067692 0.264322 -0.232528
C19   C     C_R   0.049765 0.420417 0.262419 -0.346004
C20   C     C_R   0.950909 0.582522 0.736922 -0.237982
C21   C     C_R   0.424413 0.077152 0.815486 0.233377
C22   C     C_R   0.579047 0.054312 0.186546 0.194052
C23   C     C_R   0.078583 0.428553 0.184100 0.235352
C24   C     C_R   0.921198 0.560107 0.813759 0.211775
C25   C     C_R   0.459915 0.029460 0.908405 0.049836
C26   C     C_R   0.541624 0.020106 0.093089 0.056398
C27   C     C_R   0.041249 0.469955 0.091144 0.049046
C28   C     C_R   0.958582 0.528486 0.907739 0.056600
C29   C     C_R   0.526398 0.999254 0.919332 0.009654
C30   C     C_R   0.474343 0.018719 0.082075 0.072206
C31   C     C_R   0.973967 0.472562 0.079866 0.007838
C32   C     C_R   0.025950 0.536462 0.919934 0.065132
C33   C     C_R   0.433269 0.019309 0.990880 -0.221422
C34   C     C_R   0.567371 0.992636 0.010386 -0.213424
C35   C     C_R   0.067211 0.509027 0.009919 -0.217226
C36   C     C_R   0.932681 0.492060 0.989471 -0.214052
H5    H     H_    0.602748 0.967242 0.842546 0.172680
H6    H     H_    0.397319 0.022791 0.154727 0.134925
H7    H     H_    0.897050 0.465455 0.156294 0.175163
H8    H     H_    0.103009 0.582708 0.849377 0.140402
C37   C     C_R   0.172756 0.016426 0.721567 -0.146411
C38   C     C_R   0.824445 0.974918 0.278556 -0.110209
C39   C     C_R   0.325113 0.523146 0.278709 -0.138475
C40   C     C_R   0.673729 0.475307 0.721997 -0.097521
C41   C     C_R   0.184398 0.027828 0.559605 -0.150267
C42   C     C_R   0.813834 0.899229 0.437218 -0.160113
C43   C     C_R   0.313318 0.588874 0.437649 -0.157015
C44   C     C_R   0.680648 0.386427 0.563663 -0.167504
C45   C     C_R   0.210896 0.026979 0.655670 -0.165618
C46   C     C_R   0.788692 0.902850 0.340444 -0.151503
C47   C     C_R   0.288000 0.582915 0.341051 -0.167461
C48   C     C_R   0.706812 0.390479 0.659972 -0.134350
C49   C     C_R   0.106544 0.999362 0.688380 -0.216975
C50   C     C_R   0.888847 0.017805 0.314508 -0.165843
C51   C     C_R   0.390158 0.487070 0.314777 -0.240847
C52   C     C_R   0.610721 0.535625 0.686652 -0.196473
C53   C     C_R   0.077080 0.009515 0.589707 0.164913
C54   C     C_R   0.918557 0.980250 0.410841 0.146186
C55   C     C_R   0.419528 0.520731 0.411985 0.152532
C56   C     C_R   0.578512 0.497246 0.591188 0.172320
C57   C     C_R   0.118554 0.017802 0.526224 0.083475
C58   C     C_R   0.877785 0.944035 0.472813 0.091481
C59   C     C_R   0.378220 0.556318 0.473433 0.099826
C60   C     C_R   0.617653 0.443494 0.528876 0.105161
C61   C     C_R   0.009254 0.001832 0.550991 -0.019255
C62   C     C_R   0.986102 0.984570 0.449141 -0.064907
C63   C     C_R   0.487107 0.512200 0.451167 -0.029919
C64   C     C_R   0.510666 0.514951 0.553478 -0.077399
C65   C     C_R   0.031507 0.971710 0.390531 0.298553
C66   C     C_R   0.962875 0.010866 0.608288 0.351966
C67   C     C_R   0.464835 0.528842 0.611936 0.294598
C68   C     C_R   0.532707 0.505205 0.392841 0.357202
C69   C     C_R   0.095484 0.002201 0.429422 -0.333979
C70   C     C_R   0.900160 0.959659 0.569756 -0.315889
C71   C     C_R   0.400964 0.559196 0.570520 -0.330789
C72   C     C_R   0.594894 0.451773 0.431857 -0.324125
H9    H     H_    0.128861 0.000859 0.383184 0.163631
H10   H     H_    0.866772 0.948873 0.615709 0.158401
H11   H     H_    0.367454 0.581685 0.615493 0.159087
H12   H     H_    0.627561 0.429558 0.385527 0.157721
H13   H     H_    0.914390 0.079797 0.266068 0.152561
H14   H     H_    0.080584 0.966654 0.741430 0.147303
H15   H     H_    0.589382 0.615432 0.734670 0.137729
H16   H     H_    0.416050 0.430472 0.265497 0.155315
H17   H     H_    0.740839 0.852454 0.314968 0.121919
H18   H     H_    0.261526 0.026393 0.677062 0.121266
H19   H     H_    0.753719 0.331934 0.685206 0.117435
H20   H     H_    0.239165 0.624677 0.315872 0.120491
H21   H     H_    0.215987 0.031644 0.510841 0.116768
H22   H     H_    0.783400 0.858654 0.484331 0.121313
H23   H     H_    0.282258 0.625533 0.484523 0.119949
H24   H     H_    0.709350 0.334258 0.516218 0.120097
O21   O     O_3   0.552380 0.054955 0.678722 -0.634737
C73   C     C_3   0.518052 0.008533 0.587431 0.277718
H25   H     H_    0.489119 0.132471 0.555833 0.134955
H26   H     H_    0.486706 0.884449 0.588596 0.089641
C74   C     C_3   0.564442 0.958253 0.525893 -0.820659
H27   H     H_    0.602944 0.865377 0.564785 0.250280
H28   H     H_    0.539386 0.884221 0.460909 0.242898
H29   H     H_    0.586471 0.088304 0.505005 0.244830
O22   O     O_3   0.460351 0.074248 0.336141 -0.651816
C75   C     C_3   0.395741 0.020767 0.323980 0.291607
H30   H     H_    0.388095 0.873398 0.295630 0.111166
H31   H     H_    0.364313 0.120949 0.275973 0.119580
C76   C     C_3   0.375360 0.027936 0.417771 -0.927490
H32   H     H_    0.383894 0.170659 0.450564 0.257208
H33   H     H_    0.323963 0.995356 0.406600 0.224663
H34   H     H_    0.402322 0.922147 0.466780 0.242273
O23   O     O_3   0.949573 0.435815 0.321997 -0.644268
C77   C     C_3   0.986336 0.456385 0.414026 0.274881
H35   H     H_    0.013508 0.592064 0.422163 0.127265
H36   H     H_    0.019174 0.335340 0.431257 0.095151
C78   C     C_3   0.942451 0.453144 0.483000 -0.815984
H37   H     H_    0.901733 0.355685 0.458111 0.257660
H38   H     H_    0.968531 0.402667 0.552979 0.247802
H39   H     H_    0.923683 0.597463 0.490444 0.241671
O24   O     O_3   0.042284 0.599570 0.668325 -0.652064
C79   C     C_3   0.105435 0.529646 0.681934 0.290688
H40   H     H_    0.110555 0.387631 0.717142 0.102825
H41   H     H_    0.139280 0.631621 0.724631 0.126898
C80   C     C_3   0.124980 0.508970 0.588047 -0.925536
H42   H     H_    0.113649 0.639527 0.544840 0.264441
H43   H     H_    0.176757 0.481027 0.600360 0.226345
H44   H     H_    0.099800 0.387546 0.548780 0.236150
C81   C     C_3   0.360544 0.171509 0.798584 -0.983486
H45   H     H_    0.344676 0.223477 0.724783 0.234413
H46   H     H_    0.325328 0.068149 0.812784 0.216372
H47   H     H_    0.362918 0.300330 0.843924 0.267074
C82   C     C_3   0.649121 0.091714 0.207233 -1.006059
H48   H     H_    0.668695 0.125300 0.282953 0.238865
H49   H     H_    0.673442 0.962154 0.189925 0.217214
H50   H     H_    0.659377 0.217409 0.166446 0.270742
C83   C     C_3   0.148108 0.381432 0.203739 -0.980219
H51   H     H_    0.167312 0.340713 0.278645 0.239865
H52   H     H_    0.156316 0.257206 0.160333 0.268682
H53   H     H_    0.174585 0.508507 0.189244 0.209099
C84   C     C_3   0.850066 0.573167 0.790322 -1.031236
H54   H     H_    0.830571 0.600556 0.713974 0.242467
H55   H     H_    0.830051 0.435606 0.807632 0.223629
H56   H     H_    0.834409 0.694377 0.828976 0.270329
C85   C     C_3   0.017165 0.907302 0.288400 -1.008347
H57   H     H_    0.975035 0.813775 0.271601 0.259765
H58   H     H_    0.011657 0.032343 0.240341 0.256046
H59   H     H_    0.056812 0.820108 0.273360 0.252554
C86   C     C_3   0.973359 0.098245 0.705758 -1.030492
H60   H     H_    0.981676 0.985543 0.760911 0.258958
H61   H     H_    0.012178 0.204178 0.717201 0.246248
H62   H     H_    0.930707 0.179628 0.714053 0.258420
C87   C     C_3   0.478927 0.514683 0.718565 -0.989759
H63   H     H_    0.515205 0.405401 0.745405 0.269563
H64   H     H_    0.492784 0.655761 0.750683 0.238632
H65   H     H_    0.436399 0.471680 0.744677 0.258610
C88   C     C_3   0.521973 0.578432 0.292537 -1.016311
H66   H     H_    0.515477 0.458033 0.241484 0.256984
H67   H     H_    0.481675 0.678792 0.275931 0.246921
H68   H     H_    0.563829 0.661626 0.282533 0.255125

loop_
_geom_bond_atom_site_label_1
_geom_bond_atom_site_label_2
_geom_bond_distance
_ccdc_geom_bond_type
O17   V3    1.703298 S    
C51   C55   1.431855 A    
C4    C37   1.490974 S    
C56   C64   1.453063 A    
O1    C5    1.302796 A    
C84   H54   1.110997 S    
C12   C32   1.414395 A    
C27   C31   1.426713 A    
O19   V1    1.702124 S    
O13   V1    2.014643 S    
C85   H57   1.103701 S    
O3    C7    1.303531 A    
C63   C64   1.458379 A    
C1    C40   1.483755 S    
C68   C72   1.389730 A    
O15   V3    2.014000 S    
C39   C47   1.396142 A    
C83   H51   1.111111 S    
C3    C38   1.483302 S    
C29   C34   1.419591 A    
C86   H60   1.108965 S    
O7    C3    1.310994 A    
C31   C36   1.420771 A    
C22   C26   1.436981 A    
C32   C35   1.422329 A    
C21   C81   1.500100 S    
C67   C87   1.511294 S    
C55   C59   1.413534 A    
C80   H43   1.110639 S    
O16   V4    2.014000 S    
O4    C8    1.313204 A    
C88   H68   1.111166 S    
C38   C46   1.399546 A    
C64   C67   1.440107 A    
O1    V3    1.987884 S    
C65   C85   1.512222 S    
H4    C19   1.080355 S    
O2    V4    1.987886 S    
C14   C18   1.388534 A    
C13   O21   1.393040 S    
O3    V1    1.988248 S    
C41   C45   1.384399 A    
C58   C70   1.386106 A    
C5    C36   1.497520 S    
C54   C62   1.443436 A    
C6    C35   1.497693 S    
C10   C30   1.416284 A    
C53   C61   1.450734 A    
C1    O15   1.320858 A    
C39   C51   1.410540 A    
C10   H6    1.071077 S    
C2    O16   1.321209 A    
C87   H64   1.103180 S    
C27   C35   1.436653 A    
O2    C6    1.303406 A    
C74   H29   1.099252 S    
C28   C36   1.439154 A    
C15   O23   1.393888 S    
O14   V2    2.014643 S    
C81   H46   1.101036 S    
C12   C16   1.392867 A    
C79   H41   1.107700 S    
C43   C59   1.402881 A    
C2    C39   1.486502 S    
C30   C33   1.421366 A    
O11   C7    1.313824 A    
O12   C8    1.306813 A    
C47   H20   1.078299 S    
C69   H9    1.086405 S    
H1    C18   1.081317 S    
C85   H58   1.108077 S    
C84   H55   1.105745 S    
C25   C33   1.437271 A    
O10   V2    2.000515 S    
H3    C20   1.081724 S    
C83   H52   1.108441 S    
O24   C79   1.421513 S    
O5    V1    2.019895 S    
C73   H25   1.107176 S    
C7    C34   1.495812 S    
C22   C82   1.500396 S    
O17   V1    2.156496 S    
C9    C29   1.416128 A    
C42   H22   1.084277 S    
C52   H15   1.071074 S    
O7    V3    2.018759 S    
O19   V3    2.158153 S    
O8    V4    2.018758 S    
C50   H13   1.074779 S    
C56   C60   1.415810 A    
O20   V4    2.158154 S    
C41   H21   1.084763 S    
C67   C71   1.395165 A    
C54   C58   1.411718 A    
C88   H67   1.102697 S    
H2    C17   1.082517 S    
C66   C86   1.509119 S    
C25   C29   1.425677 A    
O18   V4    1.703298 S    
C11   C15   1.375189 A    
C26   C34   1.439961 A    
C62   C65   1.433771 A    
C88   H66   1.108439 S    
C28   C32   1.428188 A    
C82   H48   1.110969 S    
C55   C63   1.447171 A    
C75   H31   1.108617 S    
O5    C1    1.312719 A    
C24   C84   1.502115 S    
C76   H34   1.099978 S    
C79   C80   1.516859 S    
C65   C69   1.390018 A    
C48   H19   1.079686 S    
C17   C21   1.409784 A    
O8    C4    1.320431 A    
C87   H65   1.109103 S    
C11   C31   1.413142 A    
C16   O24   1.401803 S    
C43   H23   1.084506 S    
C61   C62   1.455792 A    
C44   H24   1.084408 S    
C81   H47   1.108693 S    
O11   V3    1.999937 S    
C68   C88   1.510610 S    
O10   C6    1.315764 A    
O21   C73   1.405365 S    
C40   C52   1.409790 A    
C86   H61   1.103826 S    
C77   H36   1.097186 S    
C44   C60   1.401701 A    
C8    C33   1.499905 S    
C9    H5    1.081148 S    
C84   H56   1.108008 S    
O6    V2    2.019896 S    
O18   V2    2.156495 S    
C82   H50   1.108494 S    
C12   H8    1.070254 S    
C74   H27   1.107229 S    
C85   H59   1.110606 S    
C80   H44   1.097257 S    
C46   H17   1.077949 S    
C44   C48   1.386526 A    
C73   H26   1.102995 S    
C45   H18   1.069549 S    
C72   H12   1.086182 S    
C83   H53   1.101625 S    
C76   H33   1.110088 S    
C79   H40   1.110896 S    
C26   C30   1.427039 A    
C86   H62   1.111246 S    
O9    V1    2.000517 S    
C3    O13   1.322503 A    
C53   C57   1.418803 A    
C57   C69   1.386180 A    
C63   C68   1.432214 A    
C11   H7    1.081093 S    
C52   C56   1.430986 A    
C59   C71   1.385015 A    
C77   C78   1.520797 S    
O6    C2    1.314148 A    
C19   C23   1.409949 A    
C10   C14   1.399378 A    
C78   H39   1.101018 S    
O12   V4    1.999939 S    
O23   C77   1.402073 S    
C18   C22   1.408630 A    
C42   C58   1.400284 A    
C73   C74   1.520857 S    
C78   H38   1.104786 S    
C75   H30   1.107590 S    
O22   C75   1.418273 S    
C41   C57   1.400333 A    
C40   C48   1.396328 A    
C66   C70   1.394365 A    
C78   H37   1.108615 S    
O9    C5    1.315796 A    
C50   C54   1.427484 A    
C37   C45   1.393030 A    
C76   H32   1.102682 S    
C43   C47   1.387389 A    
C21   C25   1.435546 A    
O20   V2    1.702125 S    
C23   C83   1.502619 S    
C14   O22   1.403262 S    
C23   C27   1.439974 A    
C9    C13   1.377392 A    
C38   C50   1.406978 A    
O4    V2    1.988246 S    
C37   C49   1.410759 A    
C77   H35   1.108074 S    
C60   C72   1.385266 A    
C75   C76   1.518223 S    
C16   C20   1.388481 A    
C20   C24   1.410406 A    
C49   H14   1.070870 S    
C82   H49   1.102680 S    
C87   H63   1.102544 S    
C42   C46   1.388768 A    
C70   H10   1.086087 S    
C4    O14   1.317112 A    
C74   H28   1.106161 S    
C13   C17   1.401318 A    
C51   H16   1.073937 S    
C71   H11   1.086071 S    
C81   H45   1.110501 S    
C80   H42   1.103867 S    
C15   C19   1.404156 A    
C61   C66   1.435596 A    
C49   C53   1.433967 A    
C24   C28   1.440325 A    
