data_mof_unit_41966.cif
_audit_creation_date              2012-12-10T18:11:41-0500
_audit_creation_method            fapswitch 2.2
_symmetry_space_group_name_H-M    P1
_symmetry_Int_Tables_number       1
_space_group_crystal_system       triclinic
_cell_length_a                    10.505492
_cell_length_b                    12.641102
_cell_length_c                    13.135295
_cell_angle_alpha                 82.303614
_cell_angle_beta                  90.227728
_cell_angle_gamma                 102.819411
_cell_volume                      1684.97980538

loop_
_atom_site_label
_atom_site_type_symbol
_atom_type_description
_atom_site_fract_x
_atom_site_fract_y
_atom_site_fract_z
_atom_type_partial_charge
C1    C     C_R   0.480126 0.438760 0.691161 0.925654
C2    C     C_3   0.064136 0.579783 0.427026 -0.261511
C3    C     C_3   0.986923 0.598786 0.520322 -0.092283
C4    C     C_3   0.877859 0.502605 0.499083 -0.075391
C5    C     C_R   0.404879 0.698928 0.065653 -0.142018
C6    C     C_R   0.502836 0.596816 0.200310 -0.039175
C7    C     C_R   0.503004 0.301932 0.837750 -0.175406
C8    C     C_R   0.518655 0.274828 0.942137 -0.133660
C9    C     C_R   0.505814 0.348078 0.009436 -0.147518
C10   C     C_R   0.469822 0.448017 0.973371 0.016554
C11   C     C_R   0.433235 0.466331 0.870244 -0.049444
C12   C     C_R   0.742316 0.501184 0.499539 0.890102
C13   C     C_R   0.467861 0.529948 0.036424 0.073831
C14   C     C_R   0.411248 0.619874 0.001450 0.074088
C15   C     C_R   0.357910 0.627572 0.904407 -0.310699
C16   C     C_R   0.367377 0.551415 0.839564 0.605290
C17   C     C_R   0.521587 0.525176 0.133454 -0.216027
C18   C     C_R   0.448456 0.686293 0.165887 -0.198591
C19   C     C_R   0.465143 0.399405 0.800881 -0.097290
C20   C     C_R   0.328484 0.089336 0.342738 -0.294176
C21   C     C_R   0.655953 0.798943 0.628079 -0.094246
C22   C     C_R   0.694398 0.904141 0.653174 0.569374
C23   C     C_R   0.513449 0.561080 0.308863 0.828368
C24   C     C_R   0.638766 0.986586 0.603779 -0.224995
C25   C     C_R   0.541381 0.963728 0.529865 -0.054201
C26   C     C_R   0.509475 0.855357 0.504619 0.211187
C27   C     C_R   0.477067 0.043122 0.477923 -0.089748
C28   C     C_R   0.389751 0.013046 0.397949 0.120896
C29   C     C_R   0.363412 0.906887 0.373567 -0.247561
C30   C     C_R   0.421365 0.829192 0.426914 -0.158272
C31   C     C_R   0.492994 0.151130 0.501226 0.699112
C32   C     C_R   0.352783 0.194915 0.366934 -0.062491
C33   C     C_R   0.257615 0.499047 0.499759 0.914298
C34   C     C_3   0.935142 0.420652 0.571153 -0.244992
C35   C     C_3   0.046957 0.516842 0.592256 -0.209699
C36   C     C_3   0.121949 0.498007 0.499084 -0.090832
C37   C     C_3   0.012097 0.403441 0.478021 0.723859
C38   C     C_3   0.952085 0.483742 0.405486 -0.251216
H1    H     H_    0.087184 0.530131 0.668756 0.230179
H2    H     H_    0.573593 0.462892 0.161256 0.141570
H3    H     H_    0.525250 0.248636 0.785545 0.203236
H4    H     H_    0.521291 0.323005 0.089417 0.131629
H5    H     H_    0.546787 0.199079 0.970506 0.154073
H6    H     H_    0.307597 0.255536 0.324301 0.179635
H7    H     H_    0.296721 0.883377 0.313104 0.144013
H8    H     H_    0.262900 0.067556 0.281191 0.169371
H9    H     H_    0.699445 0.734514 0.665525 0.167489
H10   H     H_    0.878427 0.355525 0.629272 0.183098
H11   H     H_    0.677946 0.066851 0.623416 0.249846
H12   H     H_    0.396846 0.749206 0.404593 0.193414
H13   H     H_    0.908982 0.469685 0.329809 0.155337
H14   H     H_    0.121181 0.644419 0.368637 0.154211
H15   H     H_    0.972734 0.679044 0.537671 0.170685
H16   H     H_    0.433025 0.742404 0.217574 0.141815
H17   H     H_    0.308554 0.692691 0.878513 0.181941
H18   H     H_    0.360724 0.767305 0.039996 0.141803
N1    N     N_R   0.432930 0.222190 0.444670 -0.142289
N2    N     N_R   0.566370 0.776980 0.554790 -0.156820
O1    O     O_R   0.467970 0.366730 0.627150 -0.569153
O2    O     O_R   0.510820 0.544830 0.662520 -0.579017
O3    O     O_R   0.664630 0.410960 0.482340 -0.573688
O4    O     O_R   0.707470 0.589060 0.517710 -0.634916
O5    O     O_R   0.489180 0.455170 0.337480 -0.628865
O6    O     O_R   0.532030 0.633270 0.372850 -0.641394
O7    O     O_R   0.292530 0.410940 0.482290 -0.581989
O8    O     O_R   0.335370 0.589040 0.517660 -0.598528
Zn1   Zn    Zn3+2 0.471390 0.381080 0.476380 1.026923
Zn2   Zn    Zn3+2 0.528610 0.618920 0.523620 0.968406
F1    F     F_    0.304354 0.557586 0.749458 -0.687081
F2    F     F_    0.562841 0.187855 0.580981 -0.690636
F3    F     F_    0.787096 0.926771 0.724126 -0.647033
F4    F     F_    0.028526 0.303138 0.456370 -0.648439

loop_
_geom_bond_atom_site_label_1
_geom_bond_atom_site_label_2
_ccdc_geom_bond_type
O8    Zn2   S    
C34   C37   S    
C5    H18   S    
C35   C36   S    
C8    H5    S    
C33   O7    A    
C7    C8    A    
C11   C19   A    
C9    H4    S    
C29   C30   A    
O6    Zn2   S    
C36   C37   S    
C1    O1    A    
C15   C16   A    
C33   C36   S    
C34   C35   S    
C2    C38   S    
O1    Zn1   S    
C31   F2    S    
C8    C9    A    
O7    Zn1   S    
C4    C12   S    
C9    C10   A    
C23   O5    A    
C30   H12   S    
C21   C22   A    
C32   N1    A    
N1    Zn1   S    
C33   O8    A    
C4    C34   S    
C6    C18   A    
O5    Zn1   S    
C1    C19   S    
C27   C31   A    
C24   C25   A    
C1    O2    A    
C5    C18   A    
C20   C28   A    
C25   C26   A    
C29   H7    S    
C17   H2    S    
C15   H17   S    
C35   H1    S    
C37   C38   S    
C12   O4    A    
C11   C16   A    
O3    Zn1   S    
C3    C35   S    
C32   H6    S    
C26   N2    A    
C5    C14   A    
C2    H14   S    
N2    Zn2   S    
C23   O6    A    
C4    C38   S    
C26   C30   A    
C7    C19   A    
C22   C24   A    
C34   H10   S    
C3    C4    S    
C22   F3    S    
C20   C32   A    
C2    C36   S    
C24   H11   S    
C6    C17   A    
C28   C29   A    
C16   F1    S    
C10   C13   A    
C38   H13   S    
O4    Zn2   S    
C25   C27   A    
C13   C17   A    
C31   N1    A    
C2    C3    S    
C21   N2    A    
C12   O3    A    
C3    H15   S    
C6    C23   S    
C7    H3    S    
C10   C11   A    
C18   H16   S    
O2    Zn2   S    
C37   F4    S    
C27   C28   A    
C14   C15   A    
C13   C14   A    
C20   H8    S    
C21   H9    S    
