data_mof_unit_10078.cif
_audit_creation_date              2012-12-10T17:08:11-0500
_audit_creation_method            fapswitch 2.2
_symmetry_space_group_name_H-M    P1
_symmetry_Int_Tables_number       1
_space_group_crystal_system       triclinic
_cell_length_a                    23.49332
_cell_length_b                    11.05069
_cell_length_c                    9.803147
_cell_angle_alpha                 111.499794
_cell_angle_beta                  98.084447
_cell_angle_gamma                 91.087926
_cell_volume                      2337.5639331

loop_
_atom_site_label
_atom_site_type_symbol
_atom_type_description
_atom_site_fract_x
_atom_site_fract_y
_atom_site_fract_z
_atom_type_partial_charge
C1    C     C_R   0.494060 0.254162 0.440146 0.832170
C2    C     C_R   0.505762 0.745868 0.559895 0.833968
C3    C     C_R   0.226119 0.521895 0.414120 0.161151
C4    C     C_R   0.757969 0.463961 0.374159 0.167137
C5    C     C_R   0.285503 0.521890 0.395852 0.105807
C6    C     C_R   0.697505 0.437318 0.366574 0.084452
C7    C     C_R   0.327595 0.503743 0.506683 -0.094771
C8    C     C_R   0.672195 0.499222 0.496998 -0.081734
C9    C     C_R   0.309611 0.487196 0.629870 -0.268719
C10   C     C_R   0.707875 0.564758 0.633328 -0.269571
C11   C     C_R   0.252229 0.488868 0.647080 -0.139847
C12   C     C_R   0.767135 0.569496 0.643562 -0.152623
C13   C     C_R   0.210619 0.506261 0.541621 0.324894
C14   C     C_R   0.792700 0.520215 0.516266 0.340842
C15   C     C_2   0.496513 0.115582 0.405678 -0.377728
C16   C     C_2   0.503269 0.884494 0.594483 -0.375802
C17   C     C_2   0.485287 0.060254 0.501477 0.189073
C18   C     C_2   0.514246 0.939676 0.498485 0.189586
C19   C     C_2   0.504978 0.510706 0.081556 -0.079020
C20   C     C_2   0.495081 0.489153 0.918426 -0.070027
C21   C     C_R   0.390624 0.501948 0.501471 0.807612
C22   C     C_R   0.609173 0.498095 0.498002 0.810486
C23   C     C_R   0.887710 0.636070 0.592662 0.503772
C24   C     C_R   0.119234 0.390809 0.519002 0.524341
C25   C     C_R   0.878789 0.403625 0.502704 0.530396
C26   C     C_R   0.128881 0.623333 0.626046 0.520542
C27   C     C_R   0.938705 0.399208 0.516051 -0.053872
C28   C     C_R   0.069655 0.627841 0.630250 -0.058241
C29   C     C_R   0.974010 0.516311 0.570102 -0.034268
C30   C     C_R   0.034313 0.510705 0.576174 -0.035195
C31   C     C_R   0.948925 0.638400 0.616159 -0.069804
C32   C     C_R   0.059239 0.388533 0.526172 -0.072747
C33   C     C_R   0.963317 0.279190 0.476442 -0.155562
C34   C     C_R   0.045589 0.747814 0.684827 -0.157781
C35   C     C_R   0.023163 0.270578 0.482811 0.122656
C36   C     C_R   0.985836 0.756405 0.681723 0.126334
Cu1   Cu    Cu3+1 0.509980 0.521810 0.644910 0.935275
Cu2   Cu    Cu3+1 0.490020 0.478190 0.355090 0.927009
N1    N     N_R   0.854606 0.520099 0.534630 -0.442961
N2    N     N_R   0.151606 0.506721 0.564713 -0.450264
N3    N     N_2   0.475010 0.445410 0.137370 -0.281705
N4    N     N_2   0.524990 0.554590 0.862630 -0.281512
O1    O     O_R   0.505330 0.332340 0.577400 -0.573569
O2    O     O_R   0.494670 0.667660 0.422600 -0.576075
O3    O     O_R   0.488470 0.295500 0.332650 -0.566202
O4    O     O_R   0.511530 0.704500 0.667350 -0.566247
O5    O     O_R   0.426310 0.518390 0.622390 -0.581450
O6    O     O_R   0.573690 0.481610 0.377610 -0.581741
O7    O     O_R   0.409450 0.481550 0.377650 -0.571319
O8    O     O_R   0.590550 0.518450 0.622350 -0.573065
O9    O     O_2   0.860827 0.747354 0.622365 -0.574645
O10   O     O_2   0.145327 0.279645 0.463132 -0.576084
O11   O     O_2   0.844614 0.291982 0.457515 -0.561169
O12   O     O_2   0.163477 0.734813 0.677966 -0.551338
H1    H     H_    0.934876 0.191510 0.438093 0.202815
H2    H     H_    0.074245 0.835410 0.727975 0.203012
H3    H     H_    0.556146 0.623926 0.935309 0.188436
H4    H     H_    0.443745 0.376324 0.064772 0.187789
C37   C     C_3   0.048014 0.137139 0.445092 -0.320776
C38   C     C_3   0.006346 0.021249 0.424737 -0.900457
H5    H     H_    0.984615 0.041676 0.523517 0.263031
H6    H     H_    0.973849 0.998585 0.323135 0.258614
H7    H     H_    0.030809 0.933668 0.411534 0.259218
H8    H     H_    0.066379 0.113149 0.340656 0.242408
H9    H     H_    0.082844 0.143126 0.537196 0.239012
C39   C     C_3   0.962067 0.889914 0.749013 -0.321364
C40   C     C_3   0.006100 0.005865 0.837904 -0.902496
H10   H     H_    0.033483 0.986611 0.928701 0.264471
H11   H     H_    0.033344 0.027171 0.764373 0.258344
H12   H     H_    0.982937 0.093988 0.888771 0.258330
H13   H     H_    0.936903 0.913630 0.658527 0.242580
H14   H     H_    0.933158 0.884194 0.827327 0.239679
C41   C     C_3   0.178746 0.538157 0.299932 -0.405360
C42   C     C_3   0.160942 0.409187 0.169183 -0.820225
H15   H     H_    0.198503 0.366078 0.117142 0.246815
H16   H     H_    0.140615 0.338272 0.207292 0.279083
H17   H     H_    0.129084 0.425879 0.084064 0.242409
H18   H     H_    0.139475 0.573161 0.348002 0.212105
H19   H     H_    0.191918 0.615724 0.261638 0.205496
C43   C     C_3   0.785998 0.441285 0.235907 -0.422260
C44   C     C_3   0.809646 0.569365 0.231114 -0.804804
H20   H     H_    0.776335 0.641270 0.249870 0.257634
H21   H     H_    0.848657 0.611164 0.314909 0.269938
H22   H     H_    0.822006 0.551244 0.120383 0.236094
H23   H     H_    0.821064 0.374749 0.230921 0.231478
H24   H     H_    0.755900 0.396876 0.130980 0.196846
C45   C     C_3   0.303436 0.545766 0.263108 -0.390804
C46   C     C_3   0.331996 0.683252 0.309095 -0.785614
H25   H     H_    0.301001 0.756651 0.354243 0.246347
H26   H     H_    0.370702 0.700965 0.394668 0.256151
H27   H     H_    0.345338 0.696480 0.210877 0.241265
H28   H     H_    0.331210 0.470452 0.204639 0.220503
H29   H     H_    0.267127 0.534364 0.173750 0.200961
C47   C     C_3   0.661836 0.333914 0.228781 -0.387732
C48   C     C_3   0.639355 0.218326 0.262080 -0.792182
H30   H     H_    0.675982 0.173917 0.306121 0.258483
H31   H     H_    0.609201 0.247495 0.343546 0.239781
H32   H     H_    0.615933 0.143132 0.158308 0.234291
H33   H     H_    0.625967 0.377157 0.180845 0.223472
H34   H     H_    0.686647 0.288698 0.138139 0.194339
H35   H     H_    0.340261 0.472178 0.714635 0.167804
H36   H     H_    0.689935 0.610190 0.734479 0.175548
H37   H     H_    0.239781 0.476187 0.743586 0.146696
H38   H     H_    0.793655 0.613553 0.751709 0.157174
C49   C     C_3   0.559879 0.885796 0.398070 -0.393383
C50   C     C_3   0.615421 0.975723 0.451947 -0.841544
H39   H     H_    0.607773 0.075678 0.456918 0.252460
H40   H     H_    0.634706 0.981480 0.564533 0.260633
H41   H     H_    0.646884 0.935782 0.375150 0.245477
H42   H     H_    0.573448 0.790157 0.397277 0.210255
H43   H     H_    0.542639 0.868942 0.280722 0.187412
C51   C     C_3   0.440109 0.115231 0.603104 -0.388892
C52   C     C_3   0.384668 0.025152 0.553500 -0.846637
H44   H     H_    0.367415 0.006549 0.435547 0.262101
H45   H     H_    0.391685 0.930725 0.565868 0.248312
H46   H     H_    0.351749 0.072546 0.622564 0.248804
H47   H     H_    0.458085 0.134256 0.720609 0.187581
H48   H     H_    0.426093 0.209876 0.601456 0.208892
H49   H     H_    0.483194 0.935680 0.690391 0.141597
H50   H     H_    0.517134 0.064988 0.310611 0.141438
H51   H     H_    0.461682 0.416163 0.844872 0.148825
H52   H     H_    0.538437 0.583541 0.155085 0.151446

loop_
_geom_bond_atom_site_label_1
_geom_bond_atom_site_label_2
_ccdc_geom_bond_type
C24   O10   S    
C22   O6    A    
C49   H42   S    
C19   H52   S    
C34   H2    S    
C27   C29   A    
C41   C42   S    
C19   C20   S    
C45   C46   S    
C1    O3    A    
C21   O7    A    
C44   H20   S    
C48   H32   S    
Cu2   O7    S    
C27   C33   A    
C37   H8    S    
C43   H23   S    
C42   H16   S    
C38   H7    S    
C35   C37   S    
C25   O11   S    
N3    H4    S    
C4    C43   S    
C51   H47   S    
C36   C39   S    
C50   H39   S    
C15   H50   S    
C38   H6    S    
Cu1   N4    S    
Cu2   O3    S    
C43   H24   S    
C24   N2    A    
C14   N1    S    
C1    O1    A    
C39   H14   S    
C48   H30   S    
C2    O2    A    
C6    C47   S    
C42   H17   S    
C8    C22   S    
C41   H18   S    
C1    C15   S    
Cu1   O5    S    
C29   C30   A    
C2    C16   S    
Cu2   O6    S    
C3    C13   A    
C22   O8    A    
C52   H46   S    
C39   C40   S    
C49   H43   S    
C28   C34   A    
C37   C38   S    
C9    H35   S    
C45   H28   S    
C26   O12   S    
N4    H3    S    
C51   C52   S    
C44   H21   S    
C42   H15   S    
C40   H10   S    
C32   C35   A    
C10   H36   S    
Cu2   N3    S    
C4    C6    A    
C16   H49   S    
C5    C7    A    
C6    C8    A    
C7    C21   S    
C2    O4    A    
C38   H5    S    
C40   H11   S    
C23   C31   A    
Cu1   O1    S    
C24   C32   A    
Cu2   O2    S    
Cu1   Cu2   S    
C51   H48   S    
C23   O9    S    
C39   H13   S    
C46   H27   S    
C47   H34   S    
C17   C18   S    
C41   H19   S    
C33   H1    S    
C9    C11   A    
C20   H51   S    
C10   C12   A    
C8    C10   A    
C46   H26   S    
C13   N2    S    
C17   C51   S    
C44   H22   S    
C52   H44   S    
C15   C17   D    
C12   C14   A    
C43   C44   S    
C3    C5    A    
C20   N4    D    
C48   H31   S    
C12   H38   S    
C25   C27   A    
C49   C50   S    
C26   C28   A    
C40   H12   S    
C28   C30   A    
C18   C49   S    
C29   C31   A    
C37   H9    S    
C30   C32   A    
Cu1   O8    S    
C11   C13   A    
C26   N2    A    
C50   H40   S    
C47   H33   S    
C23   N1    A    
C45   H29   S    
C33   C35   A    
C34   C36   A    
C4    C14   A    
C47   C48   S    
C3    C41   S    
C5    C45   S    
C7    C9    A    
C46   H25   S    
C16   C18   D    
C31   C36   A    
C11   H37   S    
C52   H45   S    
Cu1   O4    S    
C25   N1    A    
C19   N3    D    
C21   O5    A    
C50   H41   S    
