data_mof_unit_55935.cif
_audit_creation_date              2012-10-26T19:54:50-0400
_audit_creation_method            fapswitch 2.2
_symmetry_space_group_name_H-M    P1
_symmetry_Int_Tables_number       1
_space_group_crystal_system       triclinic
_cell_length_a                    17.724661
_cell_length_b                    16.4043
_cell_length_c                    10.837209
_cell_angle_alpha                 89.684368
_cell_angle_beta                  90.496065
_cell_angle_gamma                 90.078037
_cell_volume                      3150.86537008

loop_
_atom_site_label
_atom_site_type_symbol
_atom_type_description
_atom_site_fract_x
_atom_site_fract_y
_atom_site_fract_z
_atom_type_partial_charge
C1    C     C_R   0.355177 0.499949 0.499771 0.559123
C2    C     C_R   0.563607 0.170895 0.539628 -0.152842
C3    C     C_R   0.562717 0.743294 0.537664 0.035189
C4    C     C_R   0.439690 0.256865 0.452705 0.040937
C5    C     C_R   0.437963 0.743445 0.459460 0.029975
C6    C     C_R   0.561571 0.256678 0.542464 0.023378
C7    C     C_R   0.501182 0.873318 0.495160 0.021161
C8    C     C_R   0.501546 0.126880 0.494262 0.022015
C9    C     C_1   0.501564 0.962820 0.494073 -0.037795
C10   C     C_1   0.501707 0.037385 0.493776 -0.036499
C11   C     C_R   0.503688 0.500410 0.260764 0.540689
C12   C     C_R   0.644806 0.500009 0.499647 0.533105
C13   C     C_R   0.513877 0.499900 0.735885 0.547771
C14   C     C_R   0.479563 0.648901 0.103423 -0.093956
C15   C     C_R   0.576498 0.356272 0.879710 -0.102200
C16   C     C_R   0.551368 0.650917 0.878089 -0.082420
C17   C     C_R   0.581571 0.365927 0.134101 -0.099887
C18   C     C_R   0.495936 0.724343 0.047636 0.017763
C19   C     C_R   0.595514 0.286469 0.948715 0.017712
C20   C     C_R   0.538213 0.725232 0.937557 0.023039
C21   C     C_R   0.599354 0.291999 0.078283 0.013333
C22   C     C_R   0.531184 0.575723 0.932800 -0.006443
C23   C     C_R   0.885505 0.499503 0.497074 0.039909
C24   C     C_R   0.549630 0.431918 0.067097 -0.008018
C25   C     C_R   0.508296 0.574978 0.055907 -0.009857
C26   C     C_R   0.551688 0.428985 0.936812 -0.008381
C27   C     C_R   0.534186 0.500944 0.868856 -0.039172
C28   C     C_R   0.517613 0.501626 0.126010 -0.029200
C29   C     C_R   0.846610 0.573230 0.506397 -0.115104
C30   C     C_R   0.153582 0.425683 0.497682 -0.114323
C31   C     C_R   0.153531 0.573481 0.497959 -0.114558
C32   C     C_R   0.845982 0.425953 0.488371 -0.116519
C33   C     C_R   0.767977 0.573524 0.507148 -0.133676
C34   C     C_R   0.114340 0.499507 0.497430 0.039426
C35   C     C_R   0.232234 0.425733 0.498493 -0.131845
C36   C     C_R   0.232183 0.573733 0.498769 -0.133501
C37   C     C_R   0.767349 0.426034 0.489231 -0.140132
C38   C     C_R   0.727687 0.499881 0.498745 0.012102
C39   C     C_R   0.272224 0.499809 0.499078 0.011226
C40   C     C_3   0.623393 0.221757 0.161196 -0.261489
C41   C     C_3   0.707398 0.228055 0.194449 -0.301104
C42   C     C_3   0.731443 0.159052 0.281103 -0.457581
C43   C     C_3   0.569762 0.802679 0.880375 -0.264722
C44   C     C_3   0.656411 0.800207 0.876923 -0.301015
C45   C     C_1   0.966091 0.499353 0.496875 -0.034923
C46   C     C_3   0.689790 0.883418 0.845149 -0.460788
C47   C     C_3   0.612790 0.207924 0.881914 -0.256229
C48   C     C_3   0.541919 0.153973 0.874672 -0.287978
C49   C     C_3   0.561478 0.065730 0.845043 -0.457113
C50   C     C_3   0.470267 0.801557 0.110846 -0.255640
C51   C     C_3   0.405575 0.842860 0.039394 -0.301765
C52   C     C_3   0.385066 0.924371 0.097341 -0.456869
C53   C     C_1   0.033748 0.499368 0.496993 -0.034636
C54   C     C_R   0.564699 0.829146 0.534438 -0.152083
C55   C     C_R   0.439145 0.170984 0.449920 -0.147315
C56   C     C_R   0.437187 0.829365 0.457570 -0.151592
Cu1   Cu    Cu3+1 0.500000 0.580420 0.500000 0.923512
Cu2   Cu    Cu3+1 0.500000 0.419580 0.500000 0.915028
H1    H     H_    0.443405 0.649576 0.182808 0.136473
H2    H     H_    0.261620 0.367892 0.498675 0.116424
H3    H     H_    0.261522 0.631682 0.499188 0.114589
H4    H     H_    0.737722 0.368424 0.482170 0.111801
H5    H     H_    0.615399 0.860723 0.563512 0.090368
H6    H     H_    0.390355 0.139341 0.412929 0.092439
H7    H     H_    0.387105 0.861131 0.425685 0.088894
H8    H     H_    0.613430 0.139312 0.572836 0.085114
H9    H     H_    0.611917 0.710828 0.570688 0.108479
H10   H     H_    0.391572 0.289659 0.416080 0.120558
H11   H     H_    0.388623 0.711031 0.427067 0.111918
H12   H     H_    0.584568 0.352920 0.781635 0.136634
H13   H     H_    0.609921 0.289199 0.578382 0.106631
H14   H     H_    0.699289 0.161924 0.368474 0.151047
H15   H     H_    0.721510 0.099050 0.236752 0.150258
H16   H     H_    0.792494 0.164946 0.303129 0.137892
H17   H     H_    0.741586 0.225200 0.109076 0.160041
H18   H     H_    0.718988 0.287220 0.240547 0.159795
H19   H     H_    0.589527 0.222979 0.247189 0.153873
H20   H     H_    0.611282 0.161860 0.118419 0.143996
H21   H     H_    0.664054 0.908095 0.759059 0.148259
H22   H     H_    0.679997 0.926599 0.921803 0.144811
H23   H     H_    0.581692 0.651930 0.791909 0.125552
H24   H     H_    0.751584 0.877570 0.831875 0.140370
H25   H     H_    0.679080 0.780670 0.968414 0.170874
H26   H     H_    0.675082 0.755594 0.806730 0.144503
H27   H     H_    0.546809 0.809247 0.785372 0.146135
H28   H     H_    0.552549 0.858033 0.930605 0.146626
H29   H     H_    0.595591 0.062165 0.759925 0.154708
H30   H     H_    0.593726 0.038428 0.923108 0.138597
H31   H     H_    0.508848 0.029972 0.831368 0.147577
H32   H     H_    0.511265 0.154620 0.963757 0.160890
H33   H     H_    0.503221 0.178408 0.802190 0.176746
H34   H     H_    0.596209 0.370794 0.230434 0.154193
H35   H     H_    0.632574 0.220921 0.786848 0.114916
H36   H     H_    0.660263 0.175474 0.928102 0.140875
H37   H     H_    0.367566 0.915377 0.194652 0.149573
H38   H     H_    0.434101 0.966598 0.094510 0.151439
H39   H     H_    0.337542 0.952436 0.045034 0.141280
H40   H     H_    0.421198 0.853638 0.941658 0.162608
H41   H     H_    0.355212 0.802386 0.040313 0.161976
H42   H     H_    0.449795 0.787377 0.205030 0.139567
H43   H     H_    0.518755 0.843637 0.124161 0.143201
H44   H     H_    0.877048 0.630387 0.513200 0.104784
H45   H     H_    0.123409 0.368186 0.497313 0.105509
H46   H     H_    0.123316 0.630865 0.497811 0.105392
H47   H     H_    0.875915 0.368653 0.481007 0.104431
H48   H     H_    0.738849 0.631250 0.514632 0.111896
N1    N     N_R   0.500000 0.701220 0.500000 -0.213392
N2    N     N_R   0.500000 0.298780 0.500000 -0.218429
O1    O     O_R   0.391260 0.567930 0.500000 -0.507559
O2    O     O_R   0.608740 0.432070 0.500000 -0.528142
O3    O     O_R   0.608740 0.567930 0.500000 -0.516502
O4    O     O_R   0.391260 0.432070 0.500000 -0.502952
O5    O     O_R   0.500000 0.567910 0.319660 -0.503811
O6    O     O_R   0.500000 0.432090 0.680340 -0.498388
O7    O     O_R   0.500000 0.567910 0.680340 -0.495429
O8    O     O_R   0.500000 0.432090 0.319660 -0.507128

loop_
_geom_bond_atom_site_label_1
_geom_bond_atom_site_label_2
_ccdc_geom_bond_type
C23   C45   S    
C41   C42   S    
C49   H29   S    
C5    C56   A    
C44   H25   S    
C12   O2    A    
C37   H4    S    
Cu1   O7    S    
C25   C28   A    
C15   C19   A    
C14   H1    S    
C4    N2    A    
C26   C27   A    
C30   C35   A    
Cu2   O4    S    
C23   C29   A    
C19   C21   A    
C24   C26   A    
C1    O4    A    
C46   H21   S    
C3    C54   A    
C19   C47   S    
C54   H5    S    
C56   H7    S    
C29   C33   A    
C52   H39   S    
C52   H37   S    
C14   C18   A    
C5    H11   S    
C1    O1    A    
C46   H24   S    
Cu1   O1    S    
C48   H33   S    
C30   H45   S    
C9    C10   T    
Cu2   N2    S    
C13   O6    A    
C51   H40   S    
C45   C53   T    
C48   H32   S    
Cu2   O8    S    
C49   H30   S    
C2    C6    A    
C17   H34   S    
C7    C56   A    
C8    C55   A    
C44   C46   S    
C51   H41   S    
C6    H13   S    
C2    C8    A    
C42   H16   S    
C17   C24   A    
C30   C34   A    
C51   C52   S    
C43   H27   S    
C4    H10   S    
C15   C26   A    
Cu1   O5    S    
C2    H8    S    
C22   C25   A    
C17   C21   A    
C35   H2    S    
C35   C39   A    
C43   C44   S    
C37   C38   A    
C41   H17   S    
C47   C48   S    
C16   C20   A    
C55   H6    S    
C42   H14   S    
C50   C51   S    
C47   H35   S    
C31   C34   A    
C32   C37   A    
C11   O8    A    
C13   O7    A    
C50   H43   S    
C48   C49   S    
Cu1   N1    S    
C32   H47   S    
C4    C55   A    
C40   H20   S    
C36   H3    S    
C20   C43   S    
C18   C50   S    
C5    N1    A    
C7    C9    S    
C15   H12   S    
C40   C41   S    
C42   H15   S    
C16   C22   A    
Cu2   O2    S    
C43   H28   S    
C36   C39   A    
C3    H9    S    
C33   H48   S    
C24   C28   A    
C49   H31   S    
C44   H26   S    
C50   H42   S    
C33   C38   A    
C22   C27   A    
C3    N1    A    
C23   C32   A    
C31   H46   S    
C41   H18   S    
C46   H22   S    
Cu1   Cu2   S    
Cu1   O3    S    
C21   C40   S    
C11   C28   S    
C16   H23   S    
C47   H36   S    
C29   H44   S    
C52   H38   S    
C18   C20   A    
C40   H19   S    
C14   C25   A    
C12   C38   S    
C11   O5    A    
C1    C39   S    
C34   C53   S    
C8    C10   S    
Cu2   O6    S    
C6    N2    A    
C31   C36   A    
C13   C27   S    
C7    C54   A    
C12   O3    A    
