data_mof_unit_44548.cif
_audit_creation_date              2012-12-10T19:07:39-0500
_audit_creation_method            fapswitch 2.2
_symmetry_space_group_name_H-M    P1
_symmetry_Int_Tables_number       1
_space_group_crystal_system       triclinic
_cell_length_a                    10.780205
_cell_length_b                    10.808678
_cell_length_c                    9.615407
_cell_angle_alpha                 89.811787
_cell_angle_beta                  89.405421
_cell_angle_gamma                 90.321184
_cell_volume                      1120.30077009

loop_
_atom_site_label
_atom_site_type_symbol
_atom_type_description
_atom_site_fract_x
_atom_site_fract_y
_atom_site_fract_z
_atom_type_partial_charge
C1    C     C_R   0.497601 0.262556 0.500145 0.786137
C2    C     C_R   0.937514 0.451947 0.388780 0.119227
C3    C     C_3   0.932230 0.320827 0.339639 -0.483331
C4    C     C_3   0.072828 0.321931 0.339592 -0.480966
C5    C     C_R   0.486845 0.063227 0.625096 0.120379
C6    C     C_R   0.485133 0.129315 0.500291 -0.099571
C7    C     C_R   0.465847 0.064772 0.375497 -0.223180
C8    C     C_R   0.466143 0.935786 0.375310 -0.218971
C9    C     C_R   0.485619 0.870647 0.499918 -0.098801
C10   C     C_R   0.487109 0.935939 0.624914 0.132612
C11   C     C_3   0.576012 0.929613 0.742883 -0.468960
C12   C     C_R   0.262715 0.500662 0.500409 0.792726
C13   C     C_3   0.575687 0.070129 0.743038 -0.472200
C14   C     C_R   0.595290 0.553799 0.072506 0.191263
C15   C     C_R   0.404627 0.450913 0.077503 -0.076343
C16   C     C_R   0.404213 0.448231 0.929848 0.243253
C17   C     C_R   0.597970 0.548206 0.925254 0.190787
C18   C     C_3   0.728251 0.497917 0.927920 -0.073734
C19   C     C_3   0.727020 0.515950 0.083819 -0.475087
C20   C     C_R   0.497846 0.737464 0.499849 0.796376
C21   C     C_R   0.737422 0.500780 0.499258 0.789373
C22   C     C_R   0.065354 0.452196 0.389784 0.135462
C23   C     C_R   0.129501 0.506785 0.498946 -0.087573
C24   C     C_R   0.064155 0.574692 0.599495 -0.225336
C25   C     C_R   0.934758 0.576192 0.597268 -0.213907
C26   C     C_R   0.870935 0.507720 0.496503 -0.089704
Cu1   Cu    Cu3+1 0.499990 0.499980 0.640670 0.928883
Cu2   Cu    Cu3+1 0.500010 0.500020 0.359330 0.933658
H1    H     H_    0.112682 0.624520 0.680174 0.153182
H2    H     H_    0.666985 0.889527 0.711985 0.191782
H3    H     H_    0.532270 0.110010 0.838085 0.198945
H4    H     H_    0.666480 0.111795 0.712178 0.194721
H5    H     H_    0.329294 0.408833 0.136271 0.145421
H6    H     H_    0.796964 0.558683 0.874722 0.159612
H7    H     H_    0.737435 0.429240 0.144487 0.226004
H8    H     H_    0.787201 0.593604 0.118398 0.169354
H9    H     H_    0.884917 0.628982 0.674784 0.139710
H10   H     H_    0.890644 0.256895 0.418364 0.192411
H11   H     H_    0.893967 0.311840 0.233465 0.193824
H12   H     H_    0.113370 0.258111 0.417687 0.192353
H13   H     H_    0.114493 0.316123 0.233581 0.190927
H14   H     H_    0.456508 0.113250 0.277423 0.164584
H15   H     H_    0.457006 0.887869 0.277163 0.166099
H16   H     H_    0.532847 0.888416 0.837916 0.196302
N1    N     N_R   0.500790 0.500930 0.147930 -0.198299
N2    N     N_R   0.500790 0.500890 0.852020 -0.180337
O1    O     O_R   0.500000 0.319640 0.618810 -0.586642
O2    O     O_R   0.500010 0.319680 0.381230 -0.583296
O3    O     O_R   0.319650 0.499970 0.618810 -0.584712
O4    O     O_R   0.319660 0.500010 0.381230 -0.584966
O5    O     O_R   0.499990 0.680320 0.618770 -0.578449
O6    O     O_R   0.500000 0.680360 0.381190 -0.578480
O7    O     O_R   0.680340 0.499990 0.618770 -0.586752
O8    O     O_R   0.680350 0.500030 0.381190 -0.579622
C27   C     C_3   0.297858 0.378917 0.865783 -0.798896
H17   H     H_    0.328621 0.321460 0.777511 0.264924
H18   H     H_    0.254872 0.312981 0.941261 0.170689
H19   H     H_    0.223930 0.444468 0.835904 0.235237
C28   C     C_3   0.739857 0.359753 0.890945 -0.770414
H20   H     H_    0.735135 0.343751 0.777844 0.256653
H21   H     H_    0.831018 0.325066 0.926482 0.211745
H22   H     H_    0.665383 0.304074 0.942450 0.223914

loop_
_geom_bond_atom_site_label_1
_geom_bond_atom_site_label_2
_ccdc_geom_bond_type
C2    C22   A    
C12   O4    A    
C23   C24   A    
Cu1   O7    S    
C1    O2    A    
C4    H12   S    
C6    C7    A    
C20   O5    A    
C4    C22   S    
C9    C10   A    
C9    C20   S    
C5    C13   S    
C14   C17   A    
C8    H15   S    
C27   H17   S    
C27   H18   S    
C12   O3    A    
C16   C27   S    
C3    H11   S    
C28   H20   S    
C2    C26   A    
C19   H7    S    
C24   C25   A    
C21   O7    A    
Cu2   O6    S    
C12   C23   S    
C21   O8    A    
Cu1   N2    S    
C5    C10   A    
C21   C26   S    
Cu1   O5    S    
C17   C18   S    
C14   N1    A    
C2    C3    S    
C19   H8    S    
C18   H6    S    
C5    C6    A    
Cu2   N1    S    
C28   H21   S    
C7    C8    A    
C4    H13   S    
C15   N1    A    
Cu1   O1    S    
C15   C16   A    
C11   H16   S    
C18   C28   S    
C11   C13   S    
C17   N2    A    
C11   H2    S    
C20   O6    A    
C18   C19   S    
C10   C11   S    
C7    H14   S    
C16   N2    A    
Cu1   Cu2   S    
C27   H19   S    
C24   H1    S    
C1    O1    A    
C28   H22   S    
Cu2   O8    S    
C1    C6    S    
C25   H9    S    
C25   C26   A    
C22   C23   A    
C13   H4    S    
Cu2   O4    S    
C14   C19   S    
C13   H3    S    
Cu2   O2    S    
C3    C4    S    
Cu1   O3    S    
C3    H10   S    
C15   H5    S    
C8    C9    A    
