data_mof_unit_35115.cif
_audit_creation_date              2012-12-10T17:35:37-0500
_audit_creation_method            fapswitch 2.2
_symmetry_space_group_name_H-M    P1
_symmetry_Int_Tables_number       1
_space_group_crystal_system       triclinic
_cell_length_a                    10.72342
_cell_length_b                    12.325091
_cell_length_c                    13.191845
_cell_angle_alpha                 116.639086
_cell_angle_beta                  77.494264
_cell_angle_gamma                 101.33821
_cell_volume                      1511.55003971

loop_
_atom_site_label
_atom_site_type_symbol
_atom_type_description
_atom_site_fract_x
_atom_site_fract_y
_atom_site_fract_z
_atom_type_partial_charge
C1    C     C_R   0.511215 0.854853 0.286621 0.747028
C2    C     C_3   0.122407 0.000886 0.500239 -0.061161
C3    C     C_3   0.043052 0.007233 0.617109 0.165835
C4    C     C_3   0.070969 0.880286 0.402286 0.209065
C5    C     C_R   0.326814 0.275420 0.021153 -0.185159
C6    C     C_R   0.453799 0.227905 0.834466 -0.055190
C7    C     C_R   0.595013 0.815219 0.085206 -0.171321
C8    C     C_R   0.620078 0.736394 0.970257 -0.134548
C9    C     C_R   0.574677 0.613083 0.932619 -0.170558
C10   C     C_R   0.498235 0.566379 0.009528 0.086209
C11   C     C_R   0.460336 0.649878 0.124073 0.083338
C12   C     C_R   0.739814 0.000004 0.500188 0.833317
C13   C     C_R   0.456916 0.439746 0.976185 0.078502
C14   C     C_R   0.368716 0.400091 0.053330 0.159292
C15   C     C_R   0.320992 0.485371 0.160688 -0.223824
C16   C     C_R   0.364644 0.608421 0.195076 -0.190851
C17   C     C_R   0.501577 0.350885 0.868583 -0.233479
C18   C     C_R   0.368423 0.189646 0.911743 -0.129244
C19   C     C_R   0.518240 0.772890 0.163684 -0.099979
C20   C     C_R   0.698105 0.342803 0.322338 -0.298075
C21   C     C_R   0.324262 0.758818 0.644289 0.704235
C22   C     C_R   0.275497 0.656629 0.665411 -0.307506
C23   C     C_R   0.480850 0.145074 0.713384 0.863474
C24   C     C_R   0.330797 0.547788 0.602323 0.318419
C25   C     C_R   0.447546 0.545163 0.525625 -0.122318
C26   C     C_R   0.489768 0.650775 0.502456 0.133358
C27   C     C_R   0.522704 0.442950 0.469494 -0.005418
C28   C     C_R   0.626396 0.442616 0.381985 0.179363
C29   C     C_R   0.660153 0.542946 0.356017 -0.276670
C30   C     C_R   0.595706 0.645630 0.416886 -0.127404
C31   C     C_R   0.504106 0.342783 0.498990 -0.002183
C32   C     C_R   0.669327 0.244237 0.350955 0.074058
C33   C     C_R   0.260284 0.000570 0.500284 0.831396
C34   C     C_3   0.959681 0.106402 0.473891 -0.383234
C35   C     C_3   0.101404 0.110481 0.479569 -0.375675
C36   C     C_3   0.898834 0.013747 0.619769 0.201796
C37   C     C_3   0.924941 0.878728 0.406889 -0.438306
C38   C     C_3   0.877753 0.000778 0.501114 -0.043180
Cu1   Cu    Cu3+1 0.529690 0.098270 0.475420 0.945940
Cu2   Cu    Cu3+1 0.470310 0.901730 0.524580 0.987206
H1    H     H_    0.925834 0.196532 0.533542 0.179874
H2    H     H_    0.084812 0.799712 0.414614 0.083016
H3    H     H_    0.842730 0.933963 0.633438 0.129197
H4    H     H_    0.048386 0.919871 0.621061 0.148485
H5    H     H_    0.330072 0.094552 0.886232 0.206011
H6    H     H_    0.249558 0.456873 0.218613 0.142288
H7    H     H_    0.259132 0.244719 0.079555 0.142172
H8    H     H_    0.573046 0.374710 0.808483 0.149567
H9    H     H_    0.638541 0.909157 0.113106 0.156344
H10   H     H_    0.598685 0.557584 0.842263 0.132083
H11   H     H_    0.678507 0.770378 0.910314 0.151382
H12   H     H_    0.949833 0.091828 0.386182 0.195949
H13   H     H_    0.319277 0.670260 0.276995 0.161507
H14   H     H_    0.723142 0.166200 0.304279 0.121960
H15   H     H_    0.740157 0.543736 0.289932 0.151568
H16   H     H_    0.776245 0.341261 0.254216 0.146356
H17   H     H_    0.436551 0.340732 0.571643 0.182661
H18   H     H_    0.188650 0.659614 0.726069 0.196487
H19   H     H_    0.632275 0.719035 0.393158 0.199672
H20   H     H_    0.159406 0.107522 0.397600 0.224150
H21   H     H_    0.133939 0.199088 0.547882 0.174492
H22   H     H_    0.871757 0.800736 0.425096 0.122949
H23   H     H_    0.903773 0.863402 0.322147 0.213568
N1    N     N_R   0.574690 0.246280 0.438200 -0.189685
N2    N     N_R   0.426100 0.754320 0.561190 -0.255448
O1    O     O_R   0.537340 0.972510 0.318130 -0.580218
O2    O     O_R   0.487200 0.806530 0.359650 -0.612930
O3    O     O_R   0.707380 0.082980 0.479220 -0.590318
O4    O     O_R   0.657240 0.917000 0.520740 -0.609604
O5    O     O_R   0.512800 0.193470 0.640350 -0.598938
O6    O     O_R   0.462660 0.027490 0.681870 -0.518548
O7    O     O_R   0.342760 0.083000 0.479260 -0.588960
O8    O     O_R   0.292620 0.917020 0.520780 -0.553701
F1    F     F_    0.263668 0.860927 0.702752 -0.651353
O9    O     O_3   0.260159 0.444993 0.609682 -0.743237
H24   H     H_    0.263034 0.379748 0.530376 0.310023
O10   O     O_3   0.851256 0.118453 0.711966 -0.696998
H25   H     H_    0.899276 0.191820 0.703386 0.335533
O11   O     O_3   0.094050 0.100339 0.713968 -0.667236
H26   H     H_    0.105950 0.178742 0.707545 0.332715
O12   O     O_3   0.135550 0.870347 0.294060 -0.706339
H27   H     H_    0.218808 0.839612 0.282133 0.306956

loop_
_geom_bond_atom_site_label_1
_geom_bond_atom_site_label_2
_ccdc_geom_bond_type
C2    C35   S    
C12   O4    A    
Cu2   O6    S    
Cu1   O3    S    
C17   H8    S    
C20   H16   S    
C3    O11   S    
C37   H22   S    
C7    C8    A    
O10   H25   S    
Cu1   N1    S    
C12   O3    A    
C11   C19   A    
C37   C38   S    
C28   C29   A    
C36   O10   S    
C15   C16   A    
Cu2   O8    S    
C34   C35   S    
C16   H13   S    
C33   O7    A    
C4    O12   S    
C8    C9    A    
Cu2   O2    S    
Cu1   O7    S    
C9    C10   A    
C13   C14   A    
C23   O5    A    
C34   H1    S    
C32   H14   S    
C37   H23   S    
O12   H27   S    
C6    C18   A    
C3    H4    S    
C1    C19   S    
Cu2   O4    S    
C27   C31   A    
C23   O6    A    
C24   C25   A    
C7    H9    S    
Cu1   Cu2   S    
C5    C18   A    
C29   H15   S    
C25   C26   A    
C21   F1    S    
C35   H20   S    
C2    C4    S    
O9    H24   S    
C29   C30   A    
C5    H7    S    
C11   C16   A    
C30   H19   S    
C1    O1    A    
C35   H21   S    
C8    H11   S    
C32   N1    A    
C5    C14   A    
C2    C33   S    
C33   O8    A    
C26   C30   A    
C7    C19   A    
Cu2   N2    S    
Cu1   O1    S    
C22   C24   A    
C18   H5    S    
C20   C32   A    
C6    C17   A    
C21   N2    A    
C34   C38   S    
C26   N2    A    
C31   N1    A    
C9    H10   S    
C10   C13   A    
C22   H18   S    
C24   O9    S    
C25   C27   A    
C20   C28   A    
C34   H12   S    
C13   C17   A    
C31   H17   S    
C36   C38   S    
C2    C3    S    
C4    H2    S    
C3    C36   S    
C6    C23   S    
C1    O2    A    
Cu1   O5    S    
C12   C38   S    
C10   C11   A    
O11   H26   S    
C4    C37   S    
C27   C28   A    
C14   C15   A    
C36   H3    S    
C15   H6    S    
C21   C22   A    
