data_mof_unit_36006.cif
_audit_creation_date              2012-12-10T20:51:28-0500
_audit_creation_method            fapswitch 2.2
_symmetry_space_group_name_H-M    P1
_symmetry_Int_Tables_number       1
_space_group_crystal_system       triclinic
_cell_length_a                    17.380986
_cell_length_b                    9.012542
_cell_length_c                    8.132282
_cell_angle_alpha                 90.498904
_cell_angle_beta                  90.127999
_cell_angle_gamma                 90.192938
_cell_volume                      1273.83771239

loop_
_atom_site_label
_atom_site_type_symbol
_atom_type_description
_atom_site_fract_x
_atom_site_fract_y
_atom_site_fract_z
_atom_type_partial_charge
C1    C     C_R   0.500011 0.217945 0.499549 0.915927
C2    C     C_R   0.850661 0.588595 0.357902 0.349126
C3    C     C_R   0.770050 0.557510 0.653950 0.333837
C4    C     C_R   0.228523 0.566469 0.357350 0.378351
C5    C     C_R   0.230911 0.556603 0.656982 0.318676
C6    C     C_R   0.771151 0.563225 0.353726 0.331690
C7    C     C_R   0.730984 0.538020 0.502240 -0.418795
C8    C     C_R   0.269338 0.540038 0.504613 -0.426376
C9    C     C_R   0.885943 0.623147 0.508018 -0.259227
C10   C     C_R   0.116379 0.636237 0.514339 -0.289373
C11   C     C_1   0.966526 0.649937 0.512727 0.116405
C12   C     C_R   0.500054 0.782051 0.500452 0.901312
C13   C     C_1   0.035039 0.654118 0.515025 0.079436
C14   C     C_3   0.852069 0.786944 0.861522 0.172576
C15   C     C_3   0.877804 0.918339 0.756207 -0.417007
C16   C     C_3   0.851312 0.064785 0.830909 -1.041123
C17   C     C_3   0.102728 0.811948 0.202580 0.134882
C18   C     C_3   0.055754 0.838705 0.045865 -0.253637
C19   C     C_3   0.106523 0.889769 0.904857 -0.890127
C20   C     C_3   0.098000 0.402633 0.814940 0.174709
C21   C     C_3   0.041625 0.338683 0.686293 -0.419406
C22   C     C_3   0.037262 0.171127 0.691498 -1.048658
C23   C     C_1   0.500054 0.065023 0.499364 -0.202049
C24   C     C_3   0.905086 0.437099 0.162838 0.176225
C25   C     C_3   0.966057 0.359567 0.268345 -0.407641
C26   C     C_3   0.980173 0.200776 0.211904 -1.050887
C27   C     C_3   0.746390 0.386087 0.848467 -0.171315
C28   C     C_3   0.240576 0.379953 0.172179 -0.179708
C29   C     C_3   0.299045 0.661016 0.869263 -0.096208
C30   C     C_3   0.710024 0.709068 0.170939 -0.162442
C31   C     C_1   0.500070 0.934950 0.500635 -0.204017
C32   C     C_R   0.352277 0.505556 0.500541 0.963969
C33   C     C_R   0.647681 0.506130 0.500361 0.957329
C34   C     C_R   0.845427 0.613068 0.655503 0.342000
C35   C     C_R   0.155295 0.630590 0.363046 0.315695
C36   C     C_R   0.151986 0.585669 0.657946 0.379790
H1    H     H_    0.874575 0.803981 0.988147 0.182490
H2    H     H_    0.024510 0.735769 0.008877 0.294528
H3    H     H_    0.011539 0.924752 0.069073 0.165716
H4    H     H_    0.156247 0.816068 0.889666 0.289473
H5    H     H_    0.128074 0.003970 0.929492 0.229256
H6    H     H_    0.073493 0.886017 0.788342 0.263637
H7    H     H_    0.073581 0.383464 0.938864 0.161499
H8    H     H_    0.153665 0.341864 0.811160 0.145008
H9    H     H_    0.983389 0.385708 0.706829 0.243129
H10   H     H_    0.061389 0.365825 0.560915 0.226732
H11   H     H_    0.017243 0.135341 0.813817 0.291823
H12   H     H_    0.788278 0.785481 0.870385 0.157460
H13   H     H_    0.094637 0.123301 0.663909 0.272424
H14   H     H_    0.996022 0.130540 0.596766 0.287395
H15   H     H_    0.925905 0.439150 0.033862 0.188512
H16   H     H_    0.850568 0.371686 0.162229 0.138307
H17   H     H_    0.020958 0.422513 0.262296 0.260262
H18   H     H_    0.946287 0.355347 0.397682 0.220576
H19   H     H_    0.927344 0.132879 0.228149 0.269042
H20   H     H_    0.027124 0.151749 0.286392 0.273115
H21   H     H_    0.997676 0.198706 0.081319 0.267951
H22   H     H_    0.808301 0.368188 0.875023 0.149968
H23   H     H_    0.941259 0.917548 0.746008 0.245045
H24   H     H_    0.725802 0.306058 0.752819 0.123637
H25   H     H_    0.713687 0.363323 0.962423 0.209843
H26   H     H_    0.177279 0.365177 0.158539 0.150190
H27   H     H_    0.263040 0.304164 0.268344 0.111887
H28   H     H_    0.267711 0.346640 0.054407 0.206174
H29   H     H_    0.311526 0.747733 0.775672 0.083018
H30   H     H_    0.354221 0.634859 0.930958 0.191254
H31   H     H_    0.260753 0.706617 0.965270 0.194676
H32   H     H_    0.759969 0.786105 0.163328 0.116987
H33   H     H_    0.669161 0.750903 0.265615 0.134232
H34   H     H_    0.852952 0.908783 0.630591 0.216523
H35   H     H_    0.679444 0.710098 0.051166 0.200198
H36   H     H_    0.787725 0.065051 0.843844 0.261712
H37   H     H_    0.868498 0.157096 0.749247 0.280052
H38   H     H_    0.877957 0.082361 0.953455 0.273243
H39   H     H_    0.157735 0.875919 0.200352 0.120931
H40   H     H_    0.068435 0.854984 0.307666 0.093509
N1    N     N_1   0.500000 0.500000 0.073640 -0.032255
N2    N     N_1   0.500000 0.500000 0.926360 -0.037725
O1    O     O_R   0.500000 0.285350 0.636850 -0.618383
O2    O     O_3   0.117529 0.658302 0.216327 -0.584042
O3    O     O_3   0.108237 0.558002 0.796937 -0.588748
O4    O     O_3   0.893738 0.586224 0.214587 -0.620450
O5    O     O_3   0.733286 0.533951 0.801978 -0.567745
O6    O     O_3   0.259643 0.529472 0.206600 -0.561516
O7    O     O_3   0.267609 0.527748 0.804297 -0.585824
O8    O     O_3   0.733786 0.562496 0.203672 -0.566600
O9    O     O_R   0.500000 0.714650 0.363150 -0.628650
O10   O     O_R   0.500000 0.714650 0.636850 -0.628090
O11   O     O_R   0.500000 0.285350 0.363150 -0.620004
O12   O     O_R   0.389120 0.500000 0.636930 -0.586495
O13   O     O_R   0.610880 0.500000 0.363070 -0.581227
O14   O     O_R   0.610880 0.500000 0.636930 -0.572839
O15   O     O_R   0.389120 0.500000 0.363070 -0.579612
O16   O     O_3   0.881638 0.650444 0.802028 -0.619964
Zn1   Zn    Zn3+2 0.500000 0.500000 0.682780 0.991301
Zn2   Zn    Zn3+2 0.500000 0.500000 0.317220 0.993516

loop_
_geom_bond_atom_site_label_1
_geom_bond_atom_site_label_2
_ccdc_geom_bond_type
C24   H16   S    
C28   O6    S    
C16   H36   S    
C4    C8    A    
C26   H19   S    
C30   H33   S    
C30   H35   S    
O12   Zn1   S    
N1    N2    T    
C16   H38   S    
C25   H17   S    
C3    C7    A    
C27   H24   S    
C33   O13   A    
C15   C16   S    
C5    C36   A    
C35   O2    S    
C18   C19   S    
C24   O4    S    
C27   H25   S    
O13   Zn2   S    
C29   H31   S    
C32   O12   A    
C17   H40   S    
C10   C35   A    
C30   O8    S    
C36   O3    S    
C29   O7    S    
C19   H6    S    
C22   H14   S    
C5    O7    S    
C24   H15   S    
C32   O15   A    
O10   Zn1   S    
C21   C22   S    
C7    C33   S    
C2    C6    A    
C20   H8    S    
C21   H9    S    
C12   O10   A    
C16   H37   S    
C8    C32   S    
C25   H18   S    
C33   O14   A    
C14   H12   S    
C3    C34   A    
C25   C26   S    
C10   C13   S    
O14   Zn1   S    
C23   C31   T    
C18   H3    S    
O1    Zn1   S    
C4    O6    S    
N2    Zn1   S    
O9    Zn2   S    
C17   C18   S    
C24   C25   S    
C9    C11   S    
C22   H13   S    
C29   H29   S    
C28   H28   S    
C1    C23   S    
O15   Zn2   S    
C12   C31   S    
C3    O5    S    
C9    C34   A    
C1    O1    A    
C2    O4    S    
C20   H7    S    
C21   H10   S    
C15   H34   S    
C1    O11   A    
C12   O9    A    
C15   H23   S    
C34   O16   S    
C27   H22   S    
C26   H20   S    
C5    C8    A    
C6    C7    A    
N1    Zn2   S    
C6    O8    S    
O11   Zn2   S    
C27   O5    S    
C18   H2    S    
C14   H1    S    
C11   C13   T    
C22   H11   S    
C17   O2    S    
C26   H21   S    
C4    C35   A    
C19   H4    S    
C29   H30   S    
C28   H27   S    
C20   C21   S    
C17   H39   S    
C14   C15   S    
C10   C36   A    
C20   O3    S    
C2    C9    A    
C14   O16   S    
C30   H32   S    
C19   H5    S    
C28   H26   S    
