data_mof_unit_7586.cif
_audit_creation_date              2012-12-11T14:08:37-0500
_audit_creation_method            fapswitch 2.2
_symmetry_space_group_name_H-M    P1
_symmetry_Int_Tables_number       1
_space_group_crystal_system       triclinic
_cell_length_a                    28.237696
_cell_length_b                    7.211296
_cell_length_c                    17.120975
_cell_angle_alpha                 89.999983
_cell_angle_beta                  102.338334
_cell_angle_gamma                 89.999964
_cell_volume                      3405.8258711

loop_
_atom_site_label
_atom_site_type_symbol
_atom_type_description
_atom_site_fract_x
_atom_site_fract_y
_atom_site_fract_z
_atom_type_partial_charge
O1    O     O_R   0.000700 0.436510 0.857920 -0.536704
O2    O     O_R   0.999300 0.563490 0.142080 -0.530303
O3    O     O_R   0.999300 0.936510 0.642080 -0.536705
O4    O     O_R   0.000700 0.063490 0.357920 -0.530302
O5    O     O_R   0.930080 0.766380 0.721890 -0.544636
O6    O     O_R   0.069920 0.233620 0.278110 -0.537144
O7    O     O_R   0.069920 0.266380 0.778110 -0.544636
O8    O     O_R   0.930080 0.733620 0.221890 -0.537144
C1    C     C_R   0.910946 0.598285 0.704621 0.697364
C2    C     C_R   0.089063 0.402036 0.294140 0.695249
C3    C     C_R   0.089054 0.098285 0.795379 0.697365
C4    C     C_R   0.910937 0.902037 0.205859 0.695250
O9    O     O_R   0.996180 0.766230 0.862310 -0.540953
O10   O     O_R   0.003820 0.233770 0.137690 -0.547895
O11   O     O_R   0.003820 0.266230 0.637690 -0.540953
O12   O     O_R   0.996180 0.733770 0.362310 -0.547895
O13   O     O_R   0.065870 0.936460 0.783500 -0.535147
O14   O     O_R   0.934130 0.063540 0.216500 -0.540545
O15   O     O_R   0.934130 0.436460 0.716500 -0.535147
O16   O     O_R   0.065870 0.563540 0.283500 -0.540545
C5    C     C_R   0.998515 0.596480 0.894449 0.761005
C6    C     C_R   0.001538 0.403501 0.105564 0.758396
C7    C     C_R   0.001485 0.096480 0.605551 0.761003
C8    C     C_R   0.998462 0.903501 0.394436 0.758396
O17   O     O_3   0.022790 0.603020 0.723980 -0.378096
O18   O     O_3   0.977210 0.396980 0.276020 -0.376532
O19   O     O_3   0.977210 0.103020 0.776020 -0.378096
O20   O     O_3   0.022790 0.896980 0.223980 -0.376531
V1    V     V_3+5 0.995770 0.877900 0.754830 1.387335
V2    V     V_3+5 0.004230 0.122100 0.245170 1.394374
V3    V     V_3+5 0.004230 0.377900 0.745170 1.387335
V4    V     V_3+5 0.995770 0.622100 0.254830 1.394374
C9    C     C_2   0.001677 0.082525 0.519486 -0.337020
C10   C     C_2   0.998187 0.917387 0.480478 -0.343405
C11   C     C_2   0.998323 0.582525 0.980514 -0.337021
C12   C     C_2   0.001813 0.417387 0.019522 -0.343406
H1    H     H_    0.004586 0.210931 0.487673 0.153731
H2    H     H_    0.995266 0.788976 0.512281 0.153695
H3    H     H_    0.995414 0.710931 0.012327 0.153732
H4    H     H_    0.004734 0.288976 0.987719 0.153696
C13   C     C_R   0.681153 0.869528 0.034378 0.537467
C14   C     C_R   0.315688 0.999694 0.986298 0.555756
C15   C     C_R   0.318847 0.369532 0.465622 0.537469
C16   C     C_R   0.684312 0.499688 0.513701 0.555753
O21   O     O_2   0.709029 0.821143 0.982682 -0.532694
O22   O     O_2   0.286633 0.002703 0.039472 -0.529816
O23   O     O_2   0.290970 0.321148 0.517318 -0.532694
O24   O     O_2   0.713367 0.502695 0.460527 -0.529816
N1    N     N_R   0.702473 0.917253 0.111356 -0.546484
N2    N     N_R   0.295872 0.013065 0.906138 -0.547236
N3    N     N_R   0.297527 0.417256 0.388643 -0.546484
N4    N     N_R   0.704128 0.513061 0.593861 -0.547236
C17   C     C_R   0.674596 0.947320 0.166608 0.586672
C18   C     C_R   0.324503 0.994406 0.851296 0.574708
C19   C     C_R   0.325404 0.447320 0.333391 0.586669
C20   C     C_R   0.675497 0.494402 0.648703 0.574709
C21   C     C_R   0.778731 0.796889 0.191446 -0.142482
C22   C     C_R   0.216303 0.909744 0.832222 -0.140456
C23   C     C_R   0.221269 0.296890 0.308554 -0.142481
C24   C     C_R   0.783697 0.409742 0.667777 -0.140454
C25   C     C_R   0.829013 0.793392 0.213687 -0.240075
C26   C     C_R   0.166840 0.933409 0.804299 -0.239186
C27   C     C_R   0.170987 0.293393 0.286312 -0.240074
C28   C     C_R   0.833160 0.433408 0.695700 -0.239187
C29   C     C_R   0.834094 0.034902 0.115805 0.087740
C30   C     C_R   0.169695 0.221292 0.880165 0.076990
C31   C     C_R   0.165905 0.534902 0.384195 0.087737
C32   C     C_R   0.830305 0.721292 0.619835 0.076996
C33   C     C_R   0.782453 0.054235 0.100751 0.166017
C34   C     C_R   0.221662 0.210700 0.898091 0.164335
C35   C     C_R   0.217547 0.554237 0.399248 0.166018
C36   C     C_R   0.778338 0.710697 0.601908 0.164327
C37   C     C_R   0.754878 0.924917 0.135259 0.334677
C38   C     C_R   0.244308 0.045499 0.878856 0.347044
C39   C     C_R   0.245121 0.424919 0.364741 0.334679
C40   C     C_R   0.755692 0.545496 0.621143 0.347046
C41   C     C_R   0.601078 0.910383 0.063711 -0.045986
C42   C     C_R   0.396330 0.963140 0.958420 -0.047998
C43   C     C_R   0.398922 0.410384 0.436288 -0.045987
C44   C     C_R   0.603670 0.463137 0.541578 -0.047998
C45   C     C_R   0.630352 0.871270 0.008677 -0.001207
C46   C     C_R   0.366261 0.983729 0.013698 -0.005828
C47   C     C_R   0.369648 0.371273 0.491322 -0.001207
C48   C     C_R   0.633739 0.483723 0.486301 -0.005828
C49   C     C_R   0.608323 0.828528 0.929901 -0.178119
C50   C     C_R   0.387381 0.999513 0.094745 -0.185620
C51   C     C_R   0.391676 0.328531 0.570098 -0.178118
C52   C     C_R   0.612619 0.499507 0.405254 -0.185621
C53   C     C_R   0.623532 0.938883 0.144063 -0.078216
C54   C     C_R   0.374979 0.967578 0.876484 -0.083414
C55   C     C_R   0.376468 0.438884 0.355936 -0.078217
C56   C     C_R   0.625021 0.467576 0.623515 -0.083414
C57   C     C_R   0.857387 0.911016 0.177252 -0.098920
C58   C     C_R   0.142566 0.087410 0.826962 -0.104592
C59   C     C_R   0.142613 0.411016 0.322747 -0.098921
C60   C     C_R   0.857434 0.587410 0.673038 -0.104591
H5    H     H_    0.629635 0.786969 0.887205 0.174364
H6    H     H_    0.365409 0.027082 0.138180 0.175293
H7    H     H_    0.370365 0.286973 0.612795 0.174364
H8    H     H_    0.634590 0.527076 0.361819 0.175293
C61   C     C_R   0.477179 0.923784 0.927801 -0.050776
C62   C     C_R   0.520332 0.937383 0.096409 -0.053490
C63   C     C_R   0.522821 0.423783 0.572198 -0.050776
C64   C     C_R   0.479668 0.437382 0.403590 -0.053490
C65   C     C_R   0.468764 0.953853 0.068681 0.063286
C66   C     C_R   0.528056 0.895689 0.955943 0.069235
C67   C     C_R   0.531236 0.453851 0.431318 0.063287
C68   C     C_R   0.471944 0.395690 0.544056 0.069234
C69   C     C_R   0.447601 0.944066 0.985072 0.004291
C70   C     C_R   0.549575 0.916557 0.038640 -0.001733
C71   C     C_R   0.552399 0.444064 0.514927 0.004290
C72   C     C_R   0.450425 0.416558 0.461359 -0.001733
C73   C     C_R   0.455113 0.942048 0.844437 0.368097
C74   C     C_R   0.543983 0.934691 0.179630 0.387881
C75   C     C_R   0.544887 0.442048 0.655562 0.368097
C76   C     C_R   0.456017 0.434690 0.320369 0.387881
C77   C     C_R   0.404415 0.959589 0.820910 -0.241551
C78   C     C_R   0.595045 0.947252 0.201100 -0.249288
C79   C     C_R   0.595585 0.459588 0.679089 -0.241551
C80   C     C_R   0.404955 0.447251 0.298899 -0.249288
O25   O     O_2   0.304380 0.006071 0.772501 -0.523244
O26   O     O_2   0.696110 0.986524 0.243030 -0.525596
O27   O     O_2   0.695620 0.506069 0.727498 -0.523244
O28   O     O_2   0.303890 0.486523 0.256969 -0.525595
C81   C     C_R   0.558309 0.837546 0.904556 -0.152897
C82   C     C_R   0.437410 0.993950 0.120959 -0.166125
C83   C     C_R   0.441690 0.337547 0.595443 -0.152896
C84   C     C_R   0.562590 0.493946 0.379040 -0.166125
H9    H     H_    0.147230 0.827745 0.765349 0.151810
H10   H     H_    0.845938 0.696663 0.259682 0.149285
H11   H     H_    0.852770 0.327744 0.734650 0.151811
H12   H     H_    0.154062 0.196663 0.240318 0.149285
H13   H     H_    0.233312 0.785991 0.815542 0.147405
H14   H     H_    0.757937 0.700242 0.219039 0.155302
H15   H     H_    0.766689 0.285988 0.684457 0.147404
H16   H     H_    0.242063 0.200243 0.280960 0.155302
H17   H     H_    0.387719 0.979733 0.758679 0.163714
H18   H     H_    0.613324 0.949199 0.263307 0.160283
H19   H     H_    0.612281 0.479732 0.741320 0.163714
H20   H     H_    0.386676 0.449198 0.236692 0.160283
H21   H     H_    0.544162 0.789389 0.844841 0.184030
H22   H     H_    0.450126 0.032471 0.182273 0.204206
H23   H     H_    0.455838 0.289390 0.655158 0.184030
H24   H     H_    0.549874 0.532467 0.317726 0.204205
C85   C     C_3   0.863166 0.133182 0.062295 -0.373870
C86   C     C_3   0.850355 0.058710 0.976629 -0.740337
H25   H     H_    0.859613 0.909008 0.976195 0.230332
H26   H     H_    0.811313 0.075609 0.949329 0.244944
H27   H     H_    0.871610 0.134456 0.939193 0.213712
H28   H     H_    0.857920 0.285529 0.063603 0.178848
H29   H     H_    0.902621 0.112045 0.081629 0.192522
C87   C     C_3   0.143955 0.361073 0.924024 -0.373260
C88   C     C_3   0.155313 0.326524 0.014384 -0.732626
H30   H     H_    0.144137 0.183863 0.027081 0.227783
H31   H     H_    0.194387 0.343620 0.041245 0.248859
H32   H     H_    0.134769 0.426609 0.043715 0.215139
H33   H     H_    0.153031 0.505394 0.910191 0.178523
H34   H     H_    0.104143 0.352005 0.906486 0.198199
C89   C     C_3   0.136834 0.633178 0.437706 -0.373868
C90   C     C_3   0.149647 0.558709 0.523372 -0.740327
H35   H     H_    0.140393 0.409001 0.523806 0.230334
H36   H     H_    0.188688 0.575627 0.550672 0.244940
H37   H     H_    0.128389 0.634444 0.560807 0.213709
H38   H     H_    0.142078 0.785527 0.436396 0.178846
H39   H     H_    0.097378 0.612034 0.418373 0.192519
C91   C     C_3   0.856044 0.861078 0.575977 -0.373263
C92   C     C_3   0.844688 0.826528 0.485618 -0.732625
H40   H     H_    0.855876 0.683880 0.472922 0.227773
H41   H     H_    0.805613 0.843582 0.458756 0.248863
H42   H     H_    0.865225 0.926640 0.456287 0.215144
H43   H     H_    0.846965 0.005398 0.589809 0.178523
H44   H     H_    0.895856 0.852020 0.593518 0.198201
C93   C     C_3   0.756603 0.218191 0.053467 -0.349467
C94   C     C_3   0.739255 0.356206 0.108862 -0.736424
H45   H     H_    0.710653 0.294669 0.136116 0.242152
H46   H     H_    0.770188 0.399494 0.157026 0.228154
H47   H     H_    0.723946 0.480678 0.074371 0.243219
H48   H     H_    0.779883 0.296359 0.020862 0.199015
H49   H     H_    0.725423 0.171936 0.006791 0.211199
C95   C     C_3   0.253025 0.375000 0.934663 -0.359288
C96   C     C_3   0.283882 0.451028 0.878571 -0.732950
H50   H     H_    0.261686 0.467209 0.817059 0.235554
H51   H     H_    0.315050 0.359179 0.877047 0.236432
H52   H     H_    0.298851 0.588457 0.900476 0.215609
H53   H     H_    0.231198 0.493029 0.948226 0.196284
H54   H     H_    0.276852 0.336271 0.992480 0.217430
C97   C     C_3   0.243396 0.718194 0.446532 -0.349466
C98   C     C_3   0.260747 0.856203 0.391137 -0.736413
H55   H     H_    0.229816 0.899487 0.342968 0.228153
H56   H     H_    0.276054 0.980680 0.425627 0.243216
H57   H     H_    0.289352 0.794664 0.363889 0.242147
H58   H     H_    0.220115 0.796369 0.479132 0.199012
H59   H     H_    0.274574 0.671938 0.493210 0.211200
C99   C     C_3   0.746974 0.874995 0.565334 -0.359290
C100  C     C_3   0.716118 0.951026 0.621427 -0.732948
H60   H     H_    0.738315 0.967212 0.682938 0.235552
H61   H     H_    0.684950 0.859177 0.622954 0.236433
H62   H     H_    0.701148 0.088453 0.599521 0.215609
H63   H     H_    0.768800 0.993023 0.551768 0.196288
H64   H     H_    0.723146 0.836262 0.507519 0.217428
O29   O     O_3   0.483817 0.983082 0.789754 -0.575242
C101  C     C_3   0.467720 0.895301 0.714793 0.061014
H65   H     H_    0.436627 0.971127 0.678002 0.119519
H66   H     H_    0.457148 0.748619 0.721854 0.177421
C102  C     C_3   0.508288 0.900094 0.668705 -0.646527
H67   H     H_    0.541569 0.834379 0.703989 0.232701
H68   H     H_    0.496767 0.825220 0.611090 0.194308
H69   H     H_    0.516984 0.045316 0.655847 0.194213
O30   O     O_3   0.517820 0.883854 0.236836 -0.575102
C103  C     C_3   0.534288 0.970547 0.311941 0.073072
H70   H     H_    0.544436 0.118023 0.305456 0.176175
H71   H     H_    0.565770 0.893693 0.347305 0.129832
C104  C     C_3   0.494288 0.964146 0.359038 -0.671608
H72   H     H_    0.484198 0.818430 0.367944 0.214237
H73   H     H_    0.507100 0.029761 0.418482 0.183590
H74   H     H_    0.461655 0.038812 0.326540 0.227086
O31   O     O_3   0.516182 0.483083 0.710245 -0.575242
C105  C     C_3   0.532280 0.395300 0.785206 0.061013
H75   H     H_    0.563373 0.471126 0.821997 0.119519
H76   H     H_    0.542852 0.248619 0.778145 0.177421
C106  C     C_3   0.491712 0.400094 0.831294 -0.646528
H77   H     H_    0.458431 0.334379 0.796010 0.232701
H78   H     H_    0.503232 0.325220 0.888909 0.194308
H79   H     H_    0.483016 0.545316 0.844152 0.194213
O32   O     O_3   0.482179 0.383853 0.263163 -0.575103
C107  C     C_3   0.465712 0.470548 0.188058 0.073072
H80   H     H_    0.455564 0.618024 0.194544 0.176175
H81   H     H_    0.434230 0.393695 0.152694 0.129832
C108  C     C_3   0.505712 0.464147 0.140962 -0.671607
H82   H     H_    0.515802 0.318432 0.132055 0.214237
H83   H     H_    0.492900 0.529763 0.081517 0.183590
H84   H     H_    0.538345 0.538813 0.173460 0.227085

loop_
_geom_bond_atom_site_label_1
_geom_bond_atom_site_label_2
_ccdc_geom_bond_type
O17   V3    S    
C47   C51   A    
N1    C17   A    
C22   C26   A    
O1    C5    A    
C50   C82   A    
O13   V1    S    
O29   C101  S    
O3    C7    A    
C11   C12   D    
C14   C46   A    
C44   C48   A    
O15   V3    S    
C51   C83   A    
C85   C86   S    
C106  H79   S    
C92   H41   S    
C96   H50   S    
C42   C54   A    
O7    C3    A    
C52   H8    S    
C66   C81   A    
C41   C53   A    
N2    C18   A    
C101  H66   S    
C43   C72   A    
C98   H57   S    
C102  H69   S    
C74   O30   S    
C63   C71   A    
C56   C79   A    
N3    C39   S    
C67   C84   A    
C18   C54   A    
C108  H84   S    
C17   O26   S    
N2    C38   S    
C36   C99   S    
O4    C8    A    
C25   C57   A    
C104  H74   S    
C94   H47   S    
O19   V1    S    
C93   H49   S    
C61   C69   A    
C86   H27   S    
C27   C59   A    
C23   H16   S    
O1    V3    S    
C15   C47   A    
C62   C65   A    
O2    V4    S    
C14   O22   S    
C21   C37   A    
O3    V1    S    
C34   C38   A    
C19   C55   A    
C30   C87   S    
C64   C76   A    
C49   C81   A    
C1    O15   A    
C99   H64   S    
C89   C90   S    
C98   H56   S    
C2    O16   A    
C7    C9    S    
C101  C102  S    
O2    C6    A    
C31   C35   A    
C33   C37   A    
C63   C68   A    
C80   H20   S    
C73   O29   S    
C88   H31   S    
C76   C80   A    
O5    V1    S    
C85   H28   S    
C36   C40   A    
C30   C58   A    
C100  H62   S    
C67   C71   A    
C16   N4    A    
O11   C7    A    
C99   C100  S    
C91   H43   S    
O12   C8    A    
C91   H44   S    
C97   H59   S    
C31   C59   A    
C26   H9    S    
C41   C70   A    
C33   C93   S    
O10   V2    S    
C50   H6    S    
C13   N1    A    
C45   C49   A    
C9    C10   D    
C92   H42   S    
C86   H26   S    
C102  H68   S    
C22   H13   S    
C87   H34   S    
O7    V3    S    
C101  H65   S    
N4    C20   A    
O8    V4    S    
C20   O27   S    
C12   H4    S    
C28   C60   A    
C63   C75   A    
C54   C77   A    
C96   H51   S    
C81   H21   S    
C92   H40   S    
C64   C72   A    
O18   V4    S    
C83   H23   S    
C16   C48   A    
O31   C105  S    
C93   C94   S    
C24   C40   A    
C8    C10   S    
C68   C72   A    
C98   H55   S    
C90   H36   S    
C44   C56   A    
C11   H3    S    
C90   H37   S    
O5    C1    A    
C108  H82   S    
C62   C74   A    
C106  H77   S    
C42   C46   A    
C105  H76   S    
C99   H63   S    
C24   H15   S    
C28   H11   S    
C104  H72   S    
O8    C4    A    
C13   C45   A    
O30   C103  S    
O9    C5    A    
C85   H29   S    
C27   H12   S    
C53   C78   A    
C88   H32   S    
O11   V3    S    
C84   H24   S    
C1    C60   S    
C97   H58   S    
C74   C78   A    
C95   H54   S    
C25   H10   S    
C14   N2    A    
C73   C77   A    
C65   C82   A    
C3    C58   S    
O6    V2    S    
C18   O25   S    
C106  H78   S    
C107  H80   S    
C75   C79   A    
C26   C58   A    
C17   C53   A    
C91   C92   S    
N1    C37   S    
C21   H14   S    
C62   C70   A    
C29   C85   S    
C103  C104  S    
C23   C39   A    
C95   C96   S    
C22   C38   A    
C105  C106  S    
C86   H25   S    
O16   V4    S    
C96   H52   S    
O9    V1    S    
C61   C66   A    
C78   H18   S    
C102  H67   S    
C87   H33   S    
C3    O13   A    
C2    C59   S    
O32   C107  S    
C10   H2    S    
C43   C55   A    
C55   C80   A    
C77   H17   S    
C48   C52   A    
C35   C97   S    
N4    C40   S    
O6    C2    A    
C21   C25   A    
C5    C11   S    
C32   C36   A    
O12   V4    S    
C107  C108  S    
C6    C12   S    
C32   C60   A    
C23   C27   A    
C76   O32   S    
C24   C28   A    
C79   H19   S    
C90   H35   S    
O10   C6    A    
O20   V2    S    
C104  H73   S    
C97   C98   S    
C108  H83   S    
C46   C50   A    
C35   C39   A    
C34   C95   S    
C105  H75   S    
C30   C34   A    
C65   C69   A    
C93   H48   S    
C15   N3    A    
C29   C33   A    
C44   C71   A    
C29   C57   A    
C94   H46   S    
C82   H22   S    
C42   C69   A    
N3    C19   A    
C68   C83   A    
C61   C73   A    
C4    C57   S    
C41   C45   A    
C9    H1    S    
C49   H5    S    
C95   H53   S    
O14   V2    S    
C100  H60   S    
C43   C47   A    
C51   H7    S    
C89   H39   S    
C20   C56   A    
C87   C88   S    
C66   C70   A    
C103  H70   S    
C19   O28   S    
C4    O14   A    
C13   O21   S    
C89   H38   S    
C75   O31   S    
C31   C89   S    
C103  H71   S    
C88   H30   S    
C52   C84   A    
C15   O23   S    
C64   C67   A    
O4    V2    S    
C107  H81   S    
C16   O24   S    
C100  H61   S    
C94   H45   S    
C32   C91   S    
