data_mof_unit_43726.cif
_audit_creation_date              2012-10-26T19:45:30-0400
_audit_creation_method            fapswitch 2.2
_symmetry_space_group_name_H-M    P1
_symmetry_Int_Tables_number       1
_space_group_crystal_system       triclinic
_cell_length_a                    10.868673
_cell_length_b                    9.509683
_cell_length_c                    10.752085
_cell_angle_alpha                 89.937901
_cell_angle_beta                  90.338782
_cell_angle_gamma                 89.831848
_cell_volume                      1111.28518908

loop_
_atom_site_label
_atom_site_type_symbol
_atom_type_description
_atom_site_fract_x
_atom_site_fract_y
_atom_site_fract_z
_atom_type_partial_charge
C1    C     C_R   0.261745 0.500147 0.501282 0.590661
C2    C     C_R   0.428752 0.925878 0.417573 -0.032912
C3    C     C_R   0.572481 0.925315 0.581598 0.511982
C4    C     C_R   0.572598 0.074108 0.581499 0.518434
C5    C     C_R   0.499933 0.500397 0.259827 0.659173
C6    C     C_R   0.737568 0.499796 0.501700 0.586317
C7    C     C_R   0.500155 0.500088 0.739870 0.582975
C8    C     C_3   0.381216 0.427058 0.072583 0.183171
C9    C     C_3   0.616355 0.421279 0.074116 0.173054
C10   C     C_3   0.383021 0.421485 0.928016 0.121490
C11   C     C_3   0.614285 0.415250 0.929604 0.127779
C12   C     C_3   0.502956 0.654682 0.928825 -0.166776
C13   C     C_3   0.502536 0.655601 0.071100 0.697858
C14   C     C_3   0.500008 0.501603 0.121963 0.011631
C15   C     C_3   0.500175 0.500771 0.876933 -0.144541
C16   C     C_3   0.226982 0.583615 0.859587 -0.034132
C17   C     C_3   0.776049 0.568184 0.862300 -0.015681
C18   C     C_3   0.122420 0.178692 0.612086 -0.090392
C19   C     C_3   0.105195 0.832576 0.407463 -0.080254
C20   C     C_R   0.062296 0.371077 0.502004 0.231392
C21   C     C_R   0.061420 0.628896 0.509394 0.209531
C22   C     C_R   0.934703 0.372509 0.498651 -0.086421
C23   C     C_R   0.933757 0.626420 0.513947 -0.126087
C24   C     C_R   0.870611 0.499469 0.504830 -0.051415
C25   C     C_R   0.127140 0.500168 0.504270 0.050072
C26   C     C_R   0.428200 0.074761 0.417985 -0.059346
Cu1   Cu    Cu3+1 0.500020 0.640660 0.500000 1.108419
Cu2   Cu    Cu3+1 0.500020 0.359340 0.500000 1.079343
F1    F     F_    0.276068 0.492098 0.117046 -0.577807
F2    F     F_    0.723476 0.481433 0.119621 -0.569886
F3    F     F_    0.646164 0.855249 0.662808 -0.625345
F4    F     F_    0.646307 0.143668 0.662658 -0.583611
F5    F     F_    0.400476 0.730277 0.111737 -0.597755
F6    F     F_    0.606565 0.725396 0.113679 -0.564634
H1    H     H_    0.379540 0.317342 0.108998 0.110547
H2    H     H_    0.372318 0.869885 0.351087 0.184366
H3    H     H_    0.270379 0.636123 0.778938 0.121116
H4    H     H_    0.239819 0.643616 0.946817 0.224435
H5    H     H_    0.126649 0.583276 0.840154 0.142034
H6    H     H_    0.765729 0.629317 0.949173 0.223554
H7    H     H_    0.734210 0.622387 0.781097 0.154277
H8    H     H_    0.876196 0.562364 0.843672 0.139946
H9    H     H_    0.162558 0.248667 0.684703 0.164374
H10   H     H_    0.180534 0.082723 0.608313 0.153741
H11   H     H_    0.027992 0.145839 0.638583 0.150837
H12   H     H_    0.614671 0.311664 0.110749 0.123336
H13   H     H_    0.140415 0.772254 0.326312 0.171694
H14   H     H_    0.158424 0.931541 0.413701 0.148439
H15   H     H_    0.007386 0.862819 0.392226 0.141186
H16   H     H_    0.398991 0.308346 0.907116 0.119799
H17   H     H_    0.594057 0.303033 0.908881 0.158248
H18   H     H_    0.426020 0.719369 0.893264 0.135091
H19   H     H_    0.582530 0.714812 0.894679 0.169834
H20   H     H_    0.886259 0.273391 0.491399 0.181087
H21   H     H_    0.884237 0.724818 0.523479 0.181824
H22   H     H_    0.370461 0.131157 0.352428 0.164853
N1    N     N_R   0.500030 0.852070 0.500030 -0.264040
N2    N     N_R   0.500030 0.147930 0.500030 -0.273056
O1    O     O_R   0.319660 0.618740 0.499990 -0.484283
O2    O     O_3   0.731294 0.429890 0.871382 -0.495408
O3    O     O_3   0.122715 0.243161 0.493828 -0.558156
O4    O     O_3   0.121486 0.756695 0.519323 -0.569770
O5    O     O_R   0.319660 0.381260 0.499990 -0.473760
O6    O     O_R   0.499990 0.618790 0.317690 -0.408404
O7    O     O_R   0.499990 0.381210 0.317690 -0.550947
O8    O     O_R   0.680370 0.618830 0.500010 -0.471846
O9    O     O_R   0.680370 0.381170 0.500010 -0.462078
O10   O     O_R   0.500030 0.618780 0.682310 -0.498348
O11   O     O_R   0.500030 0.381220 0.682310 -0.450440
O12   O     O_3   0.266720 0.442965 0.868399 -0.540368

loop_
_geom_bond_atom_site_label_1
_geom_bond_atom_site_label_2
_ccdc_geom_bond_type
C7    O11   A    
C1    C25   S    
C9    C14   S    
C18   H11   S    
C18   O3    S    
C23   H21   S    
Cu2   N2    S    
C9    C11   S    
C19   H15   S    
C12   H19   S    
C12   C15   S    
C16   H3    S    
C23   C24   A    
C6    C24   S    
C7    C15   S    
Cu2   O7    S    
C21   O4    S    
C2    N1    A    
C13   F6    S    
C9    H12   S    
C2    C26   A    
Cu1   O8    S    
Cu1   O1    S    
C18   H9    S    
C3    F3    S    
C26   N2    A    
C5    C14   S    
C4    F4    S    
C9    F2    S    
C8    F1    S    
C10   O12   S    
C5    O7    A    
C6    O9    A    
C12   H18   S    
C20   C22   A    
C17   O2    S    
C18   H10   S    
C10   C15   S    
C1    O1    A    
C21   C23   A    
C22   C24   A    
C17   H7    S    
C11   H17   S    
C20   C25   A    
C19   O4    S    
C4    N2    A    
C11   O2    S    
C10   H16   S    
Cu2   O5    S    
C1    O5    A    
C6    O8    A    
Cu2   O9    S    
C16   O12   S    
C12   C13   S    
C22   H20   S    
C13   F5    S    
Cu1   N1    S    
C19   H13   S    
C2    H2    S    
C20   O3    S    
C21   C25   A    
C17   H8    S    
C3    N1    A    
C8    C14   S    
Cu1   O10   S    
C16   H5    S    
C16   H4    S    
C7    O10   A    
C13   C14   S    
C11   C15   S    
Cu1   O6    S    
C8    H1    S    
C8    C10   S    
C3    C4    A    
Cu2   O11   S    
C5    O6    A    
C19   H14   S    
Cu1   Cu2   S    
C17   H6    S    
C26   H22   S    
