data_mof_unit_47107.cif
_audit_creation_date              2012-12-10T18:35:44-0500
_audit_creation_method            fapswitch 2.2
_symmetry_space_group_name_H-M    P1
_symmetry_Int_Tables_number       1
_space_group_crystal_system       triclinic
_cell_length_a                    13.424471
_cell_length_b                    13.820801
_cell_length_c                    15.092173
_cell_angle_alpha                 89.840522
_cell_angle_beta                  90.302853
_cell_angle_gamma                 72.294935
_cell_volume                      2667.45953968

loop_
_atom_site_label
_atom_site_type_symbol
_atom_type_description
_atom_site_fract_x
_atom_site_fract_y
_atom_site_fract_z
_atom_type_partial_charge
C1    C     C_R   0.498358 0.500379 0.670316 0.898558
C2    C     C_R   0.971286 0.468292 0.476987 -0.075221
C3    C     C_R   0.874687 0.474415 0.518501 -0.167933
C4    C     C_R   0.027472 0.534722 0.506472 0.096371
C5    C     C_R   0.979473 0.615565 0.564568 0.001783
C6    C     C_R   0.886113 0.618755 0.605833 -0.264912
C7    C     C_R   0.839518 0.543324 0.589839 0.541218
C8    C     C_R   0.132979 0.518247 0.486291 -0.254985
C9    C     C_R   0.132486 0.674746 0.559219 0.495006
C10   C     C_R   0.814549 0.413090 0.486903 -0.222300
C11   C     C_R   0.451214 0.439644 0.906891 -0.353138
C12   C     C_R   0.700485 0.445523 0.499310 0.941634
C13   C     C_R   0.451635 0.436490 0.814261 0.498781
C14   C     C_R   0.496059 0.501157 0.767188 -0.191056
C15   C     C_R   0.540171 0.566558 0.812924 -0.391908
C16   C     C_R   0.542009 0.567519 0.905759 0.547254
C17   C     C_R   0.500463 0.500695 0.952087 0.017686
C18   C     C_R   0.436416 0.579638 0.094760 -0.200885
C19   C     C_R   0.437437 0.580186 0.186645 -0.289913
C20   C     C_R   0.503619 0.498027 0.233471 -0.191035
C21   C     C_R   0.570646 0.414591 0.188028 0.388413
C22   C     C_R   0.571339 0.414967 0.094923 0.447223
C23   C     C_R   0.501624 0.499450 0.329914 0.860038
C24   C     C_R   0.502940 0.497847 0.048758 0.006659
C25   C     C_R   0.457525 0.905541 0.572341 0.407822
C26   C     C_R   0.457027 0.802951 0.569301 -0.028001
C27   C     C_R   0.541312 0.779419 0.430558 0.047232
C28   C     C_R   0.539124 0.881851 0.428545 -0.333594
C29   C     C_R   0.496791 0.946557 0.499546 0.109920
C30   C     C_R   0.558066 0.088678 0.560331 -0.451552
C31   C     C_R   0.562376 0.190381 0.558367 0.701099
C32   C     C_R   0.439419 0.228335 0.439857 -0.150504
C33   C     C_R   0.439212 0.125822 0.435573 0.425994
C34   C     C_R   0.299737 0.554304 0.502384 0.829500
C35   C     C_R   0.497234 0.055454 0.498599 0.025941
C36   C     C_R   0.030136 0.687155 0.587259 -0.257008
C37   C     C_R   0.186036 0.585844 0.513254 -0.176076
C38   C     C_R   0.859013 0.332758 0.428044 0.418269
C39   C     C_R   0.953291 0.327696 0.387022 -0.275860
C40   C     C_R   0.005118 0.398687 0.405506 0.455634
Cu1   Cu    Cu3+1 0.500000 0.403570 0.500010 1.026020
Cu2   Cu    Cu3+1 0.500000 0.596430 0.499990 0.981043
H1    H     H_    0.384079 0.643363 0.059203 0.161543
H2    H     H_    0.390363 0.284329 0.395248 0.167431
H3    H     H_    0.178300 0.448165 0.456368 0.229511
H4    H     H_    0.412971 0.394047 0.944040 0.156150
N1    N     N_R   0.500000 0.741310 0.499980 -0.192287
N2    N     N_R   0.500060 0.258650 0.499980 -0.226478
O1    O     O_R   0.499990 0.418570 0.628550 -0.503760
O2    O     O_R   0.499990 0.581440 0.628540 -0.589019
O3    O     O_R   0.650980 0.378820 0.499990 -0.515334
O4    O     O_R   0.650980 0.541690 0.499970 -0.564793
O5    O     O_R   0.500010 0.418560 0.371460 -0.579959
O6    O     O_R   0.500010 0.581430 0.371450 -0.607217
O7    O     O_R   0.349020 0.458310 0.500030 -0.592372
O8    O     O_R   0.349020 0.621180 0.500010 -0.549762
O9    O     O_3   0.185272 0.739702 0.590082 -0.572367
C41   C     C_3   0.153334 0.830077 0.539722 -0.298250
H5    H     H_    0.069291 0.871759 0.550449 0.142183
H6    H     H_    0.199429 0.880157 0.561572 0.205006
H7    H     H_    0.168905 0.814687 0.467891 0.158918
O10   O     O_3   0.400530 0.378087 0.769000 -0.559033
C42   C     C_3   0.448115 0.274232 0.788605 -0.253713
H8    H     H_    0.535046 0.252359 0.785339 0.168240
H9    H     H_    0.422108 0.228430 0.738401 0.205180
H10   H     H_    0.423101 0.254375 0.854441 0.129447
H11   H     H_    0.576386 0.614251 0.776291 0.202788
O11   O     O_3   0.591338 0.626483 0.952470 -0.556942
C43   C     C_3   0.547212 0.729970 0.929821 -0.342446
H12   H     H_    0.460126 0.753271 0.927255 0.146588
H13   H     H_    0.579068 0.747495 0.866094 0.160563
H14   H     H_    0.569413 0.776464 0.981644 0.191522
H15   H     H_    0.385518 0.644188 0.221360 0.173848
O12   O     O_3   0.643667 0.338872 0.234734 -0.523605
C44   C     C_3   0.606497 0.254297 0.246186 -0.198393
H16   H     H_    0.519777 0.272281 0.241012 0.090968
H17   H     H_    0.629620 0.222027 0.313273 0.197623
H18   H     H_    0.644408 0.194489 0.197825 0.150795
O13   O     O_3   0.648409 0.341772 0.050503 -0.537781
C45   C     C_3   0.610357 0.261886 0.022780 -0.335979
H19   H     H_    0.534997 0.261503 0.053528 0.110018
H20   H     H_    0.669738 0.188577 0.039376 0.184196
H21   H     H_    0.601507 0.264446 0.949688 0.176114
O14   O     O_3   0.411786 0.968903 0.641628 -0.566725
C46   C     C_3   0.460589 0.928963 0.722536 -0.370154
H22   H     H_    0.547540 0.903380 0.717629 0.145751
H23   H     H_    0.432155 0.866048 0.746574 0.164512
H24   H     H_    0.439143 0.989880 0.773023 0.191830
H25   H     H_    0.421012 0.772970 0.622184 0.159430
H26   H     H_    0.575855 0.730638 0.375851 0.144447
H27   H     H_    0.853455 0.675154 0.656172 0.155057
H28   H     H_    0.571723 0.910149 0.372248 0.154380
H29   H     H_    0.602210 0.034833 0.609057 0.167270
O15   O     O_3   0.622638 0.226168 0.617591 -0.546206
C47   C     C_3   0.717736 0.152268 0.640315 -0.393586
H30   H     H_    0.772947 0.191839 0.664886 0.193584
H31   H     H_    0.755129 0.105597 0.582532 0.149463
H32   H     H_    0.705420 0.103384 0.695083 0.158052
O16   O     O_3   0.375235 0.095458 0.376485 -0.553240
C48   C     C_3   0.399079 0.115584 0.288708 -0.345147
H33   H     H_    0.484946 0.091455 0.276529 0.125744
H34   H     H_    0.363344 0.197115 0.271823 0.166891
H35   H     H_    0.364655 0.071377 0.243152 0.197774
H36   H     H_    0.992590 0.749812 0.630721 0.147866
O17   O     O_3   0.801036 0.271463 0.398621 -0.526519
C49   C     C_3   0.854480 0.169143 0.419350 -0.289835
H37   H     H_    0.883485 0.159514 0.489150 0.141594
H38   H     H_    0.920085 0.137496 0.372815 0.159382
H39   H     H_    0.799174 0.124188 0.411664 0.164715
O18   O     O_3   0.085356 0.400989 0.349404 -0.591639
C50   C     C_3   0.044214 0.473727 0.282407 -0.327279
H40   H     H_    0.010861 0.551187 0.310492 0.163898
H41   H     H_    0.984218 0.452994 0.241957 0.180064
H42   H     H_    0.108683 0.475839 0.237513 0.187433
H43   H     H_    0.981953 0.273868 0.334069 0.180501
O19   O     O_3   0.760111 0.537657 0.645724 -0.585185
C51   C     C_3   0.802043 0.458763 0.707521 -0.338695
H44   H     H_    0.864322 0.474489 0.748747 0.178071
H45   H     H_    0.832604 0.383766 0.674450 0.154521
H46   H     H_    0.739040 0.453643 0.752659 0.199621

loop_
_geom_bond_atom_site_label_1
_geom_bond_atom_site_label_2
_ccdc_geom_bond_type
C42   H9    S    
C34   O8    A    
C34   C37   S    
Cu1   Cu2   S    
C47   H30   S    
C4    C8    A    
C47   H32   S    
C46   H22   S    
C26   H25   S    
C30   C35   A    
C18   C24   A    
C28   C29   A    
C22   O13   S    
C30   H29   S    
C3    C7    A    
C51   H45   S    
C30   C31   A    
C49   H37   S    
C41   H6    S    
C6    H27   S    
C5    C36   A    
O19   C51   S    
C27   H26   S    
C18   C19   A    
C43   H13   S    
C8    H3    S    
Cu1   O7    S    
Cu2   O8    S    
O18   C50   S    
C13   O10   S    
C19   C20   A    
C16   C17   A    
C25   O14   S    
C16   O11   S    
C13   C14   A    
C1    O2    A    
C41   H7    S    
C42   H10   S    
C34   O7    A    
C21   C22   A    
C32   N2    A    
O15   C47   S    
C45   H21   S    
Cu1   O1    S    
C12   O4    A    
C23   O5    A    
C46   H23   S    
C25   C29   A    
C38   C39   A    
C17   C24   S    
O12   C44   S    
C19   H15   S    
O14   C46   S    
C28   H28   S    
C51   H46   S    
C39   C40   A    
O11   C43   S    
C40   O18   S    
C41   H5    S    
C21   O12   S    
C48   H35   S    
O13   C45   S    
C33   O16   S    
C7    O19   S    
C43   H14   S    
C2    C4    A    
C44   H16   S    
O10   C42   S    
C9    C36   A    
O16   C48   S    
C20   C23   S    
C15   H11   S    
C48   H34   S    
C32   H2    S    
C50   H41   S    
C44   H17   S    
Cu1   O5    S    
C10   C12   S    
C26   N1    A    
Cu2   O2    S    
C45   H20   S    
C39   H43   S    
C31   N2    A    
C22   C24   A    
C8    C37   A    
C12   O3    A    
C23   O6    A    
C9    C37   A    
C46   H24   S    
C27   N1    A    
C11   C17   A    
C50   H40   S    
C45   H19   S    
C47   H31   S    
C6    C7    A    
C31   O15   S    
O17   C49   S    
C29   C35   S    
C36   H36   S    
C10   C38   A    
C32   C33   A    
C38   O17   S    
C2    C3    A    
C25   C26   A    
C3    C10   A    
C51   H44   S    
Cu2   O6    S    
C11   C13   A    
O9    C41   S    
C5    C6    A    
C49   H38   S    
C48   H33   S    
C33   C35   A    
Cu1   N2    S    
C50   H42   S    
C9    O9    S    
Cu2   N1    S    
C43   H12   S    
C44   H18   S    
C42   H8    S    
C2    C40   A    
C4    C5    A    
C20   C21   A    
C27   C28   A    
C14   C15   A    
C11   H4    S    
C1    C14   S    
C18   H1    S    
C1    O1    A    
Cu1   O3    S    
C15   C16   A    
Cu2   O4    S    
C49   H39   S    
