data_mof_unit_56751.cif
_audit_creation_date              2012-12-10T16:52:37-0500
_audit_creation_method            fapswitch 2.2
_symmetry_space_group_name_H-M    P1
_symmetry_Int_Tables_number       1
_space_group_crystal_system       triclinic
_cell_length_a                    7.894898
_cell_length_b                    8.569602
_cell_length_c                    13.731113
_cell_angle_alpha                 94.444065
_cell_angle_beta                  93.24558
_cell_angle_gamma                 93.261771
_cell_volume                      922.961058154

loop_
_atom_site_label
_atom_site_type_symbol
_atom_type_description
_atom_site_fract_x
_atom_site_fract_y
_atom_site_fract_z
_atom_type_partial_charge
C1    C     C_R   0.043292 0.794009 0.497450 0.924158
C2    C     C_R   0.936473 0.485918 0.317960 0.861654
C3    C     C_R   0.092090 0.516762 0.787726 -0.046319
C4    C     C_R   0.900115 0.452355 0.213600 -0.066098
C5    C     C_R   0.034123 0.619327 0.950170 -0.189111
C6    C     C_R   0.921523 0.283695 0.066266 -0.183119
C7    C     C_R   0.985846 0.594796 0.850842 -0.166882
C8    C     C_R   0.987230 0.341164 0.159335 -0.162374
C9    C     C_R   0.237428 0.452160 0.824603 -0.227415
C10   C     C_R   0.752691 0.509075 0.174104 -0.232334
C11   C     C_R   0.288303 0.474210 0.923794 0.084200
C12   C     C_R   0.956691 0.205987 0.502499 0.922998
C13   C     C_R   0.673767 0.439431 0.086977 0.099029
C14   C     C_R   0.187982 0.565112 0.986281 0.163400
C15   C     C_R   0.763647 0.330120 0.030355 0.151992
C16   C     C_R   0.443343 0.419188 0.960356 0.053561
C17   C     C_R   0.507683 0.475151 0.055612 0.063452
C18   C     C_R   0.402104 0.560996 0.117489 -0.190669
C19   C     C_R   0.536172 0.310633 0.904926 -0.196591
C20   C     C_R   0.244372 0.603946 0.083252 -0.210484
C21   C     C_R   0.693063 0.266164 0.940015 -0.199174
C22   C     C_2   0.055194 0.952368 0.479120 0.100956
C23   C     C_2   0.944757 0.047639 0.520811 0.103490
C24   C     C_R   0.062878 0.510762 0.682128 0.864424
Cl1   Cl    Cl    0.181564 0.998218 0.380745 -0.545098
Cl2   Cl    Cl    0.818321 0.001850 0.619168 -0.544784
Cl3   Cl    Cl    0.504377 0.309922 0.394213 -0.417506
Cl4   Cl    Cl    0.495558 0.690513 0.605432 -0.416270
H1    H     H_    0.167872 0.670903 0.132437 0.170415
H2    H     H_    0.487710 0.252726 0.835630 0.173401
H3    H     H_    0.759323 0.181328 0.896183 0.177636
H4    H     H_    0.697908 0.603518 0.215666 0.158444
H5    H     H_    0.315653 0.394276 0.772978 0.170396
H6    H     H_    0.101943 0.295405 0.189938 0.197167
H7    H     H_    0.870996 0.643568 0.822835 0.188979
H8    H     H_    0.954746 0.685495 0.997999 0.150730
H9    H     H_    0.990205 0.198574 0.024230 0.151954
H10   H     H_    0.435631 0.592921 0.193925 0.179866
N1    N     N_2   0.440860 0.456490 0.474790 0.138059
N2    N     N_2   0.559140 0.543510 0.525210 0.140050
O1    O     O_R   0.891570 0.738930 0.506190 -0.574558
O2    O     O_R   0.108430 0.261070 0.493810 -0.575901
O3    O     O_R   0.174650 0.711050 0.490030 -0.553740
O4    O     O_R   0.825350 0.288950 0.509970 -0.553237
O5    O     O_R   0.909850 0.521900 0.644940 -0.600865
O6    O     O_R   0.090150 0.478100 0.355060 -0.606645
O7    O     O_R   0.192930 0.494020 0.628780 -0.594925
O8    O     O_R   0.807070 0.505980 0.371220 -0.589341
Zn1   Zn    Zn3+2 0.810990 0.518620 0.510790 1.129409
Zn2   Zn    Zn3+2 0.189010 0.481380 0.489210 1.123618

loop_
_geom_bond_atom_site_label_1
_geom_bond_atom_site_label_2
_ccdc_geom_bond_type
O4    Zn1   S    
C2    C4    S    
C10   C13   A    
O3    Zn2   S    
C3    C9    A    
O5    Zn1   S    
C9    C11   A    
C11   C16   A    
O6    Zn2   S    
C18   C20   A    
C13   C17   A    
C4    C8    A    
C17   C18   A    
C5    C14   A    
C6    H9    S    
C1    C22   S    
C12   O4    A    
C8    H6    S    
C2    O6    A    
C9    H5    S    
C21   H3    S    
C12   C23   S    
C3    C24   S    
C19   H2    S    
O2    Zn2   S    
C16   C19   A    
C6    C8    A    
C24   O5    A    
O1    Zn1   S    
O8    Zn1   S    
C19   C21   A    
O7    Zn2   S    
C3    C7    A    
C20   H1    S    
C13   C15   A    
C18   H10   S    
C11   C14   A    
Cl4   N2    S    
C4    C10   A    
N2    Zn1   S    
C5    H8    S    
C10   H4    S    
C15   C21   A    
N1    Zn2   S    
C14   C20   A    
C23   Cl2   S    
C1    O1    A    
N1    N2    D    
C5    C7    A    
C22   C23   D    
C12   O2    A    
C2    O8    A    
C6    C15   A    
C24   O7    A    
C7    H7    S    
C1    O3    A    
Cl3   N1    S    
C16   C17   A    
C22   Cl1   S    
