data_mof_unit_39350.cif
_audit_creation_date              2013-03-05T15:45:14-0500
_audit_creation_method            fapswitch 2.2
_symmetry_space_group_name_H-M    P1
_symmetry_Int_Tables_number       1
_space_group_crystal_system       triclinic
_cell_length_a                    17.293126
_cell_length_b                    7.121755
_cell_length_c                    16.681306
_cell_angle_alpha                 90.448222
_cell_angle_beta                  100.73901
_cell_angle_gamma                 89.415573
_cell_volume                      2018.3038099

loop_
_atom_site_label
_atom_site_type_symbol
_atom_site_description
_atom_site_fract_x
_atom_site_fract_y
_atom_site_fract_z
_atom_type_partial_charge
O1    O     O_R   0.579510 0.506290 0.439030 -0.584002
O2    O     O_R   0.420490 0.006290 0.560970 -0.591759
O3    O     O_R   0.412540 0.170090 0.405290 -0.588843
O4    O     O_R   0.587460 0.670090 0.594710 -0.583602
C1    C     C_R   0.385790 0.345853 0.381703 0.897959
C2    C     C_R   0.612148 0.846363 0.620489 0.868042
O5    O     O_R   0.578390 0.176230 0.429330 -0.585441
O6    O     O_R   0.421610 0.676230 0.570670 -0.584660
O7    O     O_R   0.587530 0.011250 0.585190 -0.605057
O8    O     O_R   0.412470 0.511250 0.414810 -0.613143
C3    C     C_R   0.606410 0.344025 0.416313 0.905443
C4    C     C_R   0.395205 0.846159 0.585335 0.892888
O9    O     O_3   0.502800 0.340940 0.551110 -0.291104
O10   O     O_3   0.497200 0.840940 0.448890 -0.290995
V1    V     V_3+5 0.499480 0.064020 0.490520 1.130928
V2    V     V_3+5 0.500520 0.564020 0.509480 1.129353
C5    C     C_R   0.167694 0.896469 0.861633 -0.515869
C6    C     C_R   0.832649 0.407626 0.139277 -0.501107
C7    C     C_R   0.331106 0.858308 0.633809 -0.119582
C8    C     C_R   0.672159 0.351797 0.369244 -0.127968
C9    C     C_R   0.192912 0.830036 0.643166 0.018737
C10   C     C_R   0.807283 0.281755 0.354086 0.013865
C11   C     C_R   0.252849 0.826777 0.596826 -0.160536
C12   C     C_R   0.746788 0.276071 0.400168 -0.165294
C13   C     C_R   0.347773 0.898964 0.717545 -0.207183
C14   C     C_R   0.660503 0.434696 0.292155 -0.168483
C15   C     C_R   0.288838 0.888876 0.766459 -0.033600
C16   C     C_R   0.716607 0.415263 0.240396 -0.049079
C17   C     C_R   0.210011 0.853959 0.729020 -0.029513
C18   C     C_R   0.792608 0.345927 0.272219 -0.043051
C19   C     C_R   0.150601 0.838472 0.777832 0.266803
C20   C     C_R   0.850781 0.338544 0.221328 0.264255
C21   C     C_R   0.248742 0.899521 0.900632 0.124004
C22   C     C_R   0.751396 0.435220 0.103940 0.111284
C23   C     C_R   0.309004 0.895058 0.852711 0.425120
C24   C     C_R   0.694308 0.443544 0.155480 0.445075
H1    H     H_    0.133013 0.813568 0.610931 0.182928
H2    H     H_    0.864963 0.232536 0.383057 0.182975
H3    H     H_    0.237929 0.800868 0.531711 0.126118
H4    H     H_    0.758955 0.216949 0.460904 0.128400
H5    H     H_    0.407940 0.928027 0.744992 0.103281
H6    H     H_    0.604812 0.500928 0.270021 0.113590
C25   C     C_3   0.747429 0.782838 0.839624 0.484964
C26   C     C_3   0.238527 0.239115 0.175746 0.496326
H7    H     H_    0.776513 0.652186 0.866237 0.101749
H8    H     H_    0.200100 0.114120 0.174015 0.097565
C27   C     C_3   0.684356 0.723579 0.762985 -0.370899
C28   C     C_3   0.306489 0.201557 0.249840 -0.431051
H9    H     H_    0.625012 0.713883 0.779252 0.186228
H10   H     H_    0.362616 0.184682 0.228009 0.225045
H11   H     H_    0.698845 0.581088 0.741784 0.115709
H12   H     H_    0.296077 0.068337 0.280575 0.127531
H13   H     H_    0.851858 0.686678 0.741878 0.107847
H14   H     H_    0.134648 0.235836 0.275209 0.125176
H15   H     H_    0.756405 0.701771 0.625911 0.192638
H16   H     H_    0.234579 0.247547 0.386145 0.192103
C29   C     C_3   0.832552 0.835195 0.730123 0.234973
C30   C     C_3   0.161966 0.377068 0.277767 0.236910
C31   C     C_3   0.768153 0.108751 0.785990 -0.362653
C32   C     C_3   0.237943 0.593800 0.205978 -0.413010
C33   C     C_3   0.810915 0.917071 0.811467 -0.333575
C34   C     C_3   0.185579 0.413927 0.192026 -0.341002
H17   H     H_    0.801795 0.194842 0.749504 0.169047
H18   H     H_    0.208281 0.707228 0.235127 0.180657
H19   H     H_    0.763724 0.197824 0.839471 0.222786
H20   H     H_    0.248101 0.658491 0.149608 0.220211
C35   C     C_3   0.681780 0.868870 0.693417 -0.143951
C36   C     C_3   0.314014 0.366048 0.311554 -0.096133
C37   C     C_3   0.758696 0.837049 0.660172 -0.562890
C38   C     C_3   0.237163 0.372119 0.346870 -0.581113
C39   C     C_3   0.684134 0.073324 0.734467 0.507459
C40   C     C_3   0.318692 0.550315 0.261329 0.464342
H21   H     H_    0.673024 0.185934 0.687808 0.020386
H22   H     H_    0.332186 0.674073 0.302985 0.040855
H23   H     H_    0.763346 0.950554 0.615773 0.196251
H24   H     H_    0.238731 0.498332 0.386961 0.198994
O11   O     O_R   0.087500 0.266000 0.085220 -0.601374
O12   O     O_R   0.912500 0.766000 0.914780 -0.613325
O13   O     O_R   0.921600 0.589950 0.070670 -0.608537
O14   O     O_R   0.078400 0.089950 0.929330 -0.602460
C41   C     C_R   0.895965 0.421279 0.087473 1.195934
C42   C     C_R   0.103120 0.918662 0.911626 1.196646
O15   O     O_R   0.087460 0.596020 0.094710 -0.541688
O16   O     O_R   0.912540 0.096020 0.905290 -0.558703
O17   O     O_R   0.079520 0.760970 0.939020 -0.569151
O18   O     O_R   0.920480 0.260970 0.060980 -0.594088
C43   C     C_R   0.112455 0.426743 0.121668 0.989742
C44   C     C_R   0.885888 0.927170 0.879822 0.952080
O19   O     O_3   0.997180 0.425140 0.948910 -0.268875
O20   O     O_3   0.002820 0.925140 0.051090 -0.278631
V3    V     V_3+5 0.000520 0.702080 0.009480 1.272066
V4    V     V_3+5 0.999480 0.202080 0.990520 1.269003
N1    N     N_R   0.080488 0.731142 0.746849 0.259291
O21   O     O_R   0.019607 0.739384 0.781925 -0.390274
O22   O     O_R   0.084617 0.590274 0.697571 -0.361976
N2    N     N_R   0.923128 0.236348 0.248426 0.250446
O23   O     O_R   0.987670 0.288329 0.226555 -0.419144
O24   O     O_R   0.921299 0.070061 0.279792 -0.376693
O25   O     O_3   0.631965 0.090312 0.791015 -0.618631
C45   C     C_3   0.553072 0.132842 0.757069 0.195646
H25   H     H_    0.518071 0.089013 0.803015 0.144258
H26   H     H_    0.529938 0.051457 0.701609 0.080955
C46   C     C_3   0.540003 0.343565 0.744286 -0.345061
H27   H     H_    0.563106 0.418999 0.802134 0.214679
H28   H     H_    0.572455 0.394014 0.697517 0.219491
C47   C     C_3   0.452523 0.388835 0.717635 -0.883216
H29   H     H_    0.428031 0.323138 0.658162 0.296551
H30   H     H_    0.444334 0.542979 0.713158 0.245706
H31   H     H_    0.418210 0.333754 0.761599 0.240435
O26   O     O_3   0.374220 0.522348 0.209326 -0.672118
C48   C     C_3   0.443597 0.624631 0.234092 0.072539
H32   H     H_    0.489184 0.554128 0.206410 0.132544
H33   H     H_    0.464517 0.624109 0.301017 0.151637
C49   C     C_3   0.433731 0.821901 0.199708 -0.237805
H34   H     H_    0.440839 0.814964 0.135375 0.243307
H35   H     H_    0.373667 0.875210 0.200954 0.223390
C50   C     C_3   0.494169 0.954521 0.247207 -1.016607
H36   H     H_    0.484853 0.968648 0.310598 0.311397
H37   H     H_    0.485935 0.094897 0.219211 0.252721
H38   H     H_    0.555022 0.902883 0.247458 0.270857
N3    N     N_R   0.896419 0.934608 0.701102 0.266806
O27   O     O_R   0.919530 0.874147 0.635499 -0.325864
O28   O     O_R   0.931162 0.080141 0.738927 -0.380704
N4    N     N_R   0.105025 0.512963 0.301198 0.267190
O29   O     O_R   0.079941 0.488179 0.369202 -0.329960
O30   O     O_R   0.075594 0.651389 0.254461 -0.367119
N5    N     N_R   0.270736 0.893435 0.988909 0.236635
O31   O     O_R   0.219929 0.853804 0.034370 -0.466678
O32   O     O_R   0.341228 0.937541 0.025479 -0.418731
N6    N     N_R   0.725292 0.438759 0.015816 0.214495
O33   O     O_R   0.771975 0.387444 0.966893 -0.523345
O34   O     O_R   0.656643 0.506938 0.982995 -0.400033
O35   O     O_3   0.387804 0.895577 0.891410 -0.627324
C51   C     C_3   0.425486 0.721996 0.878976 0.175717
H39   H     H_    0.484674 0.752056 0.865524 0.129059
H40   H     H_    0.393902 0.640601 0.825967 0.098596
C52   C     C_3   0.435657 0.598137 0.954840 -0.279405
H41   H     H_    0.488388 0.638051 0.999778 0.242804
H42   H     H_    0.384395 0.615836 0.984665 0.225806
C53   C     C_3   0.443572 0.392229 0.932274 -0.953522
H43   H     H_    0.393563 0.348854 0.884664 0.262900
H44   H     H_    0.442569 0.303047 0.985728 0.282211
H45   H     H_    0.498883 0.368606 0.909394 0.289903
O36   O     O_3   0.615104 0.465652 0.121078 -0.635113
C54   C     C_3   0.574886 0.292883 0.122964 0.173830
H46   H     H_    0.510872 0.322353 0.110029 0.141557
H47   H     H_    0.587720 0.225532 0.183499 0.094925
C55   C     C_3   0.596499 0.153269 0.061073 -0.321381
H48   H     H_    0.589843 0.218344 0.000405 0.265197
H49   H     H_    0.657998 0.112369 0.083378 0.181673
C56   C     C_3   0.548999 0.975142 0.052473 -0.954681
H50   H     H_    0.565616 0.887761 0.107774 0.281522
H51   H     H_    0.563189 0.894801 0.999764 0.295064
H52   H     H_    0.485366 0.008324 0.040783 0.319107
O37   O     O_3   0.702780 0.862080 0.895924 -0.588722
C57   C     C_3   0.742974 0.963913 0.964046 0.268094
H53   H     H_    0.702799 0.076587 0.974593 0.170578
H54   H     H_    0.794589 0.040712 0.956166 0.103341
C58   C     C_3   0.761841 0.839589 0.038176 -0.434316
H55   H     H_    0.706101 0.792860 0.054879 0.264603
H56   H     H_    0.796409 0.723193 0.019585 0.255716
C59   C     C_3   0.811568 0.928277 0.113173 -0.831638
H57   H     H_    0.869802 0.966762 0.100738 0.307178
H58   H     H_    0.820963 0.825118 0.163687 0.278622
H59   H     H_    0.781381 0.051302 0.133518 0.232839
O38   O     O_3   0.268650 0.225291 0.101485 -0.599172
C60   C     C_3   0.264563 0.382139 0.048685 0.319895
H60   H     H_    0.320161 0.460507 0.063094 0.149818
H61   H     H_    0.215172 0.477958 0.048616 0.081946
C61   C     C_3   0.252821 0.306911 0.961955 -0.334750
H62   H     H_    0.306557 0.233844 0.952078 0.244534
H63   H     H_    0.204549 0.208055 0.956796 0.246397
C62   C     C_3   0.227552 0.447230 0.894264 -0.966607
H64   H     H_    0.174263 0.523840 0.904070 0.304743
H65   H     H_    0.213222 0.371516 0.834957 0.284976
H66   H     H_    0.275883 0.543280 0.890626 0.257168

loop_
_geom_bond_atom_site_label_1
_geom_bond_atom_site_label_2
_geom_bond_distance
_ccdc_geom_bond_type
C30   C34   1.583355 S    
O15   C43   1.329596 A    
O11   V4    2.031362 S    
O4    V2    2.015483 S    
N1    O21   1.296928 A    
C15   C17   1.413276 A    
C7    C11   1.398334 A    
C48   H32   1.100364 S    
O1    C3    1.320341 A    
C53   H45   1.104831 S    
O2    C4    1.319312 A    
C23   O35   1.394957 S    
C2    O7    1.346889 A    
C54   H46   1.105901 S    
O17   V3    2.010370 S    
C60   H61   1.087635 S    
C62   H64   1.103719 S    
O5    C3    1.328545 A    
C52   H42   1.100159 S    
C25   C33   1.600132 S    
C8    C14   1.398453 A    
C57   H53   1.090653 S    
C53   H44   1.101650 S    
C50   H37   1.103376 S    
C47   H29   1.105771 S    
C32   C40   1.553563 S    
C10   H2    1.080393 S    
C21   N5    1.451545 S    
C6    C41   1.520274 S    
C32   C34   1.567040 S    
C5    C42   1.519484 S    
C56   H52   1.104640 S    
O26   C48   1.403235 S    
C47   H31   1.102379 S    
C39   O25   1.425296 S    
C21   C23   1.426679 A    
C46   H28   1.106507 S    
C27   H11   1.113492 S    
C8    C12   1.401633 A    
N2    O24   1.301486 A    
C56   H50   1.107861 S    
C55   C56   1.509668 S    
O19   V3    2.205352 S    
O13   V3    2.023940 S    
C41   O18   1.315487 A    
C36   C40   1.573292 S    
C47   H30   1.106761 S    
C28   H10   1.103551 S    
C52   H41   1.105203 S    
C32   H20   1.094226 S    
O6    V2    2.006667 S    
C48   C49   1.517598 S    
C5    C21   1.431326 A    
C51   C52   1.530336 S    
C1    C36   1.545424 S    
C25   O37   1.431691 S    
C27   C35   1.554973 S    
C54   H47   1.104954 S    
C26   H8    1.113265 S    
C49   H34   1.103366 S    
C60   C61   1.517227 S    
C59   H58   1.110140 S    
C62   H65   1.110834 S    
C52   C53   1.522268 S    
C40   O26   1.420606 S    
C3    C8    1.499017 S    
C31   C33   1.569173 S    
C16   C24   1.412476 A    
C53   H43   1.104408 S    
O14   C42   1.337468 A    
C50   H38   1.110489 S    
C13   H5    1.077239 S    
C60   H60   1.102912 S    
O13   C41   1.334348 A    
H13   C29   1.113681 S    
C30   C38   1.569112 S    
C51   H40   1.111171 S    
O5    V1    2.024038 S    
C15   C23   1.416347 A    
C19   N1    1.449374 S    
C9    C17   1.416658 A    
C45   C46   1.526053 S    
C35   C37   1.547548 S    
O14   V4    2.006580 S    
N6    O34   1.301938 A    
N5    O32   1.297889 A    
C33   C44   1.560760 S    
C59   H59   1.098818 S    
C6    C22   1.431063 A    
O20   V4    2.218397 S    
C58   H55   1.107068 S    
O6    C4    1.326133 A    
N2    O23   1.295458 A    
C45   H26   1.100142 S    
C58   C59   1.517023 S    
C48   H33   1.107593 S    
O1    V2    1.998819 S    
C26   O38   1.432870 S    
C28   C36   1.543821 S    
O19   V4    1.735692 S    
O2    V1    2.008308 S    
C25   H7    1.108841 S    
O11   C43   1.329592 A    
N3    O27   1.301863 A    
H15   C37   1.113601 S    
C40   H22   1.117274 S    
C2    C35   1.552621 S    
C20   N2    1.440526 S    
H16   C38   1.113157 S    
C9    C11   1.403641 A    
C38   H24   1.113677 S    
O35   C51   1.423297 S    
C5    C19   1.432336 A    
C10   C12   1.409968 A    
C31   H17   1.109001 S    
O4    C2    1.370116 A    
C6    C20   1.435695 A    
N5    O31   1.297471 A    
C46   H27   1.109964 S    
C54   C55   1.521304 S    
O3    V1    2.012322 S    
C14   H6    1.071091 S    
N4    O30   1.301017 A    
C59   H57   1.103019 S    
H14   C30   1.112731 S    
C62   H66   1.096070 S    
O12   C44   1.330044 A    
C10   C18   1.420029 A    
C30   N4    1.475501 S    
C57   C58   1.510098 S    
O16   C44   1.330146 A    
C55   H49   1.096458 S    
O36   C54   1.422969 S    
O3    C1    1.365183 A    
C49   H35   1.106035 S    
C29   C33   1.579127 S    
C51   H39   1.111157 S    
O12   V3    2.029941 S    
C27   H9    1.112239 S    
C42   O17   1.312818 A    
O15   V3    2.012294 S    
C34   C43   1.559197 S    
C14   C16   1.418996 A    
O25   C45   1.407148 S    
C32   H18   1.109250 S    
C26   C34   1.589411 S    
C57   H54   1.080717 S    
N6    O33   1.298514 A    
O7    V1    2.013740 S    
C1    O8    1.345849 A    
C17   C19   1.430436 A    
O8    V2    2.014926 S    
C50   H36   1.102618 S    
C31   H19   1.104448 S    
C18   C20   1.432465 A    
O20   V3    1.726470 S    
O38   C60   1.420957 S    
C61   H63   1.088197 S    
C11   H3    1.083440 S    
C4    C7    1.490318 S    
C16   C18   1.408495 A    
C45   H25   1.109822 S    
C12   H4    1.083259 S    
C22   C24   1.425357 A    
C37   H23   1.114149 S    
C46   C47   1.527031 S    
C35   C39   1.601850 S    
C55   H48   1.102298 S    
C56   H51   1.109215 S    
C24   O36   1.390766 S    
C7    C13   1.401215 A    
N3    O28   1.301738 A    
C49   C50   1.520537 S    
C29   N3    1.475140 S    
C28   H12   1.113961 S    
C9    H1    1.081570 S    
C22   N6    1.455483 S    
N1    O22   1.301842 A    
C61   H62   1.098778 S    
O9    V2    1.735979 S    
C39   H21   1.112118 S    
O37   C57   1.415435 S    
C36   C38   1.550930 S    
O10   V1    1.726747 S    
O18   V4    2.000693 S    
O16   V4    2.015457 S    
C29   C37   1.561245 S    
C58   H56   1.093463 S    
C25   C27   1.575904 S    
C61   C62   1.513104 S    
C26   C28   1.561385 S    
C31   C39   1.565918 S    
N4    O29   1.301639 A    
C13   C15   1.421950 A    
