data_mof_unit_27199.cif
_audit_creation_date              2012-10-26T21:20:08-0400
_audit_creation_method            fapswitch 2.2
_symmetry_space_group_name_H-M    P1
_symmetry_Int_Tables_number       1
_space_group_crystal_system       triclinic
_cell_length_a                    13.029665
_cell_length_b                    10.834612
_cell_length_c                    9.503583
_cell_angle_alpha                 90.011535
_cell_angle_beta                  96.741679
_cell_angle_gamma                 90.153026
_cell_volume                      1332.3521463

loop_
_atom_site_label
_atom_site_type_symbol
_atom_type_description
_atom_site_fract_x
_atom_site_fract_y
_atom_site_fract_z
_atom_type_partial_charge
C1    C     C_R   0.499924 0.262027 0.499944 0.548239
C2    C     C_R   0.699844 0.500206 0.527431 0.566330
C3    C     C_R   0.813201 0.500423 0.545176 0.038532
C4    C     C_R   0.186797 0.499556 0.454814 0.038535
C5    C     C_R   0.020206 0.498451 0.310062 -0.123808
C6    C     C_R   0.979794 0.501494 0.689926 -0.123805
C7    C     C_R   0.127971 0.498444 0.319632 0.093084
C8    C     C_R   0.872030 0.501509 0.680358 0.093086
C9    C     C_R   0.136327 0.500474 0.577266 -0.161392
C10   C     C_R   0.863669 0.499501 0.422722 -0.161391
C11   C     C_R   0.029191 0.500473 0.567180 0.018088
C12   C     C_R   0.500077 0.737973 0.500056 0.548243
C13   C     C_R   0.970806 0.499486 0.432809 0.018090
C14   C     C_R   0.499855 0.063807 0.372090 -0.138988
C15   C     C_R   0.500145 0.936193 0.627910 -0.138987
C16   C     C_R   0.499968 0.936116 0.372135 -0.138754
C17   C     C_R   0.500032 0.063883 0.627865 -0.138755
C18   C     C_R   0.500087 0.871800 0.500041 0.021669
C19   C     C_R   0.499913 0.128200 0.499959 0.021669
C20   C     C_R   0.432408 0.427343 0.063591 0.018631
C21   C     C_R   0.567592 0.572657 0.936409 0.018630
C22   C     C_R   0.432469 0.427326 0.914670 0.009170
C23   C     C_R   0.567531 0.572674 0.085330 0.009170
C24   C     C_R   0.300155 0.499789 0.472567 0.566329
Cu1   Cu    Cu3+1 0.500000 0.500020 0.640660 0.950048
Cu2   Cu    Cu3+1 0.500000 0.499980 0.359340 0.950049
H1    H     H_    0.819678 0.498735 0.318496 0.123650
H2    H     H_    0.621579 0.630935 0.888853 0.120237
H3    H     H_    0.378520 0.368954 0.849781 0.105957
H4    H     H_    0.621480 0.631046 0.150219 0.105958
H5    H     H_    0.848459 0.425165 0.867957 0.222985
H6    H     H_    0.848754 0.581212 0.866253 0.212613
H7    H     H_    0.151298 0.418670 0.133804 0.212615
H8    H     H_    0.151503 0.574712 0.131979 0.222971
H9    H     H_    0.180314 0.501252 0.681493 0.123647
H10   H     H_    0.975333 0.497631 0.206433 0.095973
H11   H     H_    0.024671 0.502297 0.793554 0.095971
H12   H     H_    0.499730 0.111808 0.272090 0.128128
H13   H     H_    0.500270 0.888192 0.727910 0.128129
H14   H     H_    0.499949 0.888056 0.272166 0.128741
H15   H     H_    0.500051 0.111944 0.727834 0.128740
H16   H     H_    0.378421 0.369065 0.111147 0.120235
N1    N     N_R   0.500030 0.500030 0.852080 -0.223943
N2    N     N_R   0.499970 0.499970 0.147920 -0.223943
N3    N     N_3   0.823480 0.502689 0.808079 -0.611342
N4    N     N_3   0.176527 0.497240 0.191918 -0.611341
O1    O     O_R   0.499990 0.319660 0.618740 -0.509857
O2    O     O_R   0.500010 0.680340 0.381260 -0.509854
O3    O     O_R   0.499990 0.319630 0.381170 -0.511813
O4    O     O_R   0.500010 0.680370 0.618830 -0.511810
O5    O     O_R   0.349000 0.499990 0.599490 -0.524539
O6    O     O_R   0.651000 0.500010 0.400510 -0.524543
O7    O     O_R   0.348990 0.499960 0.361920 -0.457637
O8    O     O_R   0.651010 0.500040 0.638080 -0.457640

loop_
_geom_bond_atom_site_label_1
_geom_bond_atom_site_label_2
_ccdc_geom_bond_type
C10   H1    S    
C15   C18   A    
C20   H16   S    
Cu2   O7    S    
C15   C17   A    
H8    N4    S    
C22   H3    S    
Cu2   O6    S    
C14   H12   S    
C9    C11   A    
H6    N3    S    
Cu1   O1    S    
C5    C13   A    
C22   N1    A    
Cu2   O2    S    
C12   O2    A    
Cu1   Cu2   S    
Cu1   N1    S    
C24   O5    A    
Cu1   O5    S    
C2    C3    S    
C24   O7    A    
C6    H11   S    
Cu2   N2    S    
C3    C10   A    
Cu1   O8    S    
H7    N4    S    
C11   C13   A    
C15   H13   S    
C7    N4    S    
C2    O6    A    
C16   H14   S    
C4    C7    A    
C17   C19   A    
C21   H2    S    
C20   C22   A    
C17   H15   S    
C21   C23   A    
H5    N3    S    
C4    C24   S    
C14   C16   A    
C1    C19   S    
C9    H9    S    
C5    H10   S    
C23   H4    S    
C16   C18   A    
C3    C8    A    
C2    O8    A    
Cu2   O3    S    
C12   C18   S    
C6    C11   A    
C5    C7    A    
Cu1   O4    S    
C1    O1    A    
C6    C8    A    
C20   N2    A    
C4    C9    A    
C21   N1    A    
C1    O3    A    
C14   C19   A    
C23   N2    A    
C8    N3    S    
C12   O4    A    
C10   C13   A    
