data_mof_unit_43378.cif
_audit_creation_date              2012-12-10T19:00:46-0500
_audit_creation_method            fapswitch 2.2
_symmetry_space_group_name_H-M    P1
_symmetry_Int_Tables_number       1
_space_group_crystal_system       triclinic
_cell_length_a                    14.972453
_cell_length_b                    10.81341
_cell_length_c                    9.591761
_cell_angle_alpha                 90.139932
_cell_angle_beta                  90.399857
_cell_angle_gamma                 91.238153
_cell_volume                      1552.53188372

loop_
_atom_site_label
_atom_site_type_symbol
_atom_type_description
_atom_site_fract_x
_atom_site_fract_y
_atom_site_fract_z
_atom_type_partial_charge
C1    C     C_R   0.502245 0.262553 0.500022 0.804346
C2    C     C_R   0.908033 0.608109 0.479600 0.114819
C3    C     C_R   0.951064 0.270325 0.533199 -0.010253
C4    C     C_R   0.044700 0.274118 0.537339 -0.241883
C5    C     C_R   0.092471 0.385366 0.519019 0.081191
C6    C     C_R   0.046729 0.496317 0.497503 0.062207
C7    C     C_R   0.094955 0.608702 0.476881 0.117989
C8    C     C_R   0.049415 0.719129 0.457597 -0.190670
C9    C     C_R   0.956456 0.718898 0.459498 -0.184913
C10   C     C_R   0.185737 0.387355 0.520507 -0.190466
C11   C     C_R   0.232756 0.498451 0.498684 -0.030600
C12   C     C_R   0.329095 0.499477 0.499613 0.821369
C13   C     C_R   0.188083 0.608633 0.476394 -0.243080
C14   C     C_R   0.517978 0.064346 0.625042 0.124063
C15   C     C_R   0.512007 0.129746 0.500039 -0.107625
C16   C     C_R   0.518612 0.064659 0.373910 -0.183603
C17   C     C_R   0.515403 0.935993 0.373858 -0.192507
C18   C     C_R   0.509669 0.871070 0.500196 -0.111184
C19   C     C_R   0.517403 0.936978 0.625149 0.127195
C20   C     C_3   0.461775 0.929801 0.753708 -0.443755
C21   C     C_3   0.462584 0.070307 0.753614 -0.424862
C22   C     C_R   0.541245 0.594441 0.074060 0.167275
C23   C     C_R   0.501183 0.737599 0.500169 0.794969
C24   C     C_R   0.452776 0.412155 0.070716 0.062429
C25   C     C_R   0.453124 0.413741 0.922869 -0.096215
C26   C     C_R   0.542445 0.592501 0.926853 0.250983
C27   C     C_3   0.639313 0.625384 0.920309 -0.528234
C28   C     C_3   0.638440 0.631283 0.078970 -0.249342
C29   C     C_R   0.670906 0.499811 0.500510 0.817037
C30   C     C_R   0.815217 0.608505 0.482433 -0.206763
C31   C     C_R   0.767254 0.498341 0.501581 -0.069552
C32   C     C_R   0.810626 0.386609 0.520539 -0.207893
C33   C     C_R   0.904294 0.382449 0.516203 0.034119
C34   C     C_R   0.952991 0.495341 0.497409 0.046577
Cu1   Cu    Cu3+1 0.500000 0.499980 0.640670 0.951349
Cu2   Cu    Cu3+1 0.500000 0.500020 0.359330 0.990814
H1    H     H_    0.780082 0.694527 0.471886 0.173700
H2    H     H_    0.394435 0.887620 0.734077 0.196009
H3    H     H_    0.498914 0.890234 0.843280 0.234727
H4    H     H_    0.395706 0.109914 0.734190 0.194560
H5    H     H_    0.500537 0.111669 0.842796 0.244360
H6    H     H_    0.416204 0.343563 0.864257 0.158275
H7    H     H_    0.679740 0.548130 0.880199 0.214358
H8    H     H_    0.651530 0.715053 0.866433 0.216534
H9    H     H_    0.680701 0.560424 0.129001 0.181331
H10   H     H_    0.770066 0.304645 0.539956 0.170004
H11   H     H_    0.080797 0.189053 0.551260 0.175106
H12   H     H_    0.221969 0.302775 0.537245 0.130920
H13   H     H_    0.225987 0.693992 0.460195 0.126377
H14   H     H_    0.085705 0.805713 0.441818 0.155855
H15   H     H_    0.922337 0.805350 0.444945 0.167549
N1    N     N_R   0.500570 0.500930 0.147930 -0.237750
N2    N     N_R   0.500570 0.500890 0.852020 -0.194731
O1    O     O_R   0.500000 0.319640 0.618810 -0.588014
O2    O     O_R   0.500010 0.319680 0.381230 -0.577959
O3    O     O_R   0.370250 0.499950 0.618800 -0.589745
O4    O     O_R   0.370260 0.499990 0.381220 -0.528739
O5    O     O_R   0.499990 0.680320 0.618770 -0.579569
O6    O     O_R   0.500000 0.680360 0.381190 -0.587219
O7    O     O_R   0.629740 0.500010 0.618780 -0.584068
O8    O     O_R   0.629750 0.500050 0.381200 -0.572364
H16   H     H_    0.512495 0.888082 0.275036 0.206488
C35   C     C_2   0.402252 0.307493 0.132878 0.855359
O9    O     O_2   0.341779 0.325135 0.214449 -0.572404
O10   O     O_R   0.417517 0.187668 0.084902 -0.814995
H17   H     H_    0.376477 0.123497 0.129440 0.331315
C36   C     C_2   0.654564 0.760149 0.135398 0.900067
O11   O     O_2   0.619222 0.848855 0.080474 -0.627040
O12   O     O_R   0.711381 0.777931 0.249901 -0.778589
H18   H     H_    0.717048 0.867965 0.279072 0.342799
C37   C     C_2   0.906046 0.146965 0.544188 0.830813
O13   O     O_2   0.842016 0.119928 0.469483 -0.609553
O14   O     O_R   0.940198 0.059002 0.635724 -0.761141
H19   H     H_    0.904807 0.978014 0.633176 0.330898
H20   H     H_    0.521433 0.112362 0.275210 0.211145

loop_
_geom_bond_atom_site_label_1
_geom_bond_atom_site_label_2
_ccdc_geom_bond_type
C24   N1    A    
C23   O5    A    
C35   O10   S    
Cu1   N2    S    
C16   H20   S    
O14   H19   S    
C19   C20   S    
C9    H15   S    
Cu2   O6    S    
C6    C34   A    
C7    C8    A    
C23   O6    A    
C26   C27   S    
Cu1   O5    S    
C14   C21   S    
C25   N2    A    
C5    C6    A    
C3    C33   A    
C15   C16   A    
C18   C19   A    
C27   H8    S    
Cu1   Cu2   S    
C16   C17   A    
C1    C15   S    
Cu2   N1    S    
C2    C34   A    
C22   C28   S    
Cu1   O1    S    
C17   C18   A    
C29   O8    A    
C28   H9    S    
C36   O11   D    
C28   C36   S    
C24   C25   A    
Cu2   O4    S    
C37   O14   S    
C20   H3    S    
C8    C9    A    
C18   C23   S    
C30   H1    S    
Cu1   O7    S    
C36   O12   S    
C3    C37   S    
C1    O1    A    
C17   H16   S    
C20   H2    S    
C31   C32   A    
C29   O7    A    
C33   C34   A    
C12   O3    A    
C21   H5    S    
C12   O4    A    
C24   C35   S    
C10   H12   S    
C13   H13   S    
C3    C4    A    
C26   N2    A    
C8    H14   S    
C22   N1    A    
Cu1   O3    S    
C32   H10   S    
C14   C19   A    
C4    C5    A    
C25   H6    S    
C11   C12   S    
C6    C7    A    
C2    C30   A    
C32   C33   A    
C1    O2    A    
C5    C10   A    
C29   C31   S    
Cu2   O2    S    
C11   C13   A    
C30   C31   A    
C21   H4    S    
O12   H18   S    
C10   C11   A    
C35   O9    D    
C27   H7    S    
C7    C13   A    
C37   O13   D    
C20   C21   S    
O10   H17   S    
C22   C26   A    
C27   C28   S    
C14   C15   A    
C2    C9    A    
Cu2   O8    S    
C4    H11   S    
