data_mof_unit_21127.cif
_audit_creation_date              2013-03-05T16:07:26-0500
_audit_creation_method            fapswitch 2.2
_symmetry_space_group_name_H-M    P1
_symmetry_Int_Tables_number       1
_space_group_crystal_system       triclinic
_cell_length_a                    19.504494
_cell_length_b                    7.093839
_cell_length_c                    17.558685
_cell_angle_alpha                 90.546877
_cell_angle_beta                  108.723583
_cell_angle_gamma                 89.352591
_cell_volume                      2300.68761378

loop_
_atom_site_label
_atom_site_type_symbol
_atom_site_description
_atom_site_fract_x
_atom_site_fract_y
_atom_site_fract_z
_atom_type_partial_charge
O1    O     O_R   0.413720 0.494330 0.415730 -0.613283
O2    O     O_R   0.586280 0.994330 0.584270 -0.611530
O3    O     O_R   0.560210 0.819300 0.430070 -0.563900
O4    O     O_R   0.439790 0.319300 0.569930 -0.578606
C1    C     C_R   0.581232 0.653821 0.414208 0.990923
C2    C     C_R   0.419464 0.156457 0.586695 1.011997
O5    O     O_R   0.412670 0.823730 0.406310 -0.573019
O6    O     O_R   0.587330 0.323730 0.593690 -0.573501
O7    O     O_R   0.437690 0.998790 0.560340 -0.586110
O8    O     O_R   0.562310 0.498790 0.439660 -0.581704
C3    C     C_R   0.385763 0.655298 0.382978 0.950289
C4    C     C_R   0.614638 0.155199 0.616460 0.978965
O9    O     O_3   0.508380 0.662350 0.550560 -0.251450
O10   O     O_3   0.491620 0.162350 0.449440 -0.231793
V1    V     V_3+5 0.498450 0.935370 0.490620 1.274108
V2    V     V_3+5 0.501550 0.435370 0.509380 1.277022
C5    C     C_R   0.695597 0.010274 0.744645 0.139782
C6    C     C_R   0.304858 0.507614 0.254348 0.122364
C7    C     C_R   0.682845 0.148208 0.685145 -0.253393
C8    C     C_R   0.317861 0.648526 0.313756 -0.263264
C9    C     C_R   0.737057 0.283839 0.693481 -0.102910
C10   C     C_R   0.263643 0.787156 0.305248 -0.122948
H1    H     H_    0.728958 0.393299 0.648739 0.112887
H2    H     H_    0.271894 0.899108 0.349631 0.116981
C11   C     C_R   0.804543 0.271044 0.755186 0.032560
C12   C     C_R   0.195862 0.774471 0.244144 0.033492
C13   C     C_R   0.817689 0.125179 0.813532 -0.234663
C14   C     C_R   0.182070 0.624586 0.186709 -0.248598
C15   C     C_R   0.761045 0.000222 0.807445 0.112518
C16   C     C_R   0.238459 0.495946 0.193013 0.147667
C17   C     C_3   0.762296 0.790215 0.804612 -0.589131
C18   C     C_3   0.237231 0.286308 0.196986 -0.595826
C19   C     C_3   0.690892 0.800289 0.736154 0.177432
C20   C     C_3   0.310666 0.297589 0.262020 0.173023
H3    H     H_    0.758831 0.727145 0.860992 0.228506
H4    H     H_    0.237497 0.217450 0.139934 0.232378
H5    H     H_    0.807411 0.736902 0.784769 0.182099
H6    H     H_    0.194108 0.238604 0.220594 0.178137
H7    H     H_    0.693711 0.745001 0.677727 0.056389
H8    H     H_    0.311235 0.244496 0.321671 0.067228
C21   C     C_R   0.322756 0.000767 0.627574 -0.194272
C22   C     C_R   0.679542 0.791659 0.370872 -0.213164
C23   C     C_R   0.370826 0.151622 0.637006 -0.293598
C24   C     C_R   0.631445 0.642563 0.365863 -0.302375
C25   C     C_R   0.370079 0.298807 0.692135 0.276748
C26   C     C_R   0.632123 0.486603 0.315019 0.279884
C27   C     C_R   0.319782 0.295611 0.735112 -0.029864
C28   C     C_R   0.681011 0.481564 0.270333 -0.021950
C29   C     C_R   0.272218 0.141474 0.725058 0.007065
C30   C     C_R   0.728140 0.634582 0.275347 0.010470
C31   C     C_R   0.274353 0.993571 0.671589 0.161337
C32   C     C_R   0.727040 0.789790 0.325655 0.153616
C33   C     C_R   0.316909 0.440799 0.789415 -0.105322
C34   C     C_R   0.683804 0.326865 0.220471 -0.103419
C35   C     C_R   0.267812 0.434084 0.832258 -0.202367
C36   C     C_R   0.731732 0.324591 0.176101 -0.208512
C37   C     C_R   0.221081 0.280953 0.823144 0.148707
C38   C     C_R   0.777920 0.476771 0.180081 0.145960
C39   C     C_R   0.223090 0.133621 0.769471 0.035723
C40   C     C_R   0.776307 0.632868 0.229690 0.036377
C41   C     C_R   0.176498 0.977909 0.760463 0.136455
C42   C     C_R   0.822506 0.787386 0.233601 0.138720
C43   C     C_R   0.179657 0.831978 0.706601 -0.219705
C44   C     C_R   0.820523 0.940698 0.284519 -0.218346
C45   C     C_R   0.227886 0.840026 0.662770 -0.193463
C46   C     C_R   0.773582 0.941358 0.330093 -0.209945
C47   C     C_R   0.173356 0.272286 0.867991 -0.245411
C48   C     C_R   0.825376 0.474638 0.134873 -0.243233
C49   C     C_R   0.127339 0.117371 0.861220 -0.190252
C50   C     C_R   0.871094 0.627716 0.136674 -0.187055
C51   C     C_R   0.128319 0.969572 0.805774 -0.049617
C52   C     C_R   0.869421 0.786362 0.186600 -0.057309
H9    H     H_    0.322509 0.888757 0.585025 0.158412
H10   H     H_    0.680493 0.909490 0.410917 0.171581
H11   H     H_    0.352545 0.560711 0.799487 0.191022
H12   H     H_    0.649404 0.205738 0.215796 0.189139
H13   H     H_    0.266897 0.548546 0.873269 0.149095
H14   H     H_    0.732635 0.203095 0.138515 0.149871
H15   H     H_    0.173230 0.385600 0.909852 0.147923
H16   H     H_    0.825744 0.353626 0.096780 0.145369
H17   H     H_    0.145246 0.709685 0.698317 0.149706
H18   H     H_    0.855023 0.061725 0.289308 0.151414
H19   H     H_    0.229152 0.724870 0.622208 0.136704
H20   H     H_    0.773237 0.061882 0.368386 0.139746
O11   O     O_R   0.937800 0.775460 0.060470 -0.601270
O12   O     O_R   0.062200 0.275460 0.939530 -0.591416
O13   O     O_R   0.087350 0.441340 0.093710 -0.587782
O14   O     O_R   0.912650 0.941340 0.906290 -0.589930
C53   C     C_R   0.113534 0.610837 0.118057 0.936845
C54   C     C_R   0.886252 0.110973 0.882164 0.933055
O15   O     O_R   0.939820 0.446010 0.069950 -0.596888
O16   O     O_R   0.060180 0.946010 0.930050 -0.605313
O17   O     O_R   0.913690 0.271230 0.915700 -0.596163
O18   O     O_R   0.086310 0.771230 0.084300 -0.596093
C55   C     C_R   0.919630 0.616165 0.086135 0.941364
C56   C     C_R   0.079892 0.112973 0.913163 0.941738
O19   O     O_3   0.991670 0.603050 0.949510 -0.291278
O20   O     O_3   0.008330 0.103050 0.050490 -0.293384
V3    V     V_3+5 0.001550 0.329940 0.009370 1.133580
V4    V     V_3+5 0.998450 0.829940 0.990630 1.127363
N1    N     N_3   0.079891 0.812644 0.792828 -0.220767
H21   H     H_    0.026857 0.862401 0.781074 0.106999
H22   H     H_    0.095011 0.727140 0.843754 0.149002
N2    N     N_3   0.915602 0.945513 0.191891 -0.218854
H23   H     H_    0.969100 0.898667 0.205343 0.105395
H24   H     H_    0.899333 0.016415 0.137017 0.152085
N3    N     N_3   0.860903 0.394972 0.751483 -0.225883
H25   H     H_    0.877207 0.477894 0.803393 0.150576
H26   H     H_    0.905135 0.313195 0.749151 0.082706
N4    N     N_3   0.139781 0.902608 0.248037 -0.225500
H27   H     H_    0.122697 0.982480 0.195681 0.151078
H28   H     H_    0.096117 0.823689 0.251893 0.077859
N5    N     N_R   0.631136 0.722004 0.758565 0.273493
O21   O     O_R   0.633125 0.545032 0.777888 -0.331303
O22   O     O_R   0.572338 0.820111 0.749958 -0.320473
N6    N     N_R   0.368874 0.219819 0.235182 0.274829
O23   O     O_R   0.375641 0.270027 0.166814 -0.330123
O24   O     O_R   0.411422 0.089592 0.277228 -0.318890
N7    N     N_R   0.423313 0.444267 0.708261 0.242774
O25   O     O_R   0.491422 0.401751 0.740972 -0.303086
O26   O     O_R   0.404385 0.616676 0.686075 -0.398954
N8    N     N_R   0.580472 0.339184 0.304903 0.234372
O27   O     O_R   0.526322 0.328961 0.238540 -0.314884
O28   O     O_R   0.595176 0.197020 0.353819 -0.399861

loop_
_geom_bond_atom_site_label_1
_geom_bond_atom_site_label_2
_geom_bond_distance
_ccdc_geom_bond_type
C48   H16   1.084585 S    
C43   C45   1.395461 A    
N1    H21   1.045570 S    
C13   C15   1.400823 A    
C5    C15   1.395086 A    
O1    C3    1.314952 A    
C49   C56   1.494085 S    
O2    C4    1.314890 A    
C2    O7    1.295465 A    
N2    H24   1.044682 S    
C32   C46   1.400437 A    
C27   C29   1.414731 A    
O17   V3    2.002192 S    
C28   C34   1.408813 A    
C11   N3    1.433284 S    
C19   H7    1.112381 S    
C5    C19   1.496536 S    
C43   H17   1.082725 S    
C20   H8    1.113081 S    
C18   H4    1.111788 S    
C7    C9    1.409305 A    
C35   H13   1.083940 S    
C37   C39   1.409262 A    
C38   C40   1.408654 A    
O16   C56   1.314820 A    
C36   H14   1.083958 S    
N6    O23   1.302427 A    
C13   C54   1.488421 S    
C40   C42   1.413968 A    
C31   C45   1.400272 A    
C25   C27   1.417208 A    
C53   O18   1.313406 A    
C49   C51   1.428098 A    
N4    H27   1.042208 S    
C42   C44   1.409367 A    
C44   C46   1.396000 A    
C36   C38   1.400711 A    
C29   C31   1.410418 A    
C30   C32   1.409279 A    
N3    H25   1.042035 S    
C17   C19   1.521252 S    
C14   C53   1.488530 S    
C6    C16   1.396137 A    
C18   H6    1.107590 S    
C12   N4    1.432393 S    
C6    C8    1.402717 A    
C27   C33   1.409733 A    
C48   C50   1.406578 A    
C41   C51   1.414809 A    
C28   C30   1.414138 A    
C51   N1    1.436743 S    
O6    V2    2.005060 S    
N3    H26   1.045671 S    
C33   H11   1.081458 S    
C22   C24   1.405032 A    
C37   C47   1.401120 A    
N2    H23   1.044242 S    
O19   V3    2.189927 S    
C24   C26   1.417604 A    
O13   V3    2.008632 S    
C33   C35   1.396200 A    
C34   C36   1.395722 A    
C3    C8    1.483407 S    
C22   H10   1.083599 S    
C39   C41   1.413514 A    
C47   H15   1.084545 S    
O4    C2    1.292296 A    
O5    V1    2.008828 S    
C52   N2    1.435919 S    
C46   H20   1.083933 S    
C17   H5    1.107041 S    
C47   C49   1.406656 A    
C18   C20   1.520748 S    
O4    V2    2.029953 S    
O5    C3    1.318207 A    
O2    V1    2.002025 S    
C23   C25   1.420149 A    
O18   V4    2.000666 S    
O6    C4    1.315617 A    
C41   C43   1.409669 A    
C42   C52   1.415273 A    
O1    V2    2.000495 S    
O12   V3    1.991098 S    
C6    C20   1.496979 S    
C44   H18   1.082743 S    
O14   V4    2.004874 S    
N7    O26   1.300168 A    
O12   C56   1.321145 A    
C34   H12   1.082380 S    
C38   C48   1.399389 A    
C1    C24   1.488905 S    
C8    C10   1.409121 A    
O20   V4    2.175986 S    
C2    C23   1.490247 S    
C35   C37   1.400644 A    
C17   H3    1.112141 S    
N8    O28   1.299566 A    
O19   V4    1.746618 S    
O3    V1    2.010586 S    
O16   V4    2.029882 S    
C54   O17   1.313088 A    
N5    O21   1.300488 A    
C9    C11   1.413602 A    
C12   C14   1.425393 A    
C21   C23   1.404023 A    
O14   C54   1.322230 A    
O3    C1    1.296105 A    
N7    O25   1.299992 A    
C11   C13   1.425342 A    
C19   N5    1.461135 S    
C29   C39   1.418176 A    
C30   C40   1.417222 A    
C9    H1    1.083647 S    
C50   C55   1.492161 S    
O7    V1    2.003582 S    
C1    O8    1.292230 A    
C15   C17   1.490295 S    
O11   V4    2.000809 S    
O8    V2    2.014811 S    
C16   C18   1.490262 S    
O11   C55   1.314126 A    
C25   N7    1.432786 S    
C4    C7    1.482011 S    
C14   C16   1.398482 A    
C5    C7    1.399267 A    
N6    O24   1.299817 A    
C10   H2    1.083743 S    
N4    H28   1.044895 S    
C45   H19   1.083928 S    
C21   H9    1.084437 S    
C26   C28   1.416028 A    
O15   C55   1.321881 A    
N1    H22   1.044740 S    
O20   V3    1.756538 S    
C10   C12   1.413212 A    
O9    V2    1.747561 S    
O13   C53   1.324087 A    
O10   V1    1.757476 S    
C26   N8    1.430206 S    
C50   C52   1.426471 A    
O15   V3    2.010517 S    
N8    O27   1.299429 A    
C20   N6    1.462781 S    
C21   C31   1.400529 A    
C22   C32   1.400200 A    
N5    O22   1.301958 A    
