data_mof_unit_6199.cif
_audit_creation_date              2012-12-10T16:54:52-0500
_audit_creation_method            fapswitch 2.2
_symmetry_space_group_name_H-M    P1
_symmetry_Int_Tables_number       1
_space_group_crystal_system       triclinic
_cell_length_a                    7.959418
_cell_length_b                    8.536765
_cell_length_c                    15.680604
_cell_angle_alpha                 92.633824
_cell_angle_beta                  81.838751
_cell_angle_gamma                 93.889374
_cell_volume                      1051.5291996

loop_
_atom_site_label
_atom_site_type_symbol
_atom_type_description
_atom_site_fract_x
_atom_site_fract_y
_atom_site_fract_z
_atom_type_partial_charge
C1    C     C_R   0.545342 0.794095 0.497743 0.942237
C2    C     C_2   0.431304 0.041825 0.502766 -0.346193
C3    C     C_R   0.495666 0.500860 0.661579 0.874854
C4    C     C_R   0.454704 0.205888 0.501923 0.953262
C5    C     C_R   0.504231 0.498843 0.338403 0.894470
C6    C     C_3   0.401407 0.653783 0.966777 0.012934
C7    C     C_3   0.663808 0.499357 0.931246 -0.478073
C8    C     C_3   0.682936 0.524441 0.027042 0.013280
C9    C     C_1   0.515609 0.495438 0.248577 -0.062400
C10   C     C_3   0.473695 0.503706 0.919153 0.101871
C11   C     C_3   0.406326 0.640292 0.065713 -0.030373
C12   C     C_3   0.506507 0.493424 0.082060 0.016856
C13   C     C_3   0.417841 0.333165 0.050048 0.336702
C14   C     C_3   0.370689 0.356760 0.959028 -0.416251
C15   C     C_1   0.519884 0.492989 0.172672 0.055474
C16   C     C_1   0.471292 0.503938 0.827608 0.011999
C17   C     C_1   0.482498 0.502528 0.751437 -0.139086
C18   C     C_2   0.568802 0.958122 0.496220 -0.347077
H1    H     H_    0.698670 0.009359 0.489936 0.196438
H2    H     H_    0.743316 0.592633 0.894167 0.202277
H3    H     H_    0.301435 0.990594 0.508952 0.190817
H4    H     H_    0.988381 0.625244 0.562900 0.168414
H5    H     H_    0.489000 0.755567 0.944288 0.146575
H6    H     H_    0.711911 0.384414 0.905979 0.239184
H7    H     H_    0.730832 0.648388 0.037928 0.171564
H8    H     H_    0.232893 0.372743 0.963383 0.236204
H9    H     H_    0.395237 0.251030 0.916121 0.197638
H10   H     H_    0.482238 0.747100 0.085180 0.149642
I1    I     I_    0.164475 0.716585 0.928456 -0.308678
I2    I     I_    0.179161 0.683390 0.155197 -0.187243
I3    I     I_    0.559188 0.122952 0.040810 -0.301824
I4    I     I_    0.040832 0.277081 0.394594 -0.132758
I5    I     I_    0.885881 0.402505 0.057828 -0.235130
I6    I     I_    0.212256 0.239113 0.141167 -0.164786
N1    N     N_2   0.950340 0.457950 0.477370 0.009526
N2    N     N_2   0.049660 0.542050 0.522630 -0.136384
O1    O     O_R   0.389240 0.738570 0.505550 -0.616140
O2    O     O_R   0.678400 0.711630 0.491050 -0.628306
O3    O     O_R   0.355360 0.513470 0.630110 -0.607824
O4    O     O_R   0.644510 0.486530 0.615610 -0.629237
O5    O     O_R   0.321600 0.288370 0.508950 -0.604179
O6    O     O_R   0.610760 0.261430 0.494450 -0.605139
O7    O     O_R   0.355490 0.513470 0.384390 -0.581781
O8    O     O_R   0.644640 0.486530 0.369890 -0.588170
Zn1   Zn    Zn3+2 0.306930 0.517990 0.509680 1.008695
Zn2   Zn    Zn3+2 0.693070 0.482010 0.490320 1.016117

loop_
_geom_bond_atom_site_label_1
_geom_bond_atom_site_label_2
_ccdc_geom_bond_type
C6    C10   S    
C7    C10   S    
C2    C4    S    
C11   C12   S    
C5    C9    S    
C14   H9    S    
C2    C18   D    
H4    N2    S    
N1    N2    D    
C12   C15   S    
C1    O1    A    
O3    Zn1   S    
C2    H3    S    
C5    O7    A    
C3    O3    A    
N2    Zn1   S    
C10   C16   S    
C13   C14   S    
C14   H8    S    
O4    Zn2   S    
C8    H7    S    
O7    Zn1   S    
C1    C18   S    
C4    O6    A    
C1    O2    A    
C6    H5    S    
C11   H10   S    
C5    O8    A    
O8    Zn2   S    
C3    O4    A    
C3    C17   S    
C8    I5    S    
C10   C14   S    
O2    Zn2   S    
C4    O5    A    
O1    Zn1   S    
C7    H6    S    
I4    N1    S    
C7    C8    S    
C6    I1    S    
C12   C13   S    
C7    H2    S    
O6    Zn2   S    
C6    C11   S    
O5    Zn1   S    
C18   H1    S    
C13   I6    S    
C9    C15   T    
N1    Zn2   S    
C13   I3    S    
C8    C12   S    
C11   I2    S    
C16   C17   T    
