data_mof_unit_56696.cif
_audit_creation_date              2012-12-10T17:46:30-0500
_audit_creation_method            fapswitch 2.2
_symmetry_space_group_name_H-M    P1
_symmetry_Int_Tables_number       1
_space_group_crystal_system       triclinic
_cell_length_a                    20.735066
_cell_length_b                    21.208777
_cell_length_c                    14.746644
_cell_angle_alpha                 89.997977
_cell_angle_beta                  127.816962
_cell_angle_gamma                 89.999361
_cell_volume                      5123.02863323

loop_
_atom_site_label
_atom_site_type_symbol
_atom_type_description
_atom_site_fract_x
_atom_site_fract_y
_atom_site_fract_z
_atom_type_partial_charge
C1    C     C_R   0.603450 0.914155 0.632143 0.804798
C2    C     C_R   0.396540 0.085839 0.367844 0.804837
C3    C     C_R   0.397160 0.913692 0.368623 0.803468
C4    C     C_R   0.602844 0.086297 0.631383 0.803504
C5    C     C_R   0.102839 0.413689 0.631377 0.803443
C6    C     C_R   0.897160 0.586309 0.368624 0.803500
C7    C     C_R   0.896582 0.414126 0.367904 0.804813
C8    C     C_R   0.103447 0.585846 0.632139 0.804841
C9    C     C_R   0.343104 0.765803 0.940081 0.350952
C10   C     C_R   0.658026 0.233144 0.061465 0.351090
C11   C     C_R   0.700062 0.797315 0.110060 0.365870
C12   C     C_R   0.300163 0.202791 0.890126 0.365300
C13   C     C_R   0.799072 0.297712 0.889224 0.366084
C14   C     C_R   0.200077 0.702691 0.110065 0.365944
C15   C     C_R   0.156438 0.265409 0.059294 0.350707
C16   C     C_R   0.843185 0.734259 0.940202 0.350901
C17   C     C_R   0.322266 0.994718 0.666506 -0.274377
C18   C     C_R   0.677731 0.005369 0.333496 -0.273896
C19   C     C_R   0.822287 0.505596 0.666515 -0.273808
C20   C     C_R   0.177725 0.494551 0.333498 -0.274408
C21   C     C_R   0.351823 0.997002 0.603471 0.081246
C22   C     C_R   0.648176 0.003026 0.396530 0.081266
C23   C     C_R   0.851832 0.503149 0.603476 0.081164
C24   C     C_R   0.148171 0.496899 0.396530 0.081222
C25   C     C_R   0.488137 0.001485 0.775147 0.028127
C26   C     C_R   0.511865 0.998546 0.224853 0.028085
C27   C     C_R   0.988135 0.498498 0.775146 0.027984
C28   C     C_R   0.011870 0.501551 0.224855 0.028144
C29   C     C_R   0.461894 0.999759 0.844856 0.004694
C30   C     C_R   0.538106 0.000334 0.155145 0.004897
C31   C     C_R   0.961902 0.500375 0.844859 0.004590
C32   C     C_R   0.038113 0.499781 0.155151 0.004691
C33   C     C_R   0.376778 0.995762 0.786869 0.193854
C34   C     C_R   0.623220 0.004354 0.213132 0.194316
C35   C     C_R   0.876801 0.504554 0.786879 0.194120
C36   C     C_R   0.123218 0.495647 0.213135 0.193769
C37   C     C_R   0.516174 0.001505 0.968590 0.122629
C38   C     C_R   0.483827 0.998619 0.031410 0.122673
C39   C     C_R   0.016179 0.498609 0.968595 0.122318
C40   C     C_R   0.983842 0.501600 0.031418 0.122348
C41   C     C_R   0.398435 0.993931 0.968363 -0.167834
C42   C     C_R   0.601562 0.006233 0.031637 -0.167166
C43   C     C_R   0.898470 0.506513 0.968379 -0.167478
C44   C     C_R   0.101558 0.493766 0.031639 -0.167965
C45   C     C_R   0.346364 0.992678 0.848977 -0.100017
C46   C     C_R   0.653632 0.007490 0.151024 -0.098499
C47   C     C_R   0.846403 0.507823 0.848994 -0.098916
C48   C     C_R   0.153625 0.492471 0.151025 -0.100247
C49   C     C_R   0.657905 0.138585 0.700621 -0.055827
C50   C     C_R   0.342060 0.861416 0.299352 -0.055847
C51   C     C_R   0.334522 0.132764 0.290131 -0.057135
C52   C     C_R   0.665416 0.867188 0.709787 -0.057127
C53   C     C_R   0.165400 0.632822 0.709768 -0.057155
C54   C     C_R   0.834788 0.367001 0.290511 -0.057201
C55   C     C_R   0.842061 0.638591 0.299361 -0.055842
C56   C     C_R   0.157943 0.361408 0.700648 -0.055822
C57   C     C_R   0.748491 0.222700 0.733176 -0.127358
C58   C     C_R   0.250771 0.777728 0.266142 -0.127548
C59   C     C_R   0.220705 0.200035 0.230946 -0.135725
C60   C     C_R   0.778989 0.799705 0.768655 -0.135725
C61   C     C_R   0.278929 0.700337 0.768571 -0.135688
C62   C     C_R   0.722171 0.298686 0.232884 -0.135632
C63   C     C_R   0.750763 0.722276 0.266148 -0.127584
C64   C     C_R   0.249439 0.277844 0.734046 -0.127896
C65   C     C_R   0.700985 0.170551 0.670076 -0.207124
C66   C     C_R   0.298490 0.829771 0.329406 -0.206994
C67   C     C_R   0.279564 0.156135 0.307048 -0.204642
C68   C     C_R   0.720228 0.843694 0.692685 -0.204651
C69   C     C_R   0.220188 0.656332 0.692634 -0.204665
C70   C     C_R   0.780618 0.342967 0.308424 -0.204609
C71   C     C_R   0.798485 0.670230 0.329413 -0.206998
C72   C     C_R   0.201661 0.329862 0.670741 -0.206912
C73   C     C_R   0.663513 0.158679 0.795189 -0.211429
C74   C     C_R   0.336807 0.841055 0.205183 -0.211745
C75   C     C_R   0.329437 0.153064 0.196008 -0.219045
C76   C     C_R   0.670568 0.846938 0.803984 -0.219005
C77   C     C_R   0.170556 0.653070 0.803970 -0.218952
C78   C     C_R   0.829274 0.347023 0.195904 -0.218798
C79   C     C_R   0.836815 0.658963 0.205204 -0.211817
C80   C     C_R   0.163074 0.340952 0.794677 -0.211955
C81   C     C_R   0.706789 0.213368 0.856083 0.061394
C82   C     C_R   0.293258 0.786483 0.144107 0.061394
C83   C     C_R   0.268134 0.194809 0.114612 0.062328
C84   C     C_R   0.731782 0.805099 0.885251 0.062357
C85   C     C_R   0.231754 0.694926 0.885209 0.062352
C86   C     C_R   0.768390 0.304831 0.115126 0.062384
C87   C     C_R   0.793275 0.713542 0.144144 0.061403
C88   C     C_R   0.206678 0.286397 0.855771 0.061450
C89   C     C_R   0.751950 0.244811 0.826155 0.065906
C90   C     C_R   0.247545 0.755412 0.173455 0.065689
C91   C     C_R   0.214596 0.220281 0.134969 0.065328
C92   C     C_R   0.785149 0.779492 0.864686 0.065249
C93   C     C_R   0.285093 0.720551 0.864604 0.065229
C94   C     C_R   0.715699 0.278690 0.136510 0.065335
C95   C     C_R   0.747544 0.744601 0.173470 0.065752
C96   C     C_R   0.252580 0.255453 0.826625 0.065731
C97   C     C_R   0.707298 0.236594 0.947038 -0.004560
C98   C     C_R   0.292977 0.763040 0.053463 -0.004616
C99   C     C_R   0.260747 0.213185 0.015815 -0.001804
C100  C     C_R   0.739236 0.786760 0.984113 -0.001788
C101  C     C_R   0.239218 0.713264 0.984079 -0.001814
C102  C     C_R   0.760667 0.286640 0.015995 -0.001684
C103  C     C_R   0.793013 0.736998 0.053526 -0.004618
C104  C     C_R   0.206859 0.262869 0.946279 -0.004588
C105  C     C_R   0.346322 0.786742 0.032027 -0.237370
C106  C     C_R   0.654540 0.212415 0.969202 -0.237189
C107  C     C_R   0.695977 0.817637 0.017094 -0.229866
C108  C     C_R   0.304182 0.182420 0.983019 -0.229948
C109  C     C_R   0.803291 0.317911 0.982347 -0.229593
C110  C     C_R   0.195992 0.682371 0.017099 -0.229833
C111  C     C_R   0.153293 0.286398 0.967430 -0.237540
C112  C     C_R   0.846396 0.713320 0.032142 -0.237469
Cu1   Cu    Cu3+1 0.526640 1.000000 0.436960 0.950981
Cu2   Cu    Cu3+1 0.473360 0.000000 0.563040 0.950988
Cu3   Cu    Cu3+1 0.026640 0.500000 0.436960 0.950968
Cu4   Cu    Cu3+1 0.973360 0.500000 0.563040 0.950913
H1    H     H_    0.369573 0.991139 0.008966 0.115498
H2    H     H_    0.630418 0.009068 0.991030 0.115261
H3    H     H_    0.869625 0.509460 0.008991 0.115405
H4    H     H_    0.130411 0.490883 0.991033 0.115585
H5    H     H_    0.366385 0.869482 0.179965 0.147514
H6    H     H_    0.634375 0.129978 0.820782 0.147147
H7    H     H_    0.624368 0.863248 0.810392 0.158922
H8    H     H_    0.375747 0.136863 0.189752 0.158966
H9    H     H_    0.874973 0.363815 0.188822 0.158786
H10   H     H_    0.124373 0.636745 0.810403 0.158930
H11   H     H_    0.133381 0.369296 0.819810 0.147601
H12   H     H_    0.866388 0.630541 0.179974 0.147466
H13   H     H_    0.301597 0.844951 0.402130 0.163549
H14   H     H_    0.697604 0.155571 0.597046 0.163685
H15   H     H_    0.717324 0.858855 0.620116 0.164185
H16   H     H_    0.282414 0.140934 0.379555 0.164147
H17   H     H_    0.783832 0.357891 0.381350 0.164398
H18   H     H_    0.217278 0.641175 0.620060 0.164219
H19   H     H_    0.198646 0.345113 0.598122 0.163486
H20   H     H_    0.801586 0.655040 0.402129 0.163509
H21   H     H_    0.319229 0.718203 0.751196 0.194127
H22   H     H_    0.682376 0.280408 0.250874 0.194121
H23   H     H_    0.717381 0.745103 0.291475 0.195652
H24   H     H_    0.282940 0.255096 0.708843 0.195599
H25   H     H_    0.781453 0.245814 0.707421 0.195688
H26   H     H_    0.217399 0.754892 0.291480 0.195660
H27   H     H_    0.180261 0.217788 0.248141 0.194133
H28   H     H_    0.819310 0.781852 0.751310 0.194122
H29   H     H_    0.393807 0.820317 0.087816 0.184062
H30   H     H_    0.607325 0.178588 0.913792 0.183892
H31   H     H_    0.660364 0.859584 0.974783 0.170777
H32   H     H_    0.339894 0.140522 0.025423 0.170925
H33   H     H_    0.838503 0.360061 0.024255 0.170549
H34   H     H_    0.160403 0.640412 0.974820 0.170819
H35   H     H_    0.105691 0.319861 0.911455 0.184062
H36   H     H_    0.893903 0.679765 0.087974 0.184073
H37   H     H_    0.281180 0.989329 0.804583 0.136433
H38   H     H_    0.718813 0.010875 0.195419 0.136339
H39   H     H_    0.781233 0.511340 0.804603 0.136514
H40   H     H_    0.218800 0.489007 0.195420 0.136472
H41   H     H_    0.448271 0.996566 0.188009 0.114571
H42   H     H_    0.551733 0.003438 0.811994 0.114471
H43   H     H_    0.948276 0.503570 0.188004 0.114489
H44   H     H_    0.051726 0.496433 0.811990 0.114620
H45   H     H_    0.690389 0.004199 0.489313 0.124224
H46   H     H_    0.309609 0.995816 0.510688 0.124145
H47   H     H_    0.190379 0.495662 0.489311 0.124152
H48   H     H_    0.809621 0.504362 0.510694 0.124279
H49   H     H_    0.256958 0.991893 0.621255 0.140491
H50   H     H_    0.743038 0.008217 0.378748 0.140484
H51   H     H_    0.756989 0.508556 0.621268 0.140548
H52   H     H_    0.243027 0.491629 0.378749 0.140499
N1    N     N_R   0.433280 0.000000 0.657760 -0.178530
N2    N     N_R   0.566720 0.000000 0.342240 -0.178589
N3    N     N_R   0.933280 0.500000 0.657760 -0.178594
N4    N     N_R   0.066720 0.500000 0.342240 -0.178539
O1    O     O_R   0.600040 0.935040 0.546740 -0.582622
O2    O     O_R   0.399960 0.064960 0.453260 -0.582578
O3    O     O_R   0.399960 0.935040 0.453260 -0.586561
O4    O     O_R   0.600040 0.064960 0.546740 -0.586556
O5    O     O_R   0.100040 0.435040 0.546740 -0.586572
O6    O     O_R   0.899960 0.564960 0.453260 -0.586572
O7    O     O_R   0.899960 0.435040 0.453260 -0.582610
O8    O     O_R   0.100040 0.564960 0.546740 -0.582586
O9    O     O_R   0.555010 0.935070 0.653220 -0.587841
O10   O     O_R   0.444990 0.064930 0.346780 -0.587799
O11   O     O_R   0.444990 0.935070 0.346780 -0.586949
O12   O     O_R   0.555010 0.064930 0.653220 -0.586854
O13   O     O_R   0.055010 0.435070 0.653220 -0.587015
O14   O     O_R   0.944990 0.564930 0.346780 -0.586971
O15   O     O_R   0.944990 0.435070 0.346780 -0.587728
O16   O     O_R   0.055010 0.564930 0.653220 -0.587782
Cl1   Cl    Cl    0.412535 0.799401 0.922015 -0.599558
Cl2   Cl    Cl    0.589371 0.198911 0.080477 -0.600734
Cl3   Cl    Cl    0.642946 0.839458 0.142332 -0.615295
Cl4   Cl    Cl    0.357517 0.160798 0.858103 -0.615289
Cl5   Cl    Cl    0.855548 0.340268 0.856294 -0.616129
Cl6   Cl    Cl    0.142993 0.660530 0.142375 -0.614948
Cl7   Cl    Cl    0.086714 0.298775 0.076989 -0.599780
Cl8   Cl    Cl    0.912654 0.700686 0.922193 -0.599641

loop_
_geom_bond_atom_site_label_1
_geom_bond_atom_site_label_2
_ccdc_geom_bond_type
Cu2   N1    S    
C79   H12   S    
C88   C96   A    
C69   H18   S    
Cu4   O6    S    
C33   C45   A    
C5    C56   S    
C19   C23   A    
C67   H16   S    
C5    O13   A    
C6    C55   S    
C53   C69   A    
C76   C84   A    
C79   C87   A    
C65   H14   S    
C18   H50   S    
C8    O16   A    
C99   C108  A    
Cu4   O16   S    
C1    O1    A    
C10   Cl2   S    
C98   C105  A    
C19   H51   S    
C106  H30   S    
C32   C36   A    
C7    O15   A    
C51   C75   A    
C23   H48   S    
C50   C74   A    
C42   C46   A    
C61   C93   A    
C108  H32   S    
C10   C94   A    
C9    C105  A    
Cu3   Cu4   S    
C21   N1    A    
C63   C95   A    
C2    O2    A    
Cu3   O15   S    
C62   C70   A    
C26   H41   S    
C14   C110  A    
C2    O10   A    
C37   C42   A    
C19   C35   A    
C44   H4    S    
C58   H26   S    
C14   C90   A    
C13   C109  A    
C86   C94   A    
C59   C67   A    
C49   C65   A    
C85   C93   A    
C58   C66   A    
C40   C43   A    
C20   C24   A    
C29   C33   A    
C56   C72   A    
C87   C95   A    
C70   H17   S    
C112  H36   S    
C34   C46   A    
C43   C47   A    
C11   Cl3   S    
C97   C102  A    
C52   C68   A    
C66   H13   S    
C15   Cl7   S    
C78   C86   A    
C32   C40   A    
C99   C104  A    
C48   H40   S    
C59   H27   S    
C83   C99   A    
C6    O6    A    
C82   C98   A    
C17   C33   A    
C74   C82   A    
C46   H38   S    
C73   C81   A    
C88   C104  A    
C3    C50   S    
C28   N4    A    
C60   C92   A    
C25   C29   A    
C20   H52   S    
C30   C34   A    
C27   C31   A    
C75   H8    S    
C84   C100  A    
C75   C83   A    
C15   C111  A    
C107  H31   S    
C28   C32   A    
C12   Cl4   S    
C64   C96   A    
C38   C41   A    
C39   C40   A    
C12   C108  A    
C22   H45   S    
C1    O9    A    
C42   H2    S    
C72   H19   S    
C51   C67   A    
C110  H34   S    
C101  C110  A    
C100  C103  A    
C62   H22   S    
Cu4   N3    S    
C103  C112  A    
C68   H15   S    
C109  H33   S    
C37   C38   A    
C16   Cl8   S    
C22   N2    A    
C55   C79   A    
C8    O8    A    
Cu1   O10   S    
C54   C70   A    
C105  H29   S    
C7    C54   S    
C7    O7    A    
C59   C91   A    
C82   C90   A    
C4    O12   A    
C18   C34   A    
C5    O5    A    
Cu3   O5    S    
C57   C89   A    
C58   C90   A    
Cu1   O4    S    
C87   C103  A    
C97   C106  A    
C3    O3    A    
Cu2   O3    S    
C63   C71   A    
C26   C30   A    
C62   C94   A    
C11   C107  A    
C53   C77   A    
C49   C73   A    
C10   C106  A    
C24   H47   S    
C45   H37   S    
C86   C102  A    
C9    C93   A    
C71   H20   S    
C85   C101  A    
C16   C112  A    
Cu1   O1    S    
Cu1   Cu2   S    
C64   H24   S    
C25   N1    A    
Cu3   O14   S    
C100  C107  A    
C21   H46   S    
C13   C89   A    
C18   C22   A    
C76   H7    S    
C63   H23   S    
Cu3   O8    S    
C57   C65   A    
Cu3   N4    S    
C52   C76   A    
C111  H35   S    
C8    C53   S    
C104  C111  A    
C50   C66   A    
C16   C92   A    
C39   C44   A    
C80   H11   S    
Cu2   O9    S    
C83   C91   A    
Cu4   O13   S    
C6    O14   A    
C56   C80   A    
C98   C101  A    
C57   H25   S    
C4    C49   S    
C9    Cl1   S    
C61   C69   A    
C27   H44   S    
C81   C89   A    
C80   C88   A    
C17   H49   S    
C60   H28   S    
C78   H9    S    
C61   H21   S    
Cu1   O11   S    
C47   H39   S    
C77   C85   A    
Cu2   O12   S    
C31   C35   A    
C81   C97   A    
C31   C39   A    
C36   C48   A    
Cu1   N2    S    
C64   C72   A    
C14   Cl6   S    
C24   N4    A    
C1    C52   S    
C17   C21   A    
C60   C68   A    
C2    C51   S    
C28   H43   S    
C15   C91   A    
C20   C36   A    
Cu2   O2    S    
C74   H5    S    
C11   C95   A    
C26   N2    A    
C73   H6    S    
C4    O4    A    
Cu4   O7    S    
C29   C37   A    
C25   H42   S    
C41   C45   A    
C12   C96   A    
C102  C109  A    
C13   Cl5   S    
C84   C92   A    
C30   C38   A    
C41   H1    S    
C35   C47   A    
C27   N3    A    
C3    O11   A    
C55   C71   A    
C77   H10   S    
C44   C48   A    
C43   H3    S    
C54   C78   A    
C23   N3    A    
