data_mof_unit_44764.cif
_audit_creation_date              2012-12-11T14:29:23-0500
_audit_creation_method            fapswitch 2.2
_symmetry_space_group_name_H-M    P1
_symmetry_Int_Tables_number       1
_space_group_crystal_system       triclinic
_cell_length_a                    6.93647
_cell_length_b                    14.756365
_cell_length_c                    16.233936
_cell_angle_alpha                 90.489514
_cell_angle_beta                  90.346884
_cell_angle_gamma                 90.0837
_cell_volume                      1661.56533878

loop_
_atom_site_label
_atom_site_type_symbol
_atom_type_description
_atom_site_fract_x
_atom_site_fract_y
_atom_site_fract_z
_atom_type_partial_charge
O1    O     O_R   0.494400 0.416610 0.413880 -0.543510
O2    O     O_R   0.823920 0.406790 0.585520 -0.532887
O3    O     O_R   0.994250 0.583390 0.586120 -0.537522
C1    C     C_R   0.654765 0.383692 0.612098 0.735548
O4    O     O_R   0.824110 0.405730 0.414490 -0.542577
O5    O     O_R   0.994440 0.582310 0.413870 -0.544940
C2    C     C_R   0.654154 0.383439 0.386699 0.758320
O6    O     O_R   0.494210 0.417690 0.586130 -0.534742
O7    O     O_3   0.660810 0.557940 0.500000 -0.375068
V1    V     V_3+5 0.935650 0.489250 0.500000 1.477348
O8    O     O_R   0.324160 0.593210 0.414480 -0.548108
C3    C     C_R   0.155196 0.615108 0.386441 0.717174
O9    O     O_R   0.323970 0.594270 0.585510 -0.533488
C4    C     C_R   0.155653 0.615116 0.614788 0.784574
V2    V     V_3+5 0.435660 0.510750 0.500000 1.467730
O10   O     O_3   0.160630 0.442060 0.500000 -0.362885
C5    C     C_R   0.196343 0.560739 0.791027 0.178967
C6    C     C_R   0.214188 0.537220 0.874165 -0.154101
C7    C     C_R   0.201942 0.602356 0.935773 -0.155918
C8    C     C_R   0.171049 0.692373 0.915797 -0.138824
C9    C     C_R   0.152063 0.719800 0.832894 0.027571
C10   C     C_R   0.165398 0.653300 0.768274 0.064892
C11   C     C_R   0.118879 0.812328 0.814608 -0.122913
C12   C     C_R   0.099027 0.839453 0.731553 0.019138
C13   C     C_R   0.112833 0.774380 0.666667 -0.007822
C14   C     C_R   0.146153 0.681525 0.684414 -0.139436
C15   C     C_R   0.066453 0.931355 0.711633 -0.278288
C16   C     C_R   0.047762 0.958901 0.629967 0.401036
C17   C     C_R   0.061136 0.895091 0.566165 0.415805
C18   C     C_R   0.093376 0.804121 0.584332 -0.269689
H1    H     H_    0.237661 0.467201 0.891044 0.119862
H2    H     H_    0.215891 0.582899 0.999686 0.121630
H3    H     H_    0.161574 0.740218 0.966478 0.099150
H4    H     H_    0.055346 0.982926 0.759183 0.142919
H5    H     H_    0.103381 0.757252 0.532917 0.142179
C19   C     C_2   0.984996 0.710657 0.283367 -0.097438
C20   C     C_2   0.149940 0.683063 0.319809 -0.273981
H6    H     H_    0.848758 0.683018 0.304264 0.133239
H7    H     H_    0.287731 0.710254 0.301046 0.133447
C21   C     C_2   0.973194 0.778162 0.215423 -0.102193
C22   C     C_2   0.126616 0.814849 0.177409 -0.290498
H8    H     H_    0.829220 0.797595 0.195801 0.135691
H9    H     H_    0.271749 0.796139 0.195211 0.130959
C23   C     C_2   0.769825 0.203732 0.777363 -0.070333
C24   C     C_2   0.613765 0.189227 0.825217 0.035418
H10   H     H_    0.895519 0.160677 0.784810 0.122893
C25   C     C_2   0.788132 0.277790 0.716055 -0.060495
C26   C     C_2   0.637904 0.310937 0.673145 -0.249328
H11   H     H_    0.932588 0.301904 0.703069 0.132189
H12   H     H_    0.495100 0.282496 0.680553 0.183814
C27   C     C_2   0.785525 0.203500 0.221509 0.238167
C28   C     C_2   0.622282 0.182118 0.177793 -0.345291
H13   H     H_    0.488937 0.217609 0.190148 0.119205
C29   C     C_2   0.791516 0.275451 0.286226 -0.088803
C30   C     C_2   0.636682 0.313892 0.321304 -0.351512
H14   H     H_    0.934146 0.295720 0.307546 0.160544
H15   H     H_    0.492008 0.293632 0.303613 0.144951
O11   O     O_R   0.770210 0.079270 0.910680 -0.549785
O12   O     O_R   0.440150 0.091160 0.082270 -0.540474
O13   O     O_R   0.269970 0.914530 0.082860 -0.539465
C31   C     C_R   0.610357 0.112670 0.111179 0.749227
O14   O     O_R   0.440480 0.090100 0.911240 -0.541772
O15   O     O_R   0.270310 0.913460 0.910610 -0.533993
C32   C     C_R   0.608931 0.113524 0.884667 0.697024
O16   O     O_R   0.769870 0.080340 0.082930 -0.544957
O17   O     O_3   0.603660 0.938980 0.996790 -0.366666
V3    V     V_3+5 0.328750 0.007610 0.996740 1.421357
O18   O     O_R   0.940600 0.902510 0.911180 -0.538021
C33   C     C_R   0.109026 0.881136 0.882401 0.697159
O19   O     O_R   0.940270 0.903570 0.082200 -0.542228
C34   C     C_R   0.109749 0.882055 0.110516 0.739714
V4    V     V_3+5 0.828770 0.986010 0.996670 1.420304
O20   O     O_3   0.103730 0.054750 0.996710 -0.379782
Cl1   Cl    Cl    0.038391 0.927120 0.462374 -0.555271
N1    N     N_3   0.453405 0.250739 0.823713 -0.683502
H16   H     H_    0.329283 0.214100 0.807847 0.241549
H17   H     H_    0.435051 0.277030 0.883156 0.217513
N2    N     N_3   0.966056 0.158412 0.207380 -0.644198
H18   H     H_    0.948734 0.088597 0.215114 0.261049
H19   H     H_    0.014698 0.172817 0.148098 0.238141
N3    N     N_3   0.209164 0.489129 0.731222 -0.668459
H20   H     H_    0.099787 0.442309 0.743036 0.216127
H21   H     H_    0.341456 0.456412 0.739300 0.234743
Cl2   Cl    Cl    0.008256 0.074288 0.609350 -0.597102

loop_
_geom_bond_atom_site_label_1
_geom_bond_atom_site_label_2
_ccdc_geom_bond_type
C16   Cl2   S    
C11   C33   S    
C7    C8    A    
C12   C15   A    
C2    C30   S    
C1    O6    A    
N3    H20   S    
C25   H11   S    
C23   C24   D    
C18   H5    S    
C16   C17   A    
C28   C31   S    
O5    C3    A    
N2    H19   S    
V2    O10   S    
C6    C7    A    
C3    C20   S    
O14   C32   A    
O12   V3    S    
O8    V2    S    
O17   V4    S    
O15   C33   A    
O13   V3    S    
O18   C33   A    
C11   C12   A    
O19   C34   A    
V3    O20   S    
O7    V1    S    
C23   C25   S    
C22   C34   S    
C26   H12   S    
O17   V3    S    
C15   H4    S    
O9    C4    A    
C22   H9    S    
C7    H2    S    
N3    H21   S    
C23   H10   S    
O15   V3    S    
C9    C11   A    
O11   C32   A    
C29   H14   S    
O12   C31   A    
C27   C28   D    
C19   C21   S    
C12   C13   A    
O4    C2    A    
N2    H18   S    
C17   Cl1   S    
O13   C34   A    
C13   C14   A    
O2    C1    A    
N1    H16   S    
C17   C18   A    
C21   H8    S    
C25   C26   D    
O18   V4    S    
C5    C6    A    
C4    C14   S    
N1    H17   S    
O3    C4    A    
O1    V2    S    
C8    H3    S    
O14   V3    S    
C21   C22   D    
O6    V2    S    
O9    V2    S    
O2    V1    S    
C28   H13   S    
C1    C26   S    
C13   C18   A    
C29   C30   D    
C19   C20   D    
O1    C2    A    
V4    O20   S    
O5    V1    S    
O8    C3    A    
O16   V4    S    
C24   C32   S    
C5    C10   A    
C24   N1    S    
C27   C29   S    
C30   H15   S    
O7    V2    S    
C27   N2    S    
O4    V1    S    
C20   H7    S    
O3    V1    S    
V1    O10   S    
O11   V4    S    
C19   H6    S    
C5    N3    S    
C31   O16   A    
C8    C9    A    
C10   C14   A    
C15   C16   A    
O19   V4    S    
C6    H1    S    
C9    C10   A    
