data_mof_unit_23393.cif
_audit_creation_date              2012-12-10T19:48:01-0500
_audit_creation_method            fapswitch 2.2
_symmetry_space_group_name_H-M    P1
_symmetry_Int_Tables_number       1
_space_group_crystal_system       triclinic
_cell_length_a                    14.983572
_cell_length_b                    14.105204
_cell_length_c                    10.666675
_cell_angle_alpha                 90.568542
_cell_angle_beta                  89.629336
_cell_angle_gamma                 90.518209
_cell_volume                      2254.11365206

loop_
_atom_site_label
_atom_site_type_symbol
_atom_type_description
_atom_site_fract_x
_atom_site_fract_y
_atom_site_fract_z
_atom_type_partial_charge
C1    C     C_R   0.327935 0.499428 0.500220 0.999116
C2    C     C_R   0.571716 0.798210 0.458619 -0.073214
C3    C     C_R   0.553128 0.205831 0.581225 -0.068580
C4    C     C_R   0.426473 0.793016 0.544915 0.026475
C5    C     C_R   0.495993 0.053670 0.505676 0.039014
C6    C     C_R   0.496194 0.947029 0.505992 0.055054
C7    C     C_R   0.517638 0.499042 0.262563 1.002202
C8    C     C_R   0.501478 0.500475 0.741994 0.900754
C9    C     C_R   0.619343 0.652728 0.126619 0.379093
C10   C     C_R   0.438079 0.342182 0.902893 0.396273
C11   C     C_R   0.611219 0.649169 0.868436 0.427580
C12   C     C_R   0.673361 0.500538 0.506675 0.930657
C13   C     C_R   0.549791 0.317171 0.109521 0.420406
C14   C     C_R   0.638180 0.736716 0.059622 -0.222376
C15   C     C_R   0.450360 0.250368 0.950608 -0.205539
C16   C     C_R   0.633253 0.734965 0.928251 -0.149807
C17   C     C_R   0.510158 0.237029 0.051268 -0.230284
C18   C     C_R   0.566357 0.575870 0.935434 -0.112059
C19   C     C_R   0.531607 0.409396 0.063616 -0.093133
C20   C     C_R   0.574512 0.576205 0.066495 0.024224
C21   C     C_R   0.493069 0.418378 0.946647 -0.083917
C22   C     C_R   0.516138 0.500684 0.876953 -0.133663
C23   C     C_R   0.049490 0.468888 0.482750 -0.021767
C24   C     C_R   0.546815 0.494315 0.131391 -0.140700
C25   C     C_R   0.101693 0.438947 0.379709 0.366382
C26   C     C_R   0.904680 0.402473 0.539450 0.449425
C27   C     C_R   0.913727 0.557391 0.438294 0.376298
C28   C     C_R   0.087526 0.510129 0.590510 0.469098
C29   C     C_R   0.193589 0.455613 0.382576 -0.099099
C30   C     C_R   0.813008 0.415676 0.561621 -0.134505
C31   C     C_R   0.825120 0.575044 0.471818 -0.066139
C32   C     C_R   0.180337 0.521341 0.597354 -0.156461
C33   C     C_R   0.232246 0.496510 0.491434 -0.299704
C34   C     C_R   0.952913 0.471710 0.474577 -0.090154
C35   C     C_R   0.771581 0.499426 0.518290 -0.298300
C36   C     C_2   0.528038 0.140861 0.101450 1.054149
C37   C     C_2   0.657590 0.818601 0.850635 1.059148
C38   C     C_2   0.405019 0.168901 0.887757 1.046763
C39   C     C_2   0.665636 0.824001 0.126886 0.979177
C40   C     C_2   0.248618 0.430518 0.270299 1.000039
C41   C     C_2   0.762895 0.346488 0.639789 0.943600
C42   C     C_2   0.796796 0.675854 0.477244 1.008881
C43   C     C_2   0.222028 0.552001 0.717815 0.884622
C44   C     C_R   0.438642 0.103483 0.425793 0.292448
C45   C     C_R   0.572276 0.898455 0.462039 0.433042
C46   C     C_R   0.553741 0.105733 0.584828 0.414230
C47   C     C_R   0.421998 0.892515 0.549083 0.348599
C48   C     C_R   0.443039 0.203711 0.423674 -0.063741
H1    H     H_    0.400107 0.243026 0.362123 0.150241
H2    H     H_    0.353328 0.423194 0.820844 0.336005
H3    H     H_    0.666899 0.565054 0.749862 0.347002
H4    H     H_    0.646880 0.360719 0.216878 0.340824
H5    H     H_    0.001490 0.382105 0.287626 0.360183
H6    H     H_    0.922616 0.303292 0.663105 0.372270
H7    H     H_    0.016439 0.602833 0.341004 0.349204
H8    H     H_    0.060232 0.592587 0.733662 0.366976
H9    H     H_    0.274708 0.336419 0.131412 0.350948
H10   H     H_    0.684379 0.325817 0.792094 0.334658
H11   H     H_    0.745878 0.781779 0.582553 0.354639
H12   H     H_    0.628980 0.760815 0.423612 0.161606
H13   H     H_    0.225403 0.538324 0.905935 0.360420
H14   H     H_    0.341948 0.098838 0.305430 0.374819
H15   H     H_    0.694823 0.905512 0.402140 0.345961
H16   H     H_    0.643510 0.104726 0.715559 0.357284
H17   H     H_    0.352287 0.001542 0.605234 0.354451
H18   H     H_    0.594278 0.246747 0.644388 0.153525
H19   H     H_    0.370441 0.751776 0.579098 0.209727
H20   H     H_    0.479947 0.010858 0.143558 0.401593
H21   H     H_    0.733843 0.935852 0.827587 0.374153
H22   H     H_    0.415632 0.037331 0.813457 0.362452
H23   H     H_    0.766754 0.904010 0.195100 0.381960
H24   H     H_    0.702145 0.684049 0.258393 0.356181
N1    N     N_R   0.500000 0.252470 0.500000 -0.112031
N2    N     N_R   0.500000 0.747530 0.500000 -0.134134
O1    O     O_R   0.369060 0.579480 0.500010 -0.588459
O2    O     O_R   0.459337 0.073414 0.108522 -0.770443
O3    O     O_2   0.618908 0.831466 0.751758 -0.589877
O4    O     O_R   0.724220 0.882312 0.889089 -0.743391
O5    O     O_2   0.325518 0.172727 0.863281 -0.517535
O6    O     O_R   0.453837 0.088417 0.854310 -0.787082
O7    O     O_2   0.609458 0.882179 0.157361 -0.602136
O8    O     O_R   0.755839 0.840462 0.152484 -0.705414
O9    O     O_3   0.651862 0.639836 0.245499 -0.793632
O10   O     O_3   0.370447 0.355567 0.817599 -0.690723
O11   O     O_3   0.650062 0.632811 0.753473 -0.664913
O12   O     O_R   0.630940 0.420520 0.499990 -0.615474
O13   O     O_3   0.609412 0.302988 0.205971 -0.691464
O14   O     O_3   0.064695 0.399522 0.272328 -0.674743
O15   O     O_3   0.951016 0.325625 0.584732 -0.682822
O16   O     O_3   0.963449 0.629528 0.383822 -0.675276
O17   O     O_3   0.031002 0.540678 0.685678 -0.700297
O18   O     O_2   0.307229 0.484698 0.233934 -0.658961
O19   O     O_R   0.232743 0.345415 0.205487 -0.705861
O20   O     O_2   0.767114 0.261572 0.616410 -0.595613
O21   O     O_R   0.712066 0.379126 0.741585 -0.823064
O22   O     O_2   0.819373 0.731027 0.394917 -0.569485
O23   O     O_R   0.630940 0.579480 0.499990 -0.560100
O24   O     O_R   0.753823 0.710519 0.584224 -0.725825
O25   O     O_2   0.280884 0.612547 0.719236 -0.623313
O26   O     O_R   0.192512 0.511915 0.830306 -0.732701
O27   O     O_3   0.378833 0.053333 0.352290 -0.703947
O28   O     O_3   0.645887 0.949973 0.422654 -0.673815
O29   O     O_3   0.608225 0.057869 0.666236 -0.684216
O30   O     O_3   0.344987 0.932038 0.597614 -0.694826
O31   O     O_R   0.369060 0.420520 0.500010 -0.613479
O32   O     O_R   0.499990 0.579480 0.316780 -0.555899
O33   O     O_R   0.500010 0.420520 0.683220 -0.596492
O34   O     O_R   0.500010 0.579480 0.683220 -0.561669
O35   O     O_R   0.499990 0.420520 0.316780 -0.616769
O36   O     O_2   0.602733 0.120782 0.137732 -0.500627
Zn1   Zn    Zn3+2 0.500000 0.606140 0.500000 1.069364
Zn2   Zn    Zn3+2 0.500000 0.393860 0.500000 1.026453

loop_
_geom_bond_atom_site_label_1
_geom_bond_atom_site_label_2
_ccdc_geom_bond_type
H16   O29   S    
C11   C18   A    
C6    C45   A    
O33   Zn2   S    
C40   O19   S    
C9    C14   A    
H3    O11   S    
C1    C33   S    
C26   O15   S    
C38   O6    S    
C30   C35   A    
C42   O22   D    
C19   C21   A    
C43   O25   D    
H7    O16   S    
C10   C15   A    
C42   O24   S    
C5    C6    S    
O23   Zn1   S    
C2    H12   S    
C38   O5    D    
C7    C24   S    
C29   C33   A    
C27   O16   S    
C36   O2    S    
C14   C39   S    
C26   C34   A    
H8    O17   S    
C20   C24   A    
C8    C22   S    
C30   C41   S    
C17   C36   S    
H5    O14   S    
C4    N2    A    
C2    N2    A    
C16   C37   S    
H14   O27   S    
C27   C34   A    
H9    O19   S    
C21   C22   A    
H21   O4    S    
H15   O28   S    
C8    O34   A    
O32   Zn1   S    
C10   C21   A    
C25   C29   A    
C6    C47   A    
C13   C19   A    
H22   O6    S    
C1    O1    A    
C28   C32   A    
C43   O26   S    
C39   O7    D    
H6    O15   S    
O35   Zn2   S    
N2    Zn1   S    
C27   C31   A    
C25   O14   S    
C7    O35   A    
O12   Zn2   S    
H10   O21   S    
C15   C38   S    
C11   C16   A    
C9    C20   A    
C41   O20   D    
C23   C34   S    
C13   O13   S    
C7    O32   A    
C23   C28   A    
C40   O18   D    
C12   C35   S    
C12   O23   A    
C9    O9    S    
C48   H1    S    
O31   Zn2   S    
C26   C30   A    
C2    C45   A    
C36   O36   D    
C14   C16   A    
H13   O26   S    
C8    O33   A    
N1    Zn2   S    
C5    C46   A    
C15   C17   A    
C47   O30   S    
C18   C22   A    
C48   N1    A    
C5    C44   A    
H4    O13   S    
C39   O8    S    
C4    H19   S    
C44   O27   S    
C18   C20   A    
C12   O12   A    
H20   O2    S    
C46   O29   S    
C3    C46   A    
O1    Zn1   S    
O34   Zn1   S    
C13   C17   A    
C32   C33   A    
H23   O8    S    
C19   C24   A    
C41   O21   S    
C31   C42   S    
C37   O3    D    
C11   O11   S    
C29   C40   S    
C10   O10   S    
C32   C43   S    
H2    O10   S    
C28   O17   S    
C31   C35   A    
C23   C25   A    
C3    N1    A    
H24   O9    S    
C45   O28   S    
C3    H18   S    
H11   O24   S    
H17   O30   S    
C37   O4    S    
C44   C48   A    
C1    O31   A    
C4    C47   A    
