data_mof_unit_50654.cif
_audit_creation_date              2012-10-26T18:50:06-0400
_audit_creation_method            fapswitch 2.2
_symmetry_space_group_name_H-M    P1
_symmetry_Int_Tables_number       1
_space_group_crystal_system       triclinic
_cell_length_a                    10.690363
_cell_length_b                    13.066198
_cell_length_c                    11.686649
_cell_angle_alpha                 101.543501
_cell_angle_beta                  95.212128
_cell_angle_gamma                 89.452395
_cell_volume                      1592.72493013

loop_
_atom_site_label
_atom_site_type_symbol
_atom_type_description
_atom_site_fract_x
_atom_site_fract_y
_atom_site_fract_z
_atom_type_partial_charge
C1    C     C_R   0.497602 0.298296 0.476647 0.562042
C2    C     C_R   0.495459 0.858853 0.437453 -0.123668
C3    C     C_R   0.504800 0.033712 0.555193 0.029600
C4    C     C_R   0.495200 0.966288 0.444807 0.029600
C5    C     C_R   0.373254 0.408216 0.015868 -0.055397
C6    C     C_R   0.626746 0.591784 0.984132 -0.055397
C7    C     C_R   0.386493 0.417022 0.139979 0.157454
C8    C     C_R   0.613507 0.582978 0.860021 0.157454
C9    C     C_R   0.554902 0.537489 0.160033 0.036517
C10   C     C_R   0.445097 0.462511 0.839966 0.036517
C11   C     C_R   0.545979 0.532752 0.036440 -0.003473
C12   C     C_R   0.502397 0.701704 0.523353 0.562041
C13   C     C_R   0.454021 0.467248 0.963560 -0.003473
C14   C     C_R   0.261945 0.515456 0.501031 0.558670
C15   C     C_R   0.738055 0.484544 0.498968 0.558670
C16   C     C_R   0.124180 0.596813 0.716402 0.041172
C17   C     C_R   0.875820 0.403186 0.283598 0.041172
C18   C     C_R   0.084740 0.578519 0.822508 -0.012606
C19   C     C_R   0.915260 0.421481 0.177491 -0.012606
C20   C     C_R   0.988264 0.506062 0.818163 -0.128524
C21   C     C_R   0.011735 0.493938 0.181837 -0.128524
C22   C     C_R   0.921398 0.461597 0.711680 0.012105
C23   C     C_R   0.504403 0.816546 0.539172 0.000015
C24   C     C_R   0.078601 0.538403 0.288320 0.012105
C25   C     C_R   0.953235 0.488488 0.606055 -0.003616
C26   C     C_R   0.046765 0.511512 0.393945 -0.003616
C27   C     C_R   0.068717 0.539798 0.607864 -0.025531
C28   C     C_R   0.931283 0.460202 0.392136 -0.025531
C29   C     C_R   0.875916 0.465981 0.498842 -0.034120
C30   C     C_R   0.124084 0.534019 0.501158 -0.034120
C31   C     C_3   0.274273 0.336541 0.939009 -0.422570
C32   C     C_3   0.725726 0.663459 0.060991 -0.422570
C33   C     C_1   0.203912 0.685542 0.716896 0.223874
C34   C     C_R   0.495597 0.183454 0.460828 0.000015
C35   C     C_1   0.796088 0.314458 0.283104 0.223874
C36   C     C_3   0.144292 0.632177 0.941135 -0.388453
C37   C     C_3   0.855708 0.367823 0.058865 -0.388453
C38   C     C_1   0.832654 0.378919 0.712206 0.207163
C39   C     C_1   0.167346 0.621081 0.287794 0.207163
C40   C     C_1   0.521470 0.851083 0.761042 0.269469
C41   C     C_1   0.478530 0.148917 0.238958 0.269469
C42   C     C_1   0.696635 0.642178 0.806754 0.281582
C43   C     C_1   0.303365 0.357822 0.193246 0.281581
C44   C     C_R   0.485479 0.006946 0.342818 -0.124281
C45   C     C_R   0.514521 0.993054 0.657182 -0.124281
C46   C     C_R   0.485624 0.114650 0.349291 -0.004100
C47   C     C_R   0.514376 0.885349 0.650709 -0.004100
C48   C     C_R   0.504541 0.141147 0.562547 -0.123668
Cu1   Cu    Cu3+1 0.509250 0.507730 0.615930 0.997605
Cu2   Cu    Cu3+1 0.490750 0.492270 0.384070 0.997605
H1    H     H_    0.036980 0.513750 0.101401 0.100547
H2    H     H_    0.209543 0.382691 0.889861 0.127085
H3    H     H_    0.320740 0.276433 0.876014 0.142833
H4    H     H_    0.784698 0.705572 0.012068 0.150648
H5    H     H_    0.679260 0.723567 0.123986 0.142832
H6    H     H_    0.790456 0.617309 0.110139 0.127085
H7    H     H_    0.071663 0.676051 0.992731 0.142844
H8    H     H_    0.185879 0.572962 0.988912 0.129811
H9    H     H_    0.220514 0.687475 0.935812 0.163560
H10   H     H_    0.928339 0.323950 0.007269 0.142843
H11   H     H_    0.779487 0.312523 0.064188 0.163560
H12   H     H_    0.963019 0.486250 0.898599 0.100547
H13   H     H_    0.814120 0.427038 0.011089 0.129811
H14   H     H_    0.488160 0.808191 0.351380 0.144383
H15   H     H_    0.511840 0.191808 0.648620 0.144383
H16   H     H_    0.478418 0.954459 0.257720 0.120360
H17   H     H_    0.521582 0.045541 0.742280 0.120360
H18   H     H_    0.376049 0.412999 0.781974 0.136571
H19   H     H_    0.623951 0.587001 0.218026 0.136571
H20   H     H_    0.215301 0.294428 0.987932 0.150648
N1    N     N_R   0.523180 0.519350 0.790130 -0.253725
N2    N     N_1   0.235970 0.309661 0.234551 -0.296148
N3    N     N_R   0.476820 0.480650 0.209870 -0.253725
N4    N     N_1   0.265523 0.757613 0.716642 -0.287254
N5    N     N_1   0.734478 0.242387 0.283358 -0.287254
N6    N     N_1   0.762052 0.312569 0.713146 -0.299240
N7    N     N_1   0.237948 0.687431 0.286854 -0.299240
N8    N     N_1   0.525765 0.825996 0.850830 -0.284152
N9    N     N_1   0.474235 0.174004 0.149170 -0.284152
N10   N     N_1   0.764030 0.690339 0.765449 -0.296148
O1    O     O_R   0.506570 0.354460 0.582000 -0.507676
O2    O     O_R   0.493430 0.645540 0.418000 -0.507675
O3    O     O_R   0.490940 0.341410 0.386200 -0.480832
O4    O     O_R   0.509060 0.658590 0.613800 -0.480832
O5    O     O_R   0.327470 0.506520 0.597900 -0.511808
O6    O     O_R   0.672530 0.493480 0.402100 -0.511808
O7    O     O_R   0.311840 0.493460 0.402100 -0.488737
O8    O     O_R   0.688160 0.506540 0.597900 -0.488737

loop_
_geom_bond_atom_site_label_1
_geom_bond_atom_site_label_2
_ccdc_geom_bond_type
C40   C47   S    
C6    C32   S    
C42   N10   T    
C43   N2    T    
C44   H16   S    
C31   H2    S    
C8    C42   S    
C36   H9    S    
C7    N3    A    
C38   N6    T    
C12   C23   S    
C35   N5    T    
C39   N7    T    
Cu1   O4    S    
C28   C29   A    
C19   C21   A    
C9    H19   S    
C14   O7    A    
C36   H8    S    
C1    O1    A    
C22   C38   S    
C3    C48   A    
C24   C39   S    
C1    C34   S    
C12   O4    A    
Cu1   O1    S    
C19   C37   S    
C31   H20   S    
C2    H14   S    
C22   C25   A    
C45   H17   S    
C41   C46   S    
C34   C46   A    
C7    C43   S    
C48   H15   S    
C32   H5    S    
C5    C13   A    
C10   N1    A    
C16   C27   A    
C27   C30   A    
Cu1   O8    S    
C9    N3    A    
C14   C30   S    
C32   H4    S    
C37   H13   S    
C44   C46   A    
Cu2   O3    S    
C15   C29   S    
C45   C47   A    
C25   C29   A    
C23   C47   A    
Cu1   O5    S    
C36   H7    S    
Cu2   N3    S    
C6    C11   A    
C5    C7    A    
C6    C8    A    
C4    C44   A    
C3    C45   A    
C2    C4    A    
C16   C33   S    
C12   O2    A    
C31   H3    S    
C9    C11   A    
Cu2   O7    S    
C15   O6    A    
C20   C22   A    
C26   C30   A    
C40   N8    T    
C1    O3    A    
C3    C4    A    
C21   H1    S    
Cu2   O2    S    
C8    N1    A    
C17   C28   A    
C14   O5    A    
C24   C26   A    
C10   C13   A    
C41   N9    T    
C37   H11   S    
C10   H18   S    
C25   C27   A    
C26   C28   A    
C11   C13   A    
C17   C19   A    
C18   C20   A    
C20   H12   S    
C37   H10   S    
Cu2   O6    S    
C33   N4    T    
C34   C48   A    
C16   C18   A    
Cu1   Cu2   S    
Cu1   N1    S    
C21   C24   A    
C2    C23   A    
C17   C35   S    
C18   C36   S    
C32   H6    S    
C15   O8    A    
C5    C31   S    
