data_mof_unit_60732.cif
_audit_creation_date              2013-03-05T16:14:35-0500
_audit_creation_method            fapswitch 2.2
_symmetry_space_group_name_H-M    P1
_symmetry_Int_Tables_number       1
_space_group_crystal_system       triclinic
_cell_length_a                    44.536032
_cell_length_b                    38.993942
_cell_length_c                    21.693112
_cell_angle_alpha                 89.953138
_cell_angle_beta                  60.962666
_cell_angle_gamma                 89.96028
_cell_volume                      32937.6511904

loop_
_atom_site_label
_atom_site_type_symbol
_atom_site_description
_atom_site_fract_x
_atom_site_fract_y
_atom_site_fract_z
_atom_type_partial_charge
O1    O     O_R   0.049910 0.528880 0.450120 -0.598336
O2    O     O_R   0.950090 0.528880 0.549880 -0.596174
O3    O     O_R   0.549910 0.028880 0.450120 -0.595595
O4    O     O_R   0.450090 0.028880 0.549880 -0.597797
O5    O     O_R   0.049890 0.471110 0.450120 -0.560799
O6    O     O_R   0.950110 0.471110 0.549880 -0.557742
O7    O     O_R   0.549890 0.971110 0.450120 -0.557725
O8    O     O_R   0.450110 0.971110 0.549880 -0.559016
C1    C     C_R   0.066214 0.500052 0.435126 0.821782
C2    C     C_R   0.933811 0.500057 0.565146 0.801307
C3    C     C_R   0.566197 0.000040 0.434803 0.799388
C4    C     C_R   0.433766 0.000078 0.566090 0.812066
O9    O     O_R   0.000000 0.528880 0.590170 -0.595025
O10   O     O_R   0.000000 0.528880 0.409830 -0.594866
O11   O     O_R   0.500000 0.028880 0.590170 -0.594989
O12   O     O_R   0.500000 0.028880 0.409830 -0.591543
O13   O     O_R   0.999990 0.471110 0.590170 -0.547021
O14   O     O_R   0.000010 0.471110 0.409830 -0.540634
O15   O     O_R   0.499990 0.971110 0.590170 -0.540959
O16   O     O_R   0.500010 0.971110 0.409830 -0.549691
C5    C     C_R   0.001033 0.499907 0.617818 0.886890
C6    C     C_R   0.999131 0.499923 0.381960 0.877852
C7    C     C_R   0.500859 0.999896 0.618064 0.875541
C8    C     C_R   0.498805 0.999928 0.382293 0.890864
Cu1   Cu    Cu3+1 1.000000 0.534200 0.500000 1.004682
Cu2   Cu    Cu3+1 0.500000 0.034200 0.500000 1.005461
Cu3   Cu    Cu3+1 1.000000 0.465790 0.500000 1.031339
Cu4   Cu    Cu3+1 0.500000 0.965790 0.500000 1.031228
H1    H     H_    0.946958 0.503688 0.742513 0.156314
H2    H     H_    0.052873 0.507571 0.257608 0.157627
H3    H     H_    0.447100 0.007762 0.742406 0.157189
H4    H     H_    0.552951 0.001598 0.257512 0.155720
C9    C     C_R   0.065594 0.492886 0.627349 0.289387
C10   C     C_R   0.935174 0.488865 0.371456 0.304831
C11   C     C_R   0.564819 0.988712 0.628641 0.302983
C12   C     C_R   0.433915 0.995470 0.372807 0.310073
C13   C     C_R   0.096444 0.500119 0.629241 -0.198105
C14   C     C_R   0.903956 0.493780 0.369162 -0.181145
C15   C     C_R   0.595982 0.993641 0.630795 -0.180003
C16   C     C_R   0.403379 0.003963 0.370288 -0.193075
C17   C     C_R   0.094784 0.518950 0.686622 -0.072456
C18   C     C_R   0.904460 0.511997 0.312095 -0.069861
C19   C     C_R   0.595531 0.012089 0.687557 -0.069816
C20   C     C_R   0.405787 0.021813 0.311018 -0.073106
C21   C     C_R   0.062545 0.526147 0.745358 0.440753
C22   C     C_R   0.936219 0.522727 0.255883 0.456312
C23   C     C_R   0.563746 0.022681 0.743910 0.454481
C24   C     C_R   0.438437 0.028571 0.253130 0.435221
C25   C     C_R   0.032144 0.512525 0.748832 -0.148311
C26   C     C_R   0.967450 0.510933 0.251577 -0.161695
C27   C     C_R   0.532568 0.010837 0.748394 -0.161088
C28   C     C_R   0.468240 0.013940 0.250608 -0.158649
C29   C     C_R   0.033422 0.501952 0.685485 0.029744
C30   C     C_R   0.966790 0.499754 0.313939 0.023928
C31   C     C_R   0.533196 0.999592 0.686114 0.024416
C32   C     C_R   0.466460 0.003087 0.314264 0.031449
C33   C     C_R   0.002080 0.499898 0.683656 -0.109891
C34   C     C_R   0.998139 0.499931 0.315955 -0.108786
C35   C     C_R   0.501823 0.999851 0.684102 -0.108511
C36   C     C_R   0.497708 0.999942 0.316411 -0.109154
C37   C     C_R   0.970734 0.503890 0.744955 -0.214928
C38   C     C_R   0.029177 0.506173 0.255028 -0.210137
C39   C     C_R   0.470793 0.006240 0.744990 -0.210867
C40   C     C_R   0.529212 0.002736 0.255020 -0.216497
C41   C     C_R   0.969370 0.508468 0.809563 0.430872
C42   C     C_R   0.030290 0.510834 0.190609 0.434612
C43   C     C_R   0.469708 0.010948 0.809379 0.434710
C44   C     C_R   0.530788 0.007340 0.190223 0.431521
C45   C     C_R   0.000356 0.509917 0.812945 -0.233805
C46   C     C_R   0.999311 0.510320 0.187298 -0.234058
C47   C     C_R   0.500687 0.010308 0.812676 -0.234659
C48   C     C_R   0.499915 0.010049 0.186718 -0.231866
C49   C     C_R   0.379020 0.482024 0.074123 -0.211291
C50   C     C_R   0.621065 0.485149 0.930175 -0.209450
C51   C     C_R   0.878981 0.983291 0.071724 -0.211300
C52   C     C_R   0.119673 0.978248 0.928000 -0.218878
H5    H     H_    0.393963 0.468880 0.024275 0.218055
H6    H     H_    0.606204 0.474466 0.982608 0.218589
H7    H     H_    0.893818 0.971586 0.020285 0.216157
H8    H     H_    0.103899 0.964879 0.977258 0.210885
C53   C     C_R   0.343197 0.479131 0.109539 -0.065401
C54   C     C_R   0.656874 0.482631 0.895965 -0.065778
C55   C     C_R   0.843175 0.980403 0.106649 -0.063767
C56   C     C_R   0.155380 0.975452 0.896090 -0.058368
C57   C     C_R   0.324056 0.496364 0.174369 -0.078975
C58   C     C_R   0.676169 0.496338 0.827578 -0.076262
C59   C     C_R   0.823906 0.995542 0.173758 -0.075735
C60   C     C_R   0.175898 0.992560 0.831639 -0.072239
C61   C     C_R   0.340756 0.516245 0.202936 0.349379
C62   C     C_R   0.659656 0.512850 0.794521 0.349085
C63   C     C_R   0.840516 0.013675 0.204763 0.348731
C64   C     C_R   0.160359 0.011381 0.798952 0.345347
C65   C     C_R   0.377153 0.517083 0.168749 0.311966
C66   C     C_R   0.623252 0.513510 0.828116 0.307083
C67   C     C_R   0.876921 0.014687 0.170606 0.307122
C68   C     C_R   0.124044 0.014833 0.833222 0.312191
C69   C     C_R   0.396100 0.500214 0.103601 -0.143883
C70   C     C_R   0.604129 0.499912 0.896672 -0.146364
C71   C     C_R   0.895990 0.999738 0.103397 -0.143400
C72   C     C_R   0.103879 0.997494 0.897177 -0.137537
C73   C     C_R   0.269044 0.526585 0.208828 -0.069299
C74   C     C_R   0.731067 0.527727 0.786885 -0.063859
C75   C     C_R   0.769018 0.026778 0.213407 -0.060165
C76   C     C_R   0.229827 0.025068 0.795891 -0.043577
H9    H     H_    0.283900 0.548785 0.180210 0.181011
H10   H     H_    0.716198 0.550714 0.810143 0.181312
H11   H     H_    0.783877 0.049683 0.189364 0.181352
H12   H     H_    0.214257 0.047735 0.818374 0.187612
C77   C     C_R   0.232982 0.527815 0.243682 -0.034633
C78   C     C_R   0.767043 0.529001 0.752088 -0.039820
C79   C     C_R   0.733046 0.028141 0.248295 -0.039686
C80   C     C_R   0.265773 0.027504 0.762402 -0.046872
C81   C     C_R   0.214186 0.498418 0.281147 -0.012403
C82   C     C_R   0.785957 0.498608 0.721284 -0.011936
C83   C     C_R   0.714090 0.997925 0.279962 -0.012609
C84   C     C_R   0.285752 0.997739 0.731401 -0.009267
C85   C     C_R   0.231735 0.468374 0.281008 -0.145019
C86   C     C_R   0.768528 0.467651 0.727776 -0.140379
C87   C     C_R   0.731466 0.967097 0.274919 -0.139815
C88   C     C_R   0.269255 0.966216 0.737896 -0.143708
H13   H     H_    0.217607 0.445932 0.309620 0.160655
H14   H     H_    0.782656 0.444390 0.703924 0.157738
H15   H     H_    0.717290 0.943979 0.299725 0.158280
H16   H     H_    0.284093 0.943302 0.714335 0.154141
C89   C     C_R   0.267542 0.467588 0.245891 -0.169850
C90   C     C_R   0.732757 0.466760 0.762972 -0.174665
C91   C     C_R   0.767251 0.966154 0.240119 -0.177138
C92   C     C_R   0.233532 0.964212 0.771200 -0.182018
H17   H     H_    0.280694 0.444453 0.246660 0.152338
H18   H     H_    0.719637 0.442816 0.767036 0.150580
H19   H     H_    0.780276 0.942328 0.237657 0.150053
H20   H     H_    0.221521 0.939861 0.772497 0.144257
C93   C     C_R   0.286240 0.496656 0.210066 0.107709
C94   C     C_R   0.713999 0.496788 0.792283 0.109742
C95   C     C_R   0.786093 0.995957 0.209173 0.110571
C96   C     C_R   0.213653 0.993647 0.800095 0.112298
C97   C     C_R   0.157224 0.476064 0.307648 -0.189386
C98   C     C_R   0.843130 0.478301 0.698109 -0.188523
C99   C     C_R   0.656965 0.978056 0.302340 -0.188894
C100  C     C_R   0.343862 0.977303 0.702654 -0.185210
H21   H     H_    0.170083 0.458030 0.264681 0.166909
H22   H     H_    0.830468 0.462128 0.744419 0.166427
H23   H     H_    0.669673 0.961924 0.256017 0.166953
H24   H     H_    0.331965 0.959949 0.747152 0.164788
C101  C     C_R   0.121586 0.476339 0.345317 -0.180271
C102  C     C_R   0.878756 0.478530 0.659890 -0.170626
C103  C     C_R   0.621318 0.978534 0.340097 -0.169589
C104  C     C_R   0.379438 0.977396 0.661673 -0.172230
H25   H     H_    0.107518 0.458383 0.330800 0.164467
H26   H     H_    0.893063 0.462390 0.677184 0.161110
H27   H     H_    0.607054 0.962600 0.322425 0.160753
H28   H     H_    0.394329 0.960059 0.675371 0.161639
C105  C     C_R   0.104079 0.500194 0.399350 -0.169804
C106  C     C_R   0.895981 0.500185 0.601542 -0.193314
C107  C     C_R   0.604043 0.000117 0.398514 -0.193732
C108  C     C_R   0.395881 0.000309 0.605306 -0.190998
C109  C     C_R   0.122874 0.523725 0.417464 -0.068552
C110  C     C_R   0.877026 0.521431 0.579576 -0.076676
C111  C     C_R   0.622987 0.021119 0.420922 -0.078355
C112  C     C_R   0.376036 0.023227 0.588680 -0.084209
C113  C     C_R   0.159215 0.522283 0.381238 0.409742
C114  C     C_R   0.840670 0.519854 0.616536 0.463126
C115  C     C_R   0.659344 0.019318 0.384343 0.465293
C116  C     C_R   0.339744 0.021336 0.627368 0.434670
C117  C     C_R   0.176321 0.499024 0.324210 -0.066239
C118  C     C_R   0.823821 0.499016 0.677744 -0.080570
C119  C     C_R   0.676233 0.998492 0.323178 -0.081305
C120  C     C_R   0.323655 0.999194 0.686766 -0.076713
O17   O     O_R   0.971110 0.450080 0.028870 -0.579241
O18   O     O_R   0.028890 0.450080 0.971130 -0.576888
O19   O     O_R   0.471110 0.950080 0.028870 -0.582418
O20   O     O_R   0.528890 0.950080 0.971130 -0.577598
C121  C     C_R   0.000006 0.433730 0.000042 0.788734
C122  C     C_R   0.500007 0.933730 0.000005 0.790720
O21   O     O_R   0.971100 0.499980 0.938700 -0.569683
O22   O     O_R   0.028900 0.499980 0.061300 -0.568386
O23   O     O_R   0.471100 0.999980 0.938700 -0.569057
O24   O     O_R   0.528900 0.999980 0.061300 -0.568531
O25   O     O_R   0.028870 0.499990 0.880960 -0.535685
O26   O     O_R   0.971130 0.499990 0.119040 -0.540409
O27   O     O_R   0.528870 0.999990 0.880960 -0.538988
O28   O     O_R   0.471130 0.999990 0.119040 -0.547294
C123  C     C_R   0.999984 0.503976 0.881019 0.790111
C124  C     C_R   0.999948 0.504202 0.118969 0.783606
C125  C     C_R   0.500048 0.004203 0.881024 0.785984
C126  C     C_R   0.500068 0.003983 0.118902 0.793446
Cu5   Cu    Cu3+1 0.965790 0.499980 0.034190 1.064719
Cu6   Cu    Cu3+1 0.034210 0.499980 0.965810 1.071519
Cu7   Cu    Cu3+1 0.465790 0.999980 0.034190 1.044852
Cu8   Cu    Cu3+1 0.534210 0.999980 0.965810 1.065355
O29   O     O_R   0.971110 0.549890 0.028880 -0.561625
O30   O     O_R   0.028890 0.549890 0.971120 -0.559434
O31   O     O_R   0.471110 0.049890 0.028880 -0.558219
O32   O     O_R   0.528890 0.049890 0.971120 -0.560851
C127  C     C_R   0.999992 0.566114 0.999993 0.776671
C128  C     C_R   0.499990 0.066144 0.000003 0.779895
O33   O     O_R   0.499990 0.450010 0.052090 -0.569425
O34   O     O_R   0.500010 0.450010 0.947910 -0.568744
O35   O     O_R   0.999990 0.950010 0.052090 -0.570708
O36   O     O_R   0.000010 0.950010 0.947910 -0.570771
C129  C     C_R   0.499970 0.433884 0.000052 0.784839
C130  C     C_R   0.000005 0.933910 0.000011 0.783914
O37   O     O_R   0.450090 0.499920 0.102070 -0.524786
O38   O     O_R   0.549910 0.499920 0.897930 -0.521133
O39   O     O_R   0.950090 0.999920 0.102070 -0.523936
O40   O     O_R   0.049910 0.999920 0.897930 -0.527760
O41   O     O_R   0.450080 0.499990 0.997700 -0.596877
O42   O     O_R   0.549920 0.499990 0.002300 -0.597974
O43   O     O_R   0.950080 0.999990 0.997700 -0.596233
O44   O     O_R   0.049920 0.999990 0.002300 -0.596891
C131  C     C_R   0.433863 0.500389 0.066108 0.823874
C132  C     C_R   0.566233 0.500189 0.933897 0.820497
C133  C     C_R   0.933822 0.000163 0.066086 0.824153
C134  C     C_R   0.066160 0.999688 0.933970 0.825124
Cu9   Cu    Cu3+1 0.500000 0.499920 0.061800 1.045002
Cu10  Cu    Cu3+1 0.500000 0.499920 0.938200 1.045378
Cu11  Cu    Cu3+1 0.000000 0.999920 0.061800 1.038587
Cu12  Cu    Cu3+1 0.000000 0.999920 0.938200 1.044650
O45   O     O_R   0.500010 0.549830 0.052290 -0.564229
O46   O     O_R   0.499990 0.549830 0.947710 -0.566526
O47   O     O_R   0.000010 0.049830 0.052290 -0.570353
O48   O     O_R   0.999990 0.049830 0.947710 -0.561156
C135  C     C_R   0.500003 0.565921 0.999978 0.768262
C136  C     C_R   0.000030 0.065922 0.999936 0.767344
C137  C     C_R   0.529909 0.621595 0.988469 -0.116970
C138  C     C_R   0.470161 0.621670 0.011457 -0.115424
C139  C     C_R   0.030794 0.121359 0.985105 -0.063817
C140  C     C_R   0.970589 0.121851 0.011142 -0.117118
C141  C     C_R   0.530353 0.657889 0.984607 0.364648
C142  C     C_R   0.469787 0.657963 0.015285 0.364102
C143  C     C_R   0.031810 0.157417 0.979731 0.373016
C144  C     C_R   0.970829 0.158177 0.012334 0.409120
C145  C     C_R   0.500084 0.675816 0.999920 -0.056554
C146  C     C_R   0.001541 0.175845 0.994746 -0.131155
C147  C     C_R   0.500026 0.603653 0.999926 -0.238138
C148  C     C_R   0.000373 0.103653 0.999338 -0.278126
C149  C     C_R   0.489286 0.732049 0.958317 -0.083164
C150  C     C_R   0.510942 0.731976 0.041488 -0.083171
C151  C     C_R   0.990728 0.232328 0.954102 -0.066628
C152  C     C_R   0.010897 0.231707 0.039739 -0.150646
H29   H     H_    0.481185 0.718531 0.925280 0.170923
H30   H     H_    0.519043 0.718397 0.074518 0.170976
H31   H     H_    0.983293 0.218995 0.919802 0.169021
H32   H     H_    0.018674 0.217863 0.072996 0.171812
C153  C     C_R   0.990125 0.268111 0.955691 -0.181729
C154  C     C_R   0.010840 0.267503 0.040449 -0.167062
C155  C     C_R   0.489067 0.767845 0.958710 -0.184816
C156  C     C_R   0.511190 0.767772 0.041108 -0.184928
H33   H     H_    0.982223 0.281894 0.922581 0.145323
H34   H     H_    0.018554 0.280815 0.074323 0.147548
H35   H     H_    0.480746 0.781414 0.926037 0.147062
H36   H     H_    0.519522 0.781282 0.073777 0.147142
C157  C     C_R   0.000348 0.285954 0.998595 0.084456
C158  C     C_R   0.500123 0.785960 0.999932 0.082278
C159  C     C_R   0.500102 0.713827 0.999913 0.189460
C160  C     C_R   0.001075 0.213863 0.996172 0.126987
C161  C     C_R   0.029236 0.341933 0.990410 -0.152702
C162  C     C_R   0.971017 0.341932 0.008917 -0.148707
C163  C     C_R   0.529332 0.841944 0.989869 -0.151447
C164  C     C_R   0.470811 0.841931 0.010161 -0.151924
H37   H     H_    0.052074 0.328386 0.982551 0.144744
H38   H     H_    0.948267 0.328378 0.016368 0.146898
H39   H     H_    0.552264 0.828406 0.981477 0.146410
H40   H     H_    0.447907 0.828380 0.018517 0.145764
C165  C     C_R   0.029270 0.377735 0.990118 -0.161752
C166  C     C_R   0.970833 0.377731 0.009807 -0.167057
C167  C     C_R   0.529403 0.877744 0.989321 -0.167061
C168  C     C_R   0.470683 0.877731 0.010726 -0.168942
H41   H     H_    0.052063 0.391164 0.982756 0.163521
H42   H     H_    0.948002 0.391154 0.017303 0.162813
H43   H     H_    0.552325 0.891171 0.981206 0.163153
H44   H     H_    0.447744 0.891146 0.018826 0.161455
C169  C     C_R   0.000027 0.395941 0.000035 -0.040269
C170  C     C_R   0.500029 0.895945 0.000021 -0.039934
C171  C     C_R   0.000175 0.323781 0.999450 0.099168
C172  C     C_R   0.500087 0.823782 0.000000 0.103823
C173  C     C_R   0.531424 0.378094 0.974028 0.379577
C174  C     C_R   0.468485 0.378135 0.026218 0.380295
C175  C     C_R   0.031552 0.878121 0.967671 0.378489
C176  C     C_R   0.968358 0.878212 0.032609 0.379078
C177  C     C_R   0.531267 0.342253 0.976190 0.399780
C178  C     C_R   0.468632 0.342293 0.024017 0.400248
C179  C     C_R   0.031465 0.842266 0.970058 0.398413
C180  C     C_R   0.968371 0.842358 0.030459 0.398078
C181  C     C_R   0.499944 0.323972 0.000104 -0.296704
C182  C     C_R   0.999897 0.823981 0.000310 -0.294650
C183  C     C_R   0.499959 0.396260 0.000118 -0.395520
C184  C     C_R   0.999971 0.896327 0.000084 -0.393044
C185  C     C_R   0.481287 0.267961 0.063355 -0.231383
C186  C     C_R   0.518580 0.267985 0.936867 -0.231577
C187  C     C_R   0.983022 0.767972 0.064088 -0.232065
C188  C     C_R   0.016664 0.767965 0.936713 -0.232441
H45   H     H_    0.466864 0.282185 0.112082 0.162028
H46   H     H_    0.533001 0.282225 0.888140 0.161684
H47   H     H_    0.970011 0.782185 0.113186 0.163330
H48   H     H_    0.029657 0.782169 0.887575 0.163098
C189  C     C_R   0.981949 0.732074 0.065139 -0.036488
C190  C     C_R   0.017731 0.732071 0.935757 -0.034498
C191  C     C_R   0.480329 0.232056 0.064313 -0.037511
C192  C     C_R   0.519514 0.232077 0.935912 -0.035524
C193  C     C_R   0.999851 0.713720 0.000470 -0.010617
C194  C     C_R   0.499917 0.213716 0.000118 -0.012464
C195  C     C_R   0.499938 0.285978 0.000110 0.113141
C196  C     C_R   0.999860 0.785979 0.000376 0.114649
C197  C     C_R   0.979160 0.657330 0.978085 0.473606
C198  C     C_R   0.020573 0.657259 0.022714 0.475042
C199  C     C_R   0.479761 0.157365 0.976400 0.477258
C200  C     C_R   0.520077 0.157334 0.023869 0.475622
C201  C     C_R   0.979725 0.621538 0.977877 -0.142945
C202  C     C_R   0.020146 0.621464 0.022498 -0.141689
C203  C     C_R   0.480152 0.121549 0.976683 -0.139226
C204  C     C_R   0.519731 0.121516 0.023512 -0.141064
H49   H     H_    0.964397 0.607615 0.959689 0.166537
H50   H     H_    0.035516 0.607475 0.040566 0.166798
H51   H     H_    0.465163 0.107581 0.957777 0.165490
H52   H     H_    0.534736 0.107508 0.042417 0.165420
C205  C     C_R   0.999967 0.603616 0.000082 -0.181553
C206  C     C_R   0.499961 0.103642 0.000046 -0.180164
C207  C     C_R   0.999845 0.675695 0.000475 -0.019293
C208  C     C_R   0.499919 0.175745 0.000137 -0.020095
O49   O     O_3   0.394822 0.534275 0.196818 -0.718301
H53   H     H_    0.379628 0.538245 0.247679 0.347379
O50   O     O_3   0.605867 0.527493 0.795927 -0.711909
H54   H     H_    0.620517 0.525924 0.744168 0.344054
O51   O     O_3   0.894394 0.030343 0.200870 -0.715189
H55   H     H_    0.879915 0.029793 0.252782 0.344292
O52   O     O_3   0.107780 0.036118 0.807712 -0.716423
H56   H     H_    0.123488 0.055164 0.781267 0.339999
C209  C     C_2   0.215444 0.559560 0.240539 0.442309
H57   H     H_    0.188943 0.558842 0.252053 0.086194
O53   O     O_2   0.230445 0.586996 0.225668 -0.497711
C210  C     C_2   0.784452 0.562001 0.747923 0.437062
H58   H     H_    0.810623 0.562344 0.738670 0.081547
O54   O     O_2   0.769825 0.589286 0.753839 -0.493355
C211  C     C_2   0.715691 0.061132 0.251862 0.434507
H59   H     H_    0.689651 0.061453 0.260314 0.081223
O55   O     O_2   0.730193 0.088430 0.246448 -0.492436
C212  C     C_2   0.281921 0.061130 0.759950 0.449836
H60   H     H_    0.308343 0.062530 0.749126 0.085679
O56   O     O_2   0.265882 0.087828 0.769545 -0.488106
C213  C     C_2   0.104769 0.548121 0.477321 0.435790
H61   H     H_    0.078698 0.543157 0.518179 0.079844
O57   O     O_2   0.118707 0.574206 0.481876 -0.458662
C214  C     C_2   0.895029 0.543740 0.515910 0.488328
H62   H     H_    0.921918 0.539709 0.478574 0.061595
O58   O     O_2   0.880232 0.567041 0.504121 -0.439603
C215  C     C_2   0.604935 0.043362 0.484637 0.481428
H63   H     H_    0.577888 0.039779 0.521191 0.062552
O59   O     O_2   0.619886 0.066107 0.497447 -0.439499
C216  C     C_2   0.392899 0.047691 0.528577 0.504994
H64   H     H_    0.418824 0.043238 0.486621 0.067067
O60   O     O_2   0.378113 0.073430 0.525288 -0.430560
O61   O     O_3   0.177019 0.543041 0.404235 -0.664817
H65   H     H_    0.200573 0.534092 0.386675 0.343894
O62   O     O_3   0.822533 0.538347 0.590942 -0.623520
H66   H     H_    0.799213 0.528596 0.609434 0.350342
O63   O     O_3   0.677443 0.037614 0.410251 -0.622758
H67   H     H_    0.700858 0.028037 0.391309 0.350387
O64   O     O_3   0.320894 0.040495 0.604489 -0.625143
H68   H     H_    0.298251 0.029557 0.620630 0.347756
C217  C     C_2   0.560313 0.602191 0.981104 0.419448
H69   H     H_    0.565839 0.576701 0.958163 0.064946
O65   O     O_2   0.578766 0.613906 0.003052 -0.496791
C218  C     C_2   0.439674 0.602360 0.019051 0.418962
H70   H     H_    0.434263 0.576789 0.041607 0.069439
O66   O     O_2   0.421019 0.614278 0.997777 -0.498109
C219  C     C_2   0.062197 0.101867 0.972170 0.514214
H71   H     H_    0.065171 0.075135 0.956467 0.036008
O67   O     O_2   0.084891 0.115156 0.980136 -0.456871
C220  C     C_2   0.939540 0.102655 0.021442 0.418893
H72   H     H_    0.934070 0.077368 0.045324 0.069770
O68   O     O_2   0.920478 0.114303 0.000973 -0.498060
O69   O     O_3   0.065791 0.474887 0.572314 -0.752542
H73   H     H_    0.086285 0.459974 0.549646 0.323781
O70   O     O_3   0.935990 0.471549 0.426284 -0.736136
H74   H     H_    0.912533 0.468201 0.466181 0.311283
O71   O     O_3   0.564048 0.971254 0.573947 -0.735567
H75   H     H_    0.587330 0.968958 0.533241 0.310578
O72   O     O_3   0.433212 0.978234 0.429287 -0.748046
H76   H     H_    0.409492 0.973915 0.466757 0.306857
O73   O     O_3   0.560018 0.676664 0.964318 -0.697116
H77   H     H_    0.580058 0.662615 0.932100 0.361981
O74   O     O_3   0.440139 0.676805 0.035609 -0.696692
H78   H     H_    0.420134 0.662880 0.068524 0.361445
O75   O     O_3   0.062886 0.173792 0.958221 -0.658641
H79   H     H_    0.062813 0.196237 0.936950 0.329433
O76   O     O_3   0.941337 0.177271 0.032653 -0.689152
H80   H     H_    0.921328 0.163936 0.067398 0.358706
O77   O     O_3   0.563101 0.394153 0.947207 -0.648032
H81   H     H_    0.560639 0.419211 0.944471 0.309854
O78   O     O_3   0.436819 0.394232 0.053060 -0.645891
H82   H     H_    0.439273 0.419271 0.056022 0.309118
O79   O     O_3   0.063379 0.894127 0.934628 -0.651586
H83   H     H_    0.060716 0.919252 0.933507 0.308255
O80   O     O_3   0.936570 0.894301 0.065586 -0.649088
H84   H     H_    0.939262 0.919445 0.066037 0.310079
O81   O     O_3   0.562548 0.326132 0.954337 -0.647176
H85   H     H_    0.558624 0.302999 0.975644 0.335420
O82   O     O_3   0.437349 0.326211 0.045804 -0.644751
H86   H     H_    0.441279 0.303099 0.024468 0.336084
O83   O     O_3   0.063086 0.826117 0.942307 -0.648668
H87   H     H_    0.060199 0.803298 0.964618 0.334951
O84   O     O_3   0.936715 0.826290 0.058306 -0.647791
H88   H     H_    0.939564 0.803473 0.036061 0.334900
C221  C     C_2   0.961574 0.715361 0.135227 0.417343
H89   H     H_    0.953388 0.730346 0.182983 0.084617
O85   O     O_2   0.952794 0.685356 0.141106 -0.514784
C222  C     C_2   0.038064 0.715346 0.865709 0.416303
H90   H     H_    0.045990 0.730257 0.817917 0.083820
O86   O     O_2   0.047116 0.685422 0.859907 -0.515498
C223  C     C_2   0.458346 0.215347 0.133796 0.419267
H91   H     H_    0.448207 0.230521 0.181793 0.085607
O87   O     O_2   0.450494 0.185085 0.138861 -0.508984
C224  C     C_2   0.541492 0.215395 0.866416 0.414990
H92   H     H_    0.551776 0.230639 0.818455 0.085142
O88   O     O_2   0.549166 0.185075 0.861296 -0.515335
O89   O     O_3   0.958297 0.673022 0.955584 -0.699285
H93   H     H_    0.956022 0.697714 0.967385 0.334955
O90   O     O_3   0.041364 0.672861 0.045446 -0.698013
H94   H     H_    0.043419 0.697622 0.034275 0.335033
O91   O     O_3   0.459556 0.172988 0.952141 -0.696531
H95   H     H_    0.458285 0.197896 0.961266 0.335968
O92   O     O_3   0.540254 0.172914 0.048188 -0.698205
H96   H     H_    0.541608 0.197805 0.038850 0.335426
C225  C     C_2   0.130191 0.488972 0.570203 0.370225
H97   H     H_    0.134571 0.488595 0.516590 0.085583
O93   O     O_2   0.153124 0.478885 0.581237 -0.516825
C226  C     C_2   0.871484 0.479011 0.425775 0.299563
H98   H     H_    0.870307 0.452035 0.438806 0.097698
O94   O     O_2   0.846551 0.497172 0.460510 -0.499635
C227  C     C_2   0.628357 0.978449 0.574678 0.305492
H99   H     H_    0.629074 0.951528 0.561380 0.099435
O95   O     O_2   0.653739 0.996089 0.540458 -0.502918
C228  C     C_2   0.369102 0.995579 0.430733 0.306952
H100  H     H_    0.363693 0.969994 0.453266 0.082559
O96   O     O_2   0.346788 0.017463 0.456884 -0.475540
C229  C     C_2   0.126624 0.533063 0.683486 0.559797
H101  H     H_    0.149363 0.537509 0.633040 0.097627
O97   O     O_2   0.127984 0.539709 0.737091 -0.465443
C230  C     C_2   0.872100 0.518438 0.309059 0.499644
H102  H     H_    0.847222 0.513352 0.353523 0.121385
O98   O     O_2   0.872672 0.528975 0.255540 -0.469919
C231  C     C_2   0.627919 0.019056 0.690264 0.500372
H103  H     H_    0.652861 0.015327 0.644804 0.126045
O99   O     O_2   0.627309 0.028528 0.744479 -0.471253
C232  C     C_2   0.374140 0.031761 0.307742 0.538837
H104  H     H_    0.349990 0.018802 0.340352 0.084482
O100  O     O_2   0.374519 0.054359 0.268393 -0.451154
O101  O     O_3   0.061230 0.549590 0.794465 -0.643627
H105  H     H_    0.037999 0.559984 0.818940 0.310556
O102  O     O_3   0.936144 0.546809 0.209261 -0.632423
H106  H     H_    0.958618 0.558708 0.186095 0.314031
O103  O     O_3   0.563877 0.046833 0.790495 -0.632452
H107  H     H_    0.541305 0.058599 0.813809 0.313534
O104  O     O_3   0.440677 0.051138 0.201787 -0.632609
H108  H     H_    0.464066 0.061174 0.177716 0.312215
O105  O     O_3   0.937394 0.512400 0.867622 -0.693286
H109  H     H_    0.939177 0.530885 0.897015 0.335668
O106  O     O_3   0.061947 0.516880 0.132854 -0.692163
H110  H     H_    0.058805 0.534285 0.103148 0.334837
O107  O     O_3   0.438085 0.017200 0.867084 -0.693979
H111  H     H_    0.441340 0.034570 0.896666 0.334404
O108  O     O_3   0.562902 0.009922 0.132052 -0.693830
H112  H     H_    0.562007 0.028870 0.102481 0.336605
C233  C     C_2   0.326142 0.458320 0.078081 0.437250
H113  H     H_    0.300454 0.448397 0.110678 0.068223
O109  O     O_2   0.340652 0.452041 0.015065 -0.500449
C234  C     C_2   0.673742 0.466437 0.933157 0.430321
H114  H     H_    0.698858 0.454645 0.903894 0.069349
O110  O     O_2   0.659749 0.466237 0.997449 -0.502143
C235  C     C_2   0.826330 0.962129 0.071757 0.430111
H115  H     H_    0.801753 0.949732 0.102563 0.068940
O111  O     O_2   0.839787 0.960907 0.007636 -0.503165
C236  C     C_2   0.170451 0.954883 0.931687 0.432032
H116  H     H_    0.192727 0.938928 0.901758 0.066337
O112  O     O_2   0.157702 0.955411 0.995751 -0.501042
O113  O     O_3   0.320820 0.534680 0.263655 -0.704534
H117  H     H_    0.332117 0.557111 0.259264 0.334180
O114  O     O_3   0.679785 0.528450 0.730099 -0.704867
H118  H     H_    0.667496 0.549001 0.727002 0.339187
O115  O     O_3   0.820426 0.030454 0.267757 -0.705272
H119  H     H_    0.832583 0.051534 0.268699 0.339452
O116  O     O_3   0.181448 0.025794 0.733677 -0.706063
H120  H     H_    0.168446 0.028069 0.707660 0.345370

loop_
_geom_bond_atom_site_label_1
_geom_bond_atom_site_label_2
_geom_bond_distance
_ccdc_geom_bond_type
O32   C128  1.291317 A    
O106  H110  0.991051 S    
O63   H67   0.989674 S    
C197  C207  1.425892 A    
C59   C63   1.408569 A    
C223  O87   1.220632 D    
C192  C224  1.490729 S    
C225  H97   1.081994 S    
C140  C144  1.416878 A    
C164  H40   1.083374 S    
O34   Cu10  1.957409 S    
C2    C106  1.473298 S    
C229  H101  1.085039 S    
C72   C134  1.471291 S    
C198  C202  1.395955 A    
C13   C17   1.416402 A    
C161  H37   1.083363 S    
O37   Cu9   1.954216 S    
C4    C108  1.475545 S    
C106  C110  1.419493 A    
C163  H39   1.083410 S    
C200  O92   1.384328 S    
C67   C71   1.409055 A    
C41   O105  1.377212 S    
C152  H32   1.083290 S    
O36   Cu12  1.957409 S    
O105  H109  0.991177 S    
C10   O70   1.382919 S    
C97   H21   1.083332 S    
C102  H26   1.083454 S    
C58   C94   1.474069 S    
C14   C226  1.485687 S    
C175  C179  1.398979 A    
O4    C4    1.290683 A    
C103  C107  1.400187 A    
O40   C134  1.297816 A    
C25   C45   1.427393 A    
C224  O88   1.220563 D    
C143  O75   1.383737 S    
C27   C47   1.427914 A    
C191  C223  1.490534 S    
C187  C196  1.399503 A    
C49   C53   1.399481 A    
O22   Cu6   1.967584 S    
Cu8   O32   1.957111 S    
C176  O80   1.387807 S    
Cu11  O47   1.956897 S    
C161  C171  1.403296 A    
C174  C183  1.419584 A    
O108  H112  0.991482 S    
O30   C127  1.290679 A    
C116  C120  1.421961 A    
C161  C165  1.396061 A    
O17   Cu5   1.956727 S    
C58   C62   1.407194 A    
C211  O55   1.221127 D    
C201  H49   1.085671 S    
O15   C7    1.285120 A    
C23   O103  1.384047 S    
O25   Cu6   1.967115 S    
O16   Cu4   1.966656 S    
O20   Cu8   1.956867 S    
C142  O74   1.382659 S    
C153  C157  1.403738 A    
C185  H45   1.085775 S    
O7    Cu4   1.953735 S    
C194  C208  1.480627 S    
O13   Cu3   1.966989 S    
C187  H47   1.085702 S    
Cu9   Cu10  2.681269 S    
C9    O69   1.381743 S    
C28   C48   1.426888 A    
O26   Cu5   1.967115 S    
C217  O65   1.221274 D    
O27   Cu8   1.967115 S    
C109  C213  1.491917 S    
O62   H66   0.989960 S    
C102  C106  1.400062 A    
C108  C112  1.420424 A    
C44   C48   1.417280 A    
O38   C132  1.299212 A    
C144  C146  1.409020 A    
O9    C5    1.289900 A    
C163  C172  1.403334 A    
C99   C119  1.397791 A    
C222  O86   1.220751 D    
C150  H30   1.083496 S    
C10   C30   1.419207 A    
C87   H15   1.082128 S    
C157  C171  1.475131 S    
O77   H81   0.988141 S    
O8    Cu4   1.953596 S    
O74   H78   0.990416 S    
C146  C160  1.482748 S    
O21   C123  1.296986 A    
C202  H50   1.085993 S    
C182  C196  1.481864 S    
O22   C124  1.299556 A    
C232  O100  1.220763 D    
C198  O90   1.383919 S    
C175  O79   1.388060 S    
O3    Cu2   1.954366 S    
C177  O81   1.385237 S    
C56   C60   1.412065 A    
C6    C34   1.453796 S    
O70   H74   0.989820 S    
C127  C205  1.462345 S    
C33   C37   1.392585 A    
C154  C157  1.403804 A    
C73   C93   1.402842 A    
C52   C72   1.400017 A    
O79   H83   0.988499 S    
C35   C39   1.394474 A    
C36   C40   1.392871 A    
C114  O62   1.383682 S    
C26   C46   1.427453 A    
C221  H89   1.087055 S    
C17   C229  1.491852 S    
C236  H116  1.080466 S    
C122  C170  1.473386 S    
C25   C29   1.409458 A    
O41   Cu10  1.955277 S    
C143  C146  1.418609 A    
C27   C31   1.408053 A    
C216  H64   1.082339 S    
C91   H19   1.082459 S    
C231  O99   1.220675 D    
O3    C3    1.291013 A    
C211  H59   1.082733 S    
O24   C126  1.294995 A    
C37   C41   1.384788 A    
C24   C28   1.420847 A    
C90   C94   1.399054 A    
O36   C130  1.292351 A    
O49   H53   0.987197 S    
C168  C170  1.404631 A    
O64   H68   0.989481 S    
C90   H18   1.082408 S    
C84   C120  1.484462 S    
C75   H11   1.082929 S    
C186  C195  1.399576 A    
C51   H7    1.083871 S    
C65   O49   1.380594 S    
C156  H36   1.083321 S    
C110  C114  1.417074 A    
C139  C143  1.409710 A    
O91   H95   0.987483 S    
C203  H51   1.084976 S    
C31   C35   1.418990 A    
C103  H27   1.083513 S    
O90   H94   0.988739 S    
C77   C209  1.482300 S    
O83   H87   0.990780 S    
C50   C70   1.399760 A    
C42   C46   1.416092 A    
O107  H111  0.991346 S    
C7    C35   1.453870 S    
O39   Cu11  1.954216 S    
C40   C44   1.384502 A    
C113  O61   1.385002 S    
C235  O111  1.219457 D    
C18   C22   1.410070 A    
C189  C221  1.489871 S    
C166  C169  1.404676 A    
O82   H86   0.989370 S    
C203  C206  1.398340 A    
C64   C68   1.420991 A    
C218  H70   1.084807 S    
C149  C155  1.395835 A    
C86   H14   1.081811 S    
O5    Cu3   1.953735 S    
C99   H23   1.083627 S    
C168  H44   1.083190 S    
O35   C130  1.292609 A    
C55   C235  1.482029 S    
C52   H8    1.085359 S    
C164  C168  1.395999 A    
C190  C222  1.489768 S    
C129  C183  1.467088 S    
C199  C203  1.396757 A    
C3    C107  1.474008 S    
C67   O51   1.380751 S    
C1    C105  1.475023 S    
C179  C182  1.421497 A    
O41   C131  1.297547 A    
C209  O53   1.219117 D    
O37   C131  1.295569 A    
C162  H38   1.083352 S    
C47   C125  1.488055 S    
C116  O64   1.382794 S    
C173  O77   1.387332 S    
O20   C122  1.292964 A    
C213  O57   1.220749 D    
H1    C37   1.085628 S    
C152  C160  1.404144 A    
C38   C42   1.385907 A    
C107  C111  1.420709 A    
C185  C191  1.400594 A    
H3    C39   1.085100 S    
C188  H48   1.085629 S    
C186  C192  1.400644 A    
C210  H58   1.082518 S    
H4    C40   1.085397 S    
C76   C80   1.403855 A    
Cu11  Cu12  2.681269 S    
C138  C142  1.417338 A    
C193  C207  1.482753 S    
C84   C88   1.403939 A    
C141  O73   1.382599 S    
O5    C1    1.295746 A    
C89   H17   1.079815 S    
O116  H120  0.989351 S    
O8    C4    1.296331 A    
O31   C128  1.291038 A    
C51   C71   1.401392 A    
O115  H119  0.990239 S    
C22   O102  1.380714 S    
O48   C136  1.296297 A    
O15   Cu4   1.966989 S    
C45   C123  1.486724 S    
C81   C85   1.407048 A    
C46   C124  1.488142 S    
O42   Cu9   1.955271 S    
C212  O56   1.221631 D    
C204  C206  1.398792 A    
C162  C166  1.396049 A    
C65   C69   1.408938 A    
C80   C84   1.417786 A    
C140  C220  1.491152 S    
C226  H98   1.083692 S    
C165  C169  1.404779 A    
Cu7   Cu8   2.664142 S    
C153  H33   1.083097 S    
C49   H5    1.084776 S    
C76   C96   1.402005 A    
C20   C232  1.496132 S    
C186  H46   1.085674 S    
C104  H28   1.084205 S    
C234  O110  1.220580 D    
C80   C212  1.484370 S    
C151  H31   1.083330 S    
O1    Cu1   1.954366 S    
C202  C205  1.397876 A    
C155  H35   1.083397 S    
O38   Cu10  1.954208 S    
C83   C87   1.404521 A    
C43   O107  1.377848 S    
C149  H29   1.083286 S    
C174  O78   1.387141 S    
C98   C118  1.397978 A    
C139  C219  1.493456 S    
O10   C6    1.290691 A    
C180  C182  1.421464 A    
O81   H85   0.989444 S    
C63   O115  1.381940 S    
C13   C225  1.489806 S    
C19   C23   1.410324 A    
C98   C102  1.388520 A    
C197  C201  1.395859 A    
C68   C72   1.406517 A    
C233  O109  1.220261 D    
C111  C215  1.493763 S    
C141  C145  1.407327 A    
C191  C194  1.425901 A    
O29   C127  1.290536 A    
C88   H16   1.080882 S    
C110  C214  1.493683 S    
O102  H106  0.990781 S    
C164  C172  1.403356 A    
C155  C158  1.403596 A    
O26   C124  1.293282 A    
C16   C20   1.419136 A    
C234  H114  1.084442 S    
C178  C181  1.421650 A    
O101  H105  0.991522 S    
C150  C156  1.395872 A    
O17   C121  1.293023 A    
C83   C119  1.479064 S    
C85   C89   1.394614 A    
O46   C135  1.296584 A    
C53   C57   1.411746 A    
C200  C204  1.396866 A    
C115  O63   1.384136 S    
C144  O76   1.382412 S    
C87   C91   1.393997 A    
C34   C38   1.394015 A    
C55   C59   1.411454 A    
C188  C190  1.400262 A    
O114  H118  0.990535 S    
O35   Cu11  1.957752 S    
C19   C231  1.496878 S    
C52   C56   1.396838 A    
C44   O108  1.376977 S    
C97   C117  1.397237 A    
C228  H100  1.085112 S    
O72   H76   0.985642 S    
O61   H65   0.989513 S    
C139  C148  1.415062 A    
C173  C183  1.419576 A    
C26   C30   1.407671 A    
O44   Cu11  1.955271 S    
C56   C236  1.480386 S    
C181  C195  1.481532 S    
C113  C117  1.421066 A    
C16   C228  1.487766 S    
C42   O106  1.377781 S    
C112  C116  1.416148 A    
C97   C101  1.388492 A    
C91   C95   1.399496 A    
O47   C136  1.296723 A    
C92   C96   1.398276 A    
C81   C117  1.479081 S    
O24   Cu8   1.967584 S    
C66   C70   1.409960 A    
C73   C77   1.405184 A    
O23   C125  1.299527 A    
C230  H102  1.076964 S    
C75   C79   1.401794 A    
O28   C126  1.296817 A    
C165  H41   1.083210 S    
C114  C118  1.420655 A    
C167  H43   1.083249 S    
O84   H88   0.990808 S    
C62   C66   1.418908 A    
C69   C131  1.470418 S    
C197  O89   1.383853 S    
O39   C133  1.297421 A    
O104  H108  0.991512 S    
O14   C6    1.285005 A    
C152  C154  1.395908 A    
C225  O93   1.221347 D    
C50   C54   1.398137 A    
C192  C194  1.426006 A    
C220  H72   1.084896 S    
C229  O97   1.221467 D    
C177  C181  1.421781 A    
O19   C122  1.293073 A    
C79   C211  1.482940 S    
Cu12  O48   1.957232 S    
O1    C1    1.291089 A    
C60   C96   1.476653 S    
C227  O95   1.219694 D    
C98   H22   1.083730 S    
C215  H63   1.082632 S    
C57   C61   1.409682 A    
C23   C27   1.421425 A    
C54   C58   1.409531 A    
C70   C132  1.475716 S    
C137  C141  1.417217 A    
O50   H54   0.989453 S    
C190  C193  1.425058 A    
C11   C15   1.424345 A    
C235  H115  1.080960 S    
C176  C184  1.419572 A    
O113  H117  0.990545 S    
C12   C32   1.419469 A    
C59   C95   1.473266 S    
Cu10  O46   1.957232 S    
C236  O112  1.219937 D    
C21   C25   1.422283 A    
C179  O83   1.385116 S    
C138  C218  1.490534 S    
C219  O67   1.220830 D    
C216  O60   1.220911 D    
C48   C126  1.486988 S    
C78   C210  1.482702 S    
H2    C38   1.085008 S    
C200  C208  1.426048 A    
C224  H92   1.087368 S    
C185  C195  1.399588 A    
C74   C78   1.401925 A    
C109  C113  1.416155 A    
C76   H12   1.082347 S    
C9    C13   1.422762 A    
O75   H79   0.989802 S    
C173  C177  1.398243 A    
C180  O84   1.385258 S    
C29   C33   1.417851 A    
C162  C171  1.403396 A    
C149  C159  1.404146 A    
C199  C208  1.426523 A    
C100  H24   1.083229 S    
C64   O116  1.382559 S    
O6    C2    1.294910 A    
C220  O68   1.220344 D    
O80   H84   0.988460 S    
C88   C92   1.394073 A    
C71   C133  1.473226 S    
C150  C159  1.404094 A    
Cu6   O30   1.957111 S    
C151  C153  1.395676 A    
C154  H34   1.083234 S    
C136  C148  1.471356 S    
Cu5   Cu6   2.664142 S    
C17   C21   1.409918 A    
C51   C55   1.398865 A    
C41   C45   1.418224 A    
C218  O66   1.220884 D    
O2    Cu1   1.954513 S    
C43   C47   1.415976 A    
O10   Cu1   1.967206 S    
C105  C109  1.420529 A    
O51   H55   0.989692 S    
O43   C133  1.297069 A    
C163  C167  1.396032 A    
C24   O104  1.384003 S    
O45   C135  1.296408 A    
C32   C36   1.420093 A    
C222  H90   1.086998 S    
C50   H6    1.083573 S    
C151  C160  1.403709 A    
C104  C108  1.399866 A    
C18   C230  1.495319 S    
C101  H25   1.083707 S    
C57   C93   1.473122 S    
O18   C121  1.293018 A    
O13   C5    1.284911 A    
C100  C120  1.398882 A    
C20   C24   1.410027 A    
C167  C170  1.404698 A    
C232  H104  1.083593 S    
C9    C29   1.419266 A    
C209  H57   1.081644 S    
C53   C233  1.485302 S    
C219  H71   1.084779 S    
C100  C104  1.390463 A    
O89   H93   0.988884 S    
O78   H82   0.988131 S    
C213  H61   1.082688 S    
O40   Cu12  1.954208 S    
O7    C3    1.294878 A    
C99   C103  1.388963 A    
O43   Cu12  1.955277 S    
C210  O54   1.221044 D    
C14   C18   1.417480 A    
Cu9   O45   1.956897 S    
C221  O85   1.220689 D    
C156  C158  1.403456 A    
C66   O50   1.381319 S    
O19   Cu7   1.956727 S    
C142  C145  1.407387 A    
C75   C95   1.400796 A    
C85   H13   1.080611 S    
C223  H91   1.087354 S    
C201  C205  1.397614 A    
O16   C8    1.285480 A    
C68   O52   1.381045 S    
C112  C216  1.490781 S    
O33   C129  1.293030 A    
O28   Cu7   1.967115 S    
Cu5   O29   1.957251 S    
O33   Cu9   1.957752 S    
O42   C132  1.297390 A    
C101  C105  1.400245 A    
O11   C7    1.290854 A    
C62   O114  1.381997 S    
O12   C8    1.290820 A    
C61   C65   1.418330 A    
C198  C207  1.425712 A    
O9    Cu1   1.966869 S    
C227  H99   1.085236 S    
C92   H20   1.083789 S    
C226  O94   1.220585 D    
C82   C118  1.479811 S    
O25   C123  1.295099 A    
C73   H9    1.083388 S    
C39   C43   1.386365 A    
O4    Cu2   1.954513 S    
O23   Cu7   1.967583 S    
C11   C31   1.418917 A    
C137  C147  1.415052 A    
C60   C64   1.412473 A    
C12   C16   1.426057 A    
C166  H42   1.083133 S    
O92   H96   0.987258 S    
O27   C125  1.293286 A    
O11   Cu2   1.966869 S    
C15   C19   1.418257 A    
O44   C134  1.296030 A    
O21   Cu5   1.967583 S    
C138  C147  1.414653 A    
C204  H52   1.085503 S    
C115  C119  1.420533 A    
C74   C94   1.400601 A    
C5    C33   1.451447 S    
Cu7   O31   1.957251 S    
C215  O59   1.219886 D    
O6    Cu3   1.953596 S    
C128  C206  1.462211 S    
C8    C36   1.453533 S    
C137  C217  1.490105 S    
O34   C129  1.292944 A    
C233  H113  1.083230 S    
C214  H62   1.083114 S    
C77   C81   1.419382 A    
O71   H75   0.986978 S    
C82   C86   1.405120 A    
C135  C147  1.471327 S    
C121  C169  1.473554 S    
C214  O58   1.219705 D    
C49   C69   1.401577 A    
C61   O113  1.380371 S    
C111  C115  1.417433 A    
C199  O91   1.384286 S    
C158  C172  1.474834 S    
O18   Cu6   1.956867 S    
C178  O82   1.385383 S    
O2    C2    1.290735 A    
C30   C34   1.417911 A    
C89   C93   1.397804 A    
C78   C82   1.419208 A    
C189  C193  1.425135 A    
C10   C14   1.427952 A    
O14   Cu3   1.966656 S    
C176  C180  1.398888 A    
O12   Cu2   1.967206 S    
C228  O96   1.220626 D    
C130  C184  1.465537 S    
Cu1   Cu3   2.667579 S    
C217  H69   1.085235 S    
C22   C26   1.424046 A    
Cu2   Cu4   2.667579 S    
C175  C184  1.419875 A    
C231  H103  1.078973 S    
O69   H73   0.988458 S    
O52   H56   0.990204 S    
O73   H77   0.989723 S    
C230  O98   1.219775 D    
C188  C196  1.399396 A    
C54   C234  1.483552 S    
C21   O101  1.383785 S    
O103  H107  0.991462 S    
C187  C189  1.400432 A    
C140  C148  1.413492 A    
C145  C159  1.482199 S    
C28   C32   1.408919 A    
C11   O71   1.383200 S    
C12   O72   1.383942 S    
C63   C67   1.418866 A    
C15   C227  1.485901 S    
C212  H60   1.083830 S    
C174  C178  1.398350 A    
C74   H10   1.082643 S    
C79   C83   1.417708 A    
C86   C90   1.393343 A    
O76   H80   0.990218 S    
