data_mof_unit_60139.cif
_audit_creation_date              2012-12-10T16:40:36-0500
_audit_creation_method            fapswitch 2.2
_symmetry_space_group_name_H-M    P1
_symmetry_Int_Tables_number       1
_space_group_crystal_system       triclinic
_cell_length_a                    10.827893
_cell_length_b                    10.822085
_cell_length_c                    19.506301
_cell_angle_alpha                 97.162326
_cell_angle_beta                  91.805068
_cell_angle_gamma                 98.462846
_cell_volume                      2240.32992788

loop_
_atom_site_label
_atom_site_type_symbol
_atom_type_description
_atom_site_fract_x
_atom_site_fract_y
_atom_site_fract_z
_atom_type_partial_charge
C1    C     C_R   0.475045 0.161855 0.484272 0.860933
C2    C     C_2   0.536615 0.492940 0.019298 -0.199661
C3    C     C_2   0.449724 0.533353 0.980798 -0.237252
C4    C     C_R   0.524490 0.838966 0.515524 0.881861
C5    C     C_R   0.477682 0.522126 0.763220 0.006106
C6    C     C_2   0.533523 0.975182 0.521799 -0.342475
C7    C     C_2   0.465826 0.027257 0.478291 -0.291772
C8    C     C_2   0.972036 0.536420 0.521689 -0.349785
C9    C     C_2   0.030425 0.462133 0.478306 -0.287522
C10   C     C_R   0.164140 0.472591 0.484243 0.861993
C11   C     C_R   0.836827 0.526553 0.515490 0.886682
C12   C     C_R   0.525866 0.484319 0.093772 0.160919
C13   C     C_R   0.486380 0.513780 0.688322 0.790000
C14   C     C_R   0.512447 0.486028 0.311779 0.848389
C15   C     C_R   0.515016 0.479216 0.236660 -0.039075
C16   C     C_R   0.404623 0.480270 0.196933 0.436731
C17   C     C_R   0.410631 0.481081 0.125363 -0.263070
C18   C     C_R   0.633942 0.477853 0.133676 -0.176500
C19   C     C_R   0.628519 0.474658 0.204631 -0.285406
C20   C     C_R   0.574336 0.576889 0.878613 -0.158633
C21   C     C_R   0.582622 0.572219 0.807299 -0.207001
C22   C     C_R   0.363534 0.480360 0.791123 -0.194866
C23   C     C_R   0.354610 0.487754 0.862416 -0.173792
C24   C     C_R   0.460390 0.533459 0.906278 0.195092
H1    H     H_    0.266020 0.454785 0.883340 0.131356
H2    H     H_    0.656366 0.614794 0.912087 0.133858
H3    H     H_    0.713701 0.472781 0.234901 0.173910
H4    H     H_    0.619554 0.465812 0.995258 0.147184
H5    H     H_    0.324693 0.477856 0.095108 0.120929
H6    H     H_    0.224381 0.479500 0.193666 0.326151
H7    H     H_    0.595621 0.033441 0.561993 0.149034
H8    H     H_    0.403687 0.971281 0.437457 0.166269
H9    H     H_    0.024439 0.604658 0.561765 0.147521
H10   H     H_    0.980398 0.393666 0.437633 0.166131
H11   H     H_    0.671272 0.605498 0.786580 0.156542
H12   H     H_    0.281123 0.442878 0.757839 0.157501
H13   H     H_    0.365457 0.560731 0.002549 0.150945
H14   H     H_    0.723222 0.477838 0.110104 0.140691
O1    O     O_3   0.500000 0.500000 0.500000 -0.499168
O2    O     O_R   0.410860 0.431690 0.648970 -0.645053
O3    O     O_R   0.578570 0.421470 0.344370 -0.659200
O4    O     O_R   0.567340 0.590030 0.662290 -0.645661
O5    O     O_R   0.443230 0.556810 0.344370 -0.592268
O6    O     O_3   0.292215 0.478166 0.228806 -0.760972
O7    O     O_R   0.229880 0.548640 0.449830 -0.620932
O8    O     O_R   0.775840 0.445670 0.468570 -0.640569
O9    O     O_R   0.404020 0.217050 0.524780 -0.632727
O10   O     O_R   0.590260 0.788640 0.556820 -0.644558
O11   O     O_R   0.555650 0.222860 0.449830 -0.632524
O12   O     O_R   0.450070 0.771450 0.468560 -0.640845
O13   O     O_R   0.213590 0.407490 0.524780 -0.638811
O14   O     O_R   0.780700 0.598200 0.556830 -0.645932
Zn1   Zn    Zn3+2 0.407400 0.592620 0.441700 1.001015
Zn2   Zn    Zn3+2 0.384130 0.390950 0.548790 0.971172
Zn3   Zn    Zn3+2 0.607710 0.617180 0.567810 0.965783
Zn4   Zn    Zn3+2 0.600760 0.399250 0.441700 0.971330

loop_
_geom_bond_atom_site_label_1
_geom_bond_atom_site_label_2
_ccdc_geom_bond_type
C12   C17   A    
O10   Zn3   S    
C23   C24   A    
O3    Zn4   S    
C6    C7    D    
C21   H11   S    
O4    Zn3   S    
O11   Zn4   S    
C22   H12   S    
C9    C10   S    
C16   O6    S    
C5    C13   S    
O1    Zn4   S    
O14   Zn3   S    
O13   Zn2   S    
C2    C12   S    
C10   O7    A    
C2    C3    D    
C18   H14   S    
O7    Zn1   S    
C17   H5    S    
C15   C19   A    
H6    O6    S    
C3    C24   S    
O1    Zn1   S    
C20   H2    S    
C8    C11   S    
C10   O13   A    
C13   O4    A    
C6    H7    S    
O9    Zn2   S    
C8    H9    S    
C23   H1    S    
C9    H10   S    
C14   O3    A    
O1    Zn3   S    
O12   Zn1   S    
C16   C17   A    
C11   O14   A    
O8    Zn4   S    
C15   C16   A    
O1    Zn2   S    
C19   H3    S    
C20   C21   A    
C3    H13   S    
C4    C6    S    
C18   C19   A    
C4    O10   A    
C12   C18   A    
C14   C15   S    
C14   O5    A    
C13   O2    A    
C2    H4    S    
C7    H8    S    
C1    C7    S    
C1    O11   A    
O5    Zn1   S    
C22   C23   A    
C1    O9    A    
C5    C22   A    
C20   C24   A    
O2    Zn2   S    
C4    O12   A    
C8    C9    D    
C11   O8    A    
C5    C21   A    
