data_mof_unit_25227.cif
_audit_creation_date              2012-12-10T18:23:56-0500
_audit_creation_method            fapswitch 2.2
_symmetry_space_group_name_H-M    P1
_symmetry_Int_Tables_number       1
_space_group_crystal_system       triclinic
_cell_length_a                    15.719327
_cell_length_b                    15.041314
_cell_length_c                    14.009615
_cell_angle_alpha                 90.704879
_cell_angle_beta                  89.533511
_cell_angle_gamma                 90.176735
_cell_volume                      3312.0488326

loop_
_atom_site_label
_atom_site_type_symbol
_atom_type_description
_atom_site_fract_x
_atom_site_fract_y
_atom_site_fract_z
_atom_type_partial_charge
C1    C     C_R   0.498093 0.326319 0.499084 0.915817
C2    C     C_R   0.498010 0.673275 0.500599 0.904780
C3    C     C_R   0.493014 0.768797 0.501623 -0.213300
C4    C     C_R   0.494144 0.230070 0.496497 -0.210064
C5    C     C_R   0.519991 0.813283 0.420434 -0.288240
C6    C     C_R   0.480287 0.185712 0.582003 -0.289602
C7    C     C_R   0.517262 0.904592 0.418204 0.072898
C8    C     C_R   0.476839 0.094016 0.582841 0.074545
C9    C     C_R   0.493667 0.952775 0.501008 -0.030648
C10   C     C_R   0.494449 0.045546 0.498437 -0.022408
C11   C     C_R   0.469114 0.908207 0.585876 -0.084824
C12   C     C_R   0.512269 0.089743 0.411485 -0.094869
C13   C     C_R   0.540350 0.947792 0.334495 -0.249888
C14   C     C_R   0.458095 0.050602 0.667925 -0.251577
C15   C     C_R   0.537763 0.039636 0.329855 0.408769
C16   C     C_R   0.453667 0.958449 0.670455 0.411079
C17   C     C_R   0.429952 0.529657 0.799100 -0.021598
C18   C     C_R   0.570241 0.471044 0.200963 -0.034425
C19   C     C_R   0.569703 0.470161 0.797284 -0.008108
C20   C     C_R   0.429831 0.528766 0.202810 -0.038093
C21   C     C_R   0.571476 0.470143 0.897764 -0.030648
C22   C     C_R   0.428252 0.529371 0.102374 -0.022744
C23   C     C_R   0.337930 0.499791 0.500293 0.875678
C24   C     C_R   0.662214 0.500518 0.499648 0.911442
C25   C     C_R   0.500009 0.500877 0.949479 0.025749
C26   C     C_R   0.500377 0.500617 0.050636 0.017388
C27   C     C_R   0.427904 0.530878 0.900011 -0.081876
C28   C     C_R   0.572504 0.470823 0.100110 -0.102452
C29   C     C_R   0.642887 0.439913 0.947219 -0.278753
C30   C     C_R   0.356117 0.557526 0.053024 -0.285307
C31   C     C_R   0.644578 0.441554 0.047606 0.506762
C32   C     C_R   0.355922 0.560524 0.952680 0.486754
C33   C     C_3   0.970779 0.417382 0.481492 -0.406109
C34   C     C_3   0.029990 0.584887 0.519992 -0.529845
C35   C     C_3   0.028879 0.473180 0.415627 0.429886
C36   C     C_3   0.971311 0.528452 0.585683 0.427649
C37   C     C_1   0.249362 0.499232 0.500821 -0.196327
C38   C     C_1   0.751067 0.501971 0.498806 -0.175675
C39   C     C_3   0.025849 0.445447 0.567710 0.462312
C40   C     C_3   0.975338 0.556835 0.433462 0.432336
C41   C     C_3   0.083704 0.499721 0.501429 -0.077684
C42   C     C_3   0.917106 0.502164 0.499399 -0.045353
C43   C     C_1   0.174273 0.499004 0.500927 0.040363
C44   C     C_1   0.826321 0.502780 0.498606 0.083962
C45   C     C_R   0.460623 0.815266 0.581977 0.487683
C46   C     C_R   0.503185 0.182378 0.409541 0.450690
H1    H     H_    0.697809 0.415292 0.907985 0.161488
H2    H     H_    0.299464 0.577204 0.092372 0.155000
H3    H     H_    0.943893 0.350197 0.467828 0.180459
H4    H     H_    0.056278 0.652212 0.534286 0.176135
H5    H     H_    0.542753 0.776595 0.358145 0.186910
H6    H     H_    0.470121 0.222672 0.648088 0.187425
H7    H     H_    0.560539 0.909812 0.272040 0.183514
H8    H     H_    0.446856 0.088621 0.733077 0.183710
H9    H     H_    0.375670 0.552241 0.759366 0.149069
H10   H     H_    0.624225 0.447697 0.240771 0.179634
H11   H     H_    0.623990 0.446273 0.756623 0.143276
H12   H     H_    0.375059 0.551343 0.243492 0.143867
N1    N     N_R   0.500040 0.500070 0.750030 -0.108851
N2    N     N_R   0.499960 0.499930 0.249970 -0.117663
O1    O     O_R   0.500020 0.367860 0.580280 -0.628347
O2    O     O_R   0.499980 0.632140 0.419720 -0.631116
O3    O     O_R   0.500020 0.367840 0.419730 -0.574093
O4    O     O_R   0.499980 0.632160 0.580270 -0.572453
O5    O     O_R   0.376770 0.500000 0.580260 -0.640275
O6    O     O_R   0.623230 0.500000 0.419740 -0.626052
O7    O     O_R   0.376780 0.499980 0.419710 -0.625466
O8    O     O_R   0.623220 0.500020 0.580290 -0.617739
Zn1   Zn    Zn3+2 0.499990 0.500020 0.607200 0.966708
Zn2   Zn    Zn3+2 0.500010 0.499980 0.392800 0.959566
O9    O     O_3   0.067111 0.446031 0.328554 -0.646333
C47   C     C_3   0.005808 0.410498 0.265358 0.070766
H13   H     H_    0.019466 0.437712 0.193528 0.167770
H14   H     H_    0.938901 0.429280 0.283668 0.139519
C48   C     C_3   0.014642 0.309310 0.259342 -0.349217
H15   H     H_    0.080662 0.291977 0.237125 0.235315
H16   H     H_    0.002394 0.280054 0.330482 0.224987
C49   C     C_3   0.952483 0.268984 0.187679 -0.906892
H17   H     H_    0.885999 0.286544 0.207556 0.282909
H18   H     H_    0.958661 0.195466 0.187074 0.271571
H19   H     H_    0.966801 0.293538 0.114848 0.257516
O10   O     O_3   0.933964 0.551495 0.674658 -0.632407
C50   C     C_3   0.979292 0.622516 0.717145 0.070354
H20   H     H_    0.966047 0.685160 0.678527 0.167260
H21   H     H_    0.049095 0.609681 0.716279 0.117716
C51   C     C_3   0.950458 0.633622 0.820893 -0.316060
H22   H     H_    0.881733 0.650739 0.823521 0.237909
H23   H     H_    0.959488 0.569804 0.858511 0.223460
C52   C     C_3   0.001376 0.706431 0.871646 -0.970199
H24   H     H_    0.069969 0.689081 0.871614 0.270335
H25   H     H_    0.979084 0.713464 0.946732 0.274755
H26   H     H_    0.992963 0.771060 0.835439 0.272295
O11   O     O_3   0.715728 0.410145 0.093640 -0.636364
C53   C     C_3   0.770397 0.482043 0.117159 0.068222
H27   H     H_    0.793827 0.471300 0.190749 0.166329
H28   H     H_    0.738723 0.548547 0.118212 0.128452
C54   C     C_3   0.846838 0.483152 0.048824 -0.336919
H29   H     H_    0.880946 0.418783 0.052934 0.231614
H30   H     H_    0.824877 0.491799 0.974371 0.220455
C55   C     C_3   0.907985 0.558557 0.074007 -0.999427
H31   H     H_    0.878041 0.623740 0.059514 0.277468
H32   H     H_    0.967087 0.552287 0.030641 0.268041
H33   H     H_    0.925144 0.555814 0.150448 0.269955
O12   O     O_3   0.281825 0.584114 0.907001 -0.677958
C56   C     C_3   0.282447 0.676231 0.887950 0.049387
H34   H     H_    0.242081 0.685981 0.824342 0.168284
H35   H     H_    0.346930 0.702384 0.869134 0.178561
C57   C     C_3   0.243897 0.729334 0.971797 -0.368974
H36   H     H_    0.183852 0.697080 0.995780 0.231912
H37   H     H_    0.288985 0.730408 0.032406 0.219547
C58   C     C_3   0.225091 0.824985 0.943962 -0.894142
H38   H     H_    0.284483 0.858922 0.920854 0.303219
H39   H     H_    0.198018 0.861592 0.006399 0.265323
H40   H     H_    0.178203 0.826342 0.885101 0.260194
O13   O     O_3   0.942050 0.614838 0.364802 -0.644139
C59   C     C_3   0.009342 0.653727 0.312421 0.090487
H41   H     H_    0.037744 0.603509 0.262937 0.170961
H42   H     H_    0.060018 0.680723 0.359922 0.140744
C60   C     C_3   0.974578 0.730650 0.254181 -0.324913
H43   H     H_    0.917388 0.708493 0.214298 0.237512
H44   H     H_    0.955259 0.785649 0.303369 0.229914
C61   C     C_3   0.040942 0.765033 0.183389 -0.972880
H45   H     H_    0.098651 0.788255 0.221675 0.266588
H46   H     H_    0.014212 0.821589 0.143341 0.275540
H47   H     H_    0.058887 0.711723 0.131500 0.265482
O14   O     O_3   0.053050 0.381142 0.633358 -0.622038
C62   C     C_3   0.095791 0.421662 0.710666 0.104432
H48   H     H_    0.048453 0.449318 0.762228 0.168713
H49   H     H_    0.139644 0.475622 0.687404 0.127197
C63   C     C_3   0.147978 0.350977 0.761082 -0.352789
H50   H     H_    0.104386 0.300538 0.792244 0.231774
H51   H     H_    0.190427 0.317056 0.708333 0.236472
C64   C     C_3   0.202343 0.391660 0.840104 -0.895507
H52   H     H_    0.250269 0.437354 0.808749 0.286813
H53   H     H_    0.236353 0.338209 0.878073 0.259790
H54   H     H_    0.161939 0.428721 0.892350 0.276989
O15   O     O_3   0.421016 0.769952 0.655772 -0.584741
C65   C     C_3   0.338876 0.740996 0.627299 0.112610
H55   H     H_    0.323999 0.679219 0.666667 0.153365
H56   H     H_    0.334615 0.723099 0.549966 0.094351
C66   C     C_3   0.271482 0.810828 0.652890 -0.339767
H57   H     H_    0.274204 0.826571 0.730407 0.257738
H58   H     H_    0.284376 0.872746 0.612771 0.221020
C67   C     C_3   0.182353 0.777478 0.628682 -1.013706
H59   H     H_    0.177288 0.764422 0.550718 0.268156
H60   H     H_    0.134719 0.828574 0.649724 0.277675
H61   H     H_    0.167839 0.715387 0.667752 0.252397
O16   O     O_3   0.501952 0.226238 0.323290 -0.571780
C68   C     C_3   0.416952 0.228549 0.290756 0.132750
H62   H     H_    0.376843 0.269308 0.340427 0.129151
H63   H     H_    0.389385 0.160274 0.285156 0.126477
C69   C     C_3   0.415375 0.270052 0.191756 -0.257332
H64   H     H_    0.449205 0.334676 0.193878 0.238738
H65   H     H_    0.448951 0.225797 0.139825 0.256665
C70   C     C_3   0.324590 0.285270 0.157971 -0.979942
H66   H     H_    0.289317 0.221228 0.154203 0.268805
H67   H     H_    0.326123 0.315031 0.085803 0.274911
H68   H     H_    0.290805 0.331689 0.207474 0.273787
Cl1   Cl    Cl    0.574818 0.086216 0.222068 -0.566397
Cl2   Cl    Cl    0.436567 0.911521 0.783925 -0.609410

loop_
_geom_bond_atom_site_label_1
_geom_bond_atom_site_label_2
_ccdc_geom_bond_type
O14   C62   S    
C16   Cl2   S    
C57   H36   S    
C36   C42   S    
C58   H38   S    
C54   H29   S    
C39   C41   S    
C4    C46   A    
C19   H11   S    
C38   C44   T    
C56   H35   S    
O11   C53   S    
C29   H1    S    
C34   C40   S    
C33   C42   S    
C30   H2    S    
C19   C21   A    
C2    C3    S    
C67   H61   S    
C49   H18   S    
C40   O13   S    
C70   H67   S    
C33   H3    S    
O13   C59   S    
C51   H23   S    
C59   H41   S    
O2    Zn2   S    
C23   O7    A    
C46   O16   S    
C36   O10   S    
O8    Zn1   S    
C64   H54   S    
C24   C38   S    
C32   O12   S    
C20   N2    A    
C9    C10   A    
C17   H9    S    
C24   O6    A    
C40   C42   S    
C35   O9    S    
C39   O14   S    
C70   H68   S    
C41   C43   S    
C68   H63   S    
C34   C41   S    
C42   C44   S    
C47   C48   S    
C1    O3    A    
C55   H32   S    
O12   C56   S    
C54   H30   S    
C2    O4    A    
C13   H7    S    
C60   H44   S    
C56   C57   S    
C34   H4    S    
C28   C31   A    
O3    Zn2   S    
C17   C27   A    
C18   C28   A    
O16   C68   S    
C67   H60   S    
C68   C69   S    
C5    C7    A    
C49   H17   S    
C47   H13   S    
C6    C8    A    
C53   C54   S    
C19   N1    A    
C25   C26   A    
C23   C37   S    
C21   C29   A    
C3    C45   A    
C55   H33   S    
C12   C46   A    
C37   C43   T    
C63   H51   S    
C48   H15   S    
C62   H49   S    
C15   Cl1   S    
C9    C11   A    
C11   C16   A    
C50   H20   S    
C69   C70   S    
N2    Zn2   S    
C45   O15   S    
C58   H39   S    
C33   C39   S    
O4    Zn1   S    
C52   H26   S    
C53   H28   S    
C48   H16   S    
C10   C12   A    
C17   N1    A    
C47   H14   S    
C14   H8    S    
C69   H65   S    
C12   C15   A    
N1    Zn1   S    
C13   C15   A    
C64   H52   S    
C14   C16   A    
C66   C67   S    
C4    C6    A    
C52   H25   S    
C61   H46   S    
C62   H48   S    
C65   C66   S    
C54   C55   S    
O15   C65   S    
C60   C61   S    
C18   N2    A    
C7    C9    A    
C21   C25   A    
C8    C14   A    
C22   C30   A    
C50   H21   S    
C27   C32   A    
C51   H22   S    
C36   C39   S    
C20   C22   A    
C67   H59   S    
C3    C5    A    
C51   C52   S    
C1    O1    A    
C60   H43   S    
C57   C58   S    
C65   H56   S    
C18   H10   S    
C25   C27   A    
C56   H34   S    
C26   C28   A    
C59   C60   S    
C1    C4    S    
O1    Zn1   S    
O7    Zn2   S    
C61   H47   S    
C66   H58   S    
C63   H50   S    
C52   H24   S    
C62   C63   S    
O9    C47   S    
C29   C31   A    
C31   O11   S    
C68   H62   S    
C30   C32   A    
C49   H19   S    
C23   O5    A    
O6    Zn2   S    
C57   H37   S    
O5    Zn1   S    
C55   H31   S    
C33   C35   S    
C59   H42   S    
C35   C40   S    
C58   H40   S    
C34   C36   S    
C53   H27   S    
C35   C41   S    
C48   C49   S    
C11   C45   A    
C65   H55   S    
C24   O8    A    
C63   C64   S    
C7    C13   A    
C50   C51   S    
C69   H64   S    
C8    C10   A    
O10   C50   S    
C22   C26   A    
C70   H66   S    
C64   H53   S    
C5    H5    S    
C6    H6    S    
C61   H45   S    
C66   H57   S    
C20   H12   S    
C2    O2    A    
