data_mof_unit_44223.cif
_audit_creation_date              2012-12-10T18:38:09-0500
_audit_creation_method            fapswitch 2.2
_symmetry_space_group_name_H-M    P1
_symmetry_Int_Tables_number       1
_space_group_crystal_system       triclinic
_cell_length_a                    15.183627
_cell_length_b                    13.822533
_cell_length_c                    10.662892
_cell_angle_alpha                 90.344135
_cell_angle_beta                  89.918681
_cell_angle_gamma                 90.077374
_cell_volume                      2237.84246169

loop_
_atom_site_label
_atom_site_type_symbol
_atom_type_description
_atom_site_fract_x
_atom_site_fract_y
_atom_site_fract_z
_atom_type_partial_charge
C1    C     C_R   0.329791 0.499862 0.501284 0.821737
C2    C     C_R   0.670259 0.499867 0.498459 0.850333
C3    C     C_R   0.443572 0.108230 0.581633 0.304915
C4    C     C_R   0.443798 0.891769 0.418477 0.309602
C5    C     C_R   0.556612 0.107616 0.418731 0.297928
C6    C     C_R   0.556172 0.892580 0.581872 0.307692
C7    C     C_R   0.445408 0.209980 0.578955 0.023229
C8    C     C_R   0.445593 0.789973 0.421063 0.049555
C9    C     C_R   0.554728 0.209391 0.421267 0.067179
C10   C     C_R   0.554362 0.790762 0.579085 0.090661
C11   C     C_R   0.500088 0.054710 0.500198 -0.155024
C12   C     C_R   0.500024 0.945391 0.500180 -0.149577
C13   C     C_R   0.500254 0.499675 0.259450 0.844848
C14   C     C_R   0.499019 0.500374 0.740517 0.872251
C15   C     C_3   0.421008 0.527088 0.042951 0.340697
C16   C     C_3   0.577049 0.473524 0.957143 0.357020
C17   C     C_3   0.481413 0.589089 0.961546 0.378122
C18   C     C_3   0.516558 0.411349 0.038055 0.371823
C19   C     C_3   0.435642 0.437817 0.957350 -0.363562
C20   C     C_3   0.562277 0.562880 0.042352 -0.413450
C21   C     C_3   0.497743 0.501115 0.876390 -0.127216
C22   C     C_3   0.500466 0.499247 0.123526 -0.180433
C23   C     C_R   0.094637 0.581870 0.541307 -0.237989
C24   C     C_R   0.905225 0.417133 0.537329 -0.266761
C25   C     C_R   0.905833 0.581626 0.460675 -0.243319
C26   C     C_R   0.094654 0.417296 0.462254 -0.245559
C27   C     C_R   0.186266 0.581874 0.544766 0.401789
C28   C     C_R   0.813271 0.415993 0.536249 0.392781
C29   C     C_R   0.814303 0.581217 0.454834 0.402856
C30   C     C_R   0.186310 0.416380 0.462354 0.382385
C31   C     C_R   0.233111 0.499373 0.502827 -0.240007
C32   C     C_R   0.767047 0.499045 0.496195 -0.230134
C33   C     C_R   0.048412 0.499775 0.500975 0.018489
C34   C     C_R   0.951715 0.499768 0.500627 0.025337
Cu1   Cu    Cu3+1 0.500000 0.596430 0.500000 0.968293
Cu2   Cu    Cu3+1 0.500000 0.403570 0.500000 0.970284
H1    H     H_    0.384361 0.388118 0.920161 0.166446
H2    H     H_    0.612908 0.613839 0.077828 0.168561
H3    H     H_    0.059645 0.645675 0.573150 0.158880
H4    H     H_    0.940263 0.353036 0.566725 0.151722
H5    H     H_    0.941073 0.645380 0.429760 0.161576
H6    H     H_    0.059884 0.353184 0.430685 0.161411
H7    H     H_    0.402411 0.250557 0.640808 0.176956
H8    H     H_    0.402809 0.749341 0.358987 0.165460
H9    H     H_    0.597688 0.249510 0.359350 0.197749
H10   H     H_    0.597071 0.750742 0.641156 0.181563
N1    N     N_R   0.500000 0.258690 0.500000 -0.270351
N2    N     N_R   0.500000 0.741310 0.500000 -0.260128
O1    O     O_R   0.371460 0.581430 0.500010 -0.558571
O2    O     O_R   0.628540 0.418570 0.499990 -0.544450
O3    O     O_R   0.628540 0.581430 0.499990 -0.563135
O4    O     O_R   0.371460 0.418570 0.500010 -0.555260
O5    O     O_R   0.499980 0.581420 0.316850 -0.617672
O6    O     O_R   0.500020 0.418580 0.683150 -0.603836
O7    O     O_R   0.500020 0.581420 0.683150 -0.560118
O8    O     O_R   0.499980 0.418580 0.316850 -0.551605
O9    O     O_3   0.339208 0.555611 0.090643 -0.749561
H11   H     H_    0.350878 0.614675 0.141150 0.320298
O10   O     O_3   0.658268 0.444276 0.908514 -0.755827
H12   H     H_    0.697150 0.436670 0.982371 0.320458
O11   O     O_3   0.461024 0.681680 0.918389 -0.718311
H13   H     H_    0.456933 0.722764 0.994665 0.325080
O12   O     O_3   0.537231 0.318690 0.080732 -0.711607
H14   H     H_    0.540703 0.277718 0.004295 0.336118
O13   O     O_3   0.229272 0.664199 0.586911 -0.589399
C35   C     C_3   0.250070 0.654796 0.715811 0.107286
H15   H     H_    0.317580 0.684003 0.729946 0.210985
H16   H     H_    0.251508 0.578391 0.749684 0.113483
C36   C     C_3   0.185803 0.714654 0.795084 -0.386324
H17   H     H_    0.188154 0.791350 0.764471 0.242534
H18   H     H_    0.117727 0.687118 0.781418 0.213347
C37   C     C_3   0.208393 0.709603 0.934212 -0.821425
H19   H     H_    0.202275 0.633981 0.967687 0.283712
H20   H     H_    0.162003 0.755635 0.988591 0.251165
H21   H     H_    0.276511 0.736034 0.950933 0.279515
O14   O     O_3   0.768263 0.331042 0.562001 -0.582736
C38   C     C_3   0.780351 0.303979 0.688315 0.074685
H22   H     H_    0.780075 0.367780 0.752974 0.168786
H23   H     H_    0.843833 0.264676 0.698020 0.140041
C39   C     C_3   0.704920 0.236518 0.725742 -0.293160
H24   H     H_    0.641568 0.276641 0.721488 0.250408
H25   H     H_    0.701373 0.174891 0.658391 0.223016
C40   C     C_3   0.717324 0.196917 0.857797 -0.863022
H26   H     H_    0.778873 0.153743 0.862916 0.258589
H27   H     H_    0.660796 0.149430 0.881932 0.266703
H28   H     H_    0.720549 0.256916 0.927343 0.275247
O15   O     O_3   0.772028 0.663239 0.411776 -0.584240
C41   C     C_3   0.749232 0.650892 0.283818 0.094898
H29   H     H_    0.689583 0.695286 0.266387 0.175411
H30   H     H_    0.731139 0.574834 0.258842 0.099648
C42   C     C_3   0.823541 0.686926 0.198405 -0.388287
H31   H     H_    0.841459 0.762235 0.225265 0.243390
H32   H     H_    0.882507 0.640377 0.209756 0.214637
C43   C     C_3   0.796245 0.684762 0.060734 -0.872091
H33   H     H_    0.779141 0.609815 0.031394 0.257955
H34   H     H_    0.851710 0.710519 0.001675 0.264208
H35   H     H_    0.738753 0.732852 0.045389 0.265470
O16   O     O_3   0.229306 0.331031 0.433263 -0.584734
C44   C     C_3   0.241390 0.324987 0.302254 0.078916
H36   H     H_    0.277419 0.389666 0.266559 0.164709
H37   H     H_    0.176584 0.318851 0.253921 0.135888
C45   C     C_3   0.295945 0.234765 0.272822 -0.308678
H38   H     H_    0.360570 0.240199 0.321116 0.242550
H39   H     H_    0.261084 0.169625 0.308284 0.228699
C46   C     C_3   0.311807 0.223148 0.132385 -0.851085
H40   H     H_    0.248192 0.216214 0.081773 0.251289
H41   H     H_    0.351607 0.157120 0.114593 0.272892
H42   H     H_    0.348406 0.286578 0.096256 0.275507
O17   O     O_3   0.385789 0.065429 0.664848 -0.711209
H43   H     H_    0.389906 0.994216 0.658445 0.348344
O18   O     O_3   0.386352 0.934514 0.335084 -0.717539
H44   H     H_    0.390467 0.005745 0.341559 0.341381
O19   O     O_3   0.614424 0.064182 0.335592 -0.703106
H45   H     H_    0.610405 0.993023 0.342206 0.344351
O20   O     O_3   0.613547 0.936146 0.665461 -0.709529
H46   H     H_    0.609086 0.007304 0.659601 0.338297

loop_
_geom_bond_atom_site_label_1
_geom_bond_atom_site_label_2
_ccdc_geom_bond_type
C35   H16   S    
O15   C41   S    
C9    H9    S    
C16   C21   S    
Cu1   O5    S    
Cu1   Cu2   S    
C4    C8    A    
C38   H22   S    
C15   C19   S    
C46   H41   S    
C45   C46   S    
Cu2   O8    S    
C14   C21   S    
C19   C21   S    
C5    C11   A    
C29   C32   A    
C3    C7    A    
C37   H21   S    
C6    C12   A    
C30   C31   A    
C18   O12   S    
C35   C36   S    
O20   H46   S    
C1    C31   S    
C17   C20   S    
Cu2   N1    S    
C2    C32   S    
C18   C19   S    
C36   H18   S    
C19   H1    S    
C17   O11   S    
C15   C22   S    
O18   H44   S    
C23   C33   A    
Cu1   O1    S    
C7    H7    S    
C4    C12   A    
C2    O2    A    
Cu2   O4    S    
C25   C34   A    
C13   O8    A    
C14   O7    A    
O10   H12   S    
C15   O9    S    
C36   H17   S    
C39   C40   S    
Cu1   N2    S    
C13   O5    A    
C38   H23   S    
C25   C29   A    
C46   H42   S    
C27   C31   A    
C45   H38   S    
C8    H8    S    
C28   C32   A    
Cu2   O6    S    
O14   C38   S    
C37   H20   S    
C25   H5    S    
C42   H31   S    
C39   H24   S    
C43   H35   S    
Cu1   O7    S    
C24   C34   A    
C16   O10   S    
C7    N1    A    
C36   C37   S    
C43   H34   S    
C8    N2    A    
C5    C9    A    
C27   O13   S    
C42   H32   S    
C20   H2    S    
C26   C33   A    
C40   H26   S    
C41   C42   S    
C16   C20   S    
C40   H28   S    
C33   C34   S    
C43   H33   S    
C45   H39   S    
C39   H25   S    
C14   O6    A    
C4    O18   S    
C20   C22   S    
C9    N1    A    
C23   C27   A    
C10   N2    A    
C28   O14   S    
C10   H10   S    
Cu2   O2    S    
C26   H6    S    
O19   H45   S    
C38   C39   S    
C15   C17   S    
C5    O19   S    
C18   C22   S    
C24   C28   A    
C41   H30   S    
C37   H19   S    
C6    C10   A    
C11   C12   S    
C26   C30   A    
C46   H40   S    
C30   O16   S    
C44   H36   S    
C40   H27   S    
O17   H43   S    
C42   C43   S    
Cu1   O3    S    
O9    H11   S    
C3    O17   S    
C23   H3    S    
C24   H4    S    
C13   C22   S    
C35   H15   S    
O13   C35   S    
O11   H13   S    
C1    O4    A    
C17   C21   S    
C6    O20   S    
C29   O15   S    
C3    C11   A    
C2    O3    A    
O12   H14   S    
C44   C45   S    
C41   H29   S    
C16   C18   S    
O16   C44   S    
C1    O1    A    
C44   H37   S    
