data_mof_unit_7986.cif
_audit_creation_date              2012-10-26T21:06:53-0400
_audit_creation_method            fapswitch 2.2
_symmetry_space_group_name_H-M    P1
_symmetry_Int_Tables_number       1
_space_group_crystal_system       triclinic
_cell_length_a                    10.716061
_cell_length_b                    8.703336
_cell_length_c                    7.481207
_cell_angle_alpha                 102.672614
_cell_angle_beta                  95.157113
_cell_angle_gamma                 93.095554
_cell_volume                      676.03137229

loop_
_atom_site_label
_atom_site_type_symbol
_atom_type_description
_atom_site_fract_x
_atom_site_fract_y
_atom_site_fract_z
_atom_type_partial_charge
C1    C     C_R   0.496886 0.200001 0.454006 0.573474
C2    C     C_3   0.077561 0.409949 0.645697 -0.192679
C3    C     C_3   0.933687 0.410125 0.649493 0.170346
C4    C     C_3   0.081100 0.666607 0.542672 -0.255983
C5    C     C_3   0.055118 0.407355 0.307582 -0.243460
C6    C     C_3   0.121412 0.495398 0.499153 0.025466
C7    C     C_3   0.571655 0.045200 0.892965 -0.058501
C8    C     C_3   0.291795 0.290803 0.978255 -0.047330
C9    C     C_3   0.886593 0.200882 0.785187 -0.099535
C10   C     C_3   0.877412 0.492686 0.498154 0.077293
C11   C     C_3   0.936804 0.665078 0.538916 -0.285266
C12   C     C_3   0.911863 0.403797 0.307628 -0.220287
C13   C     C_2   0.488618 0.032249 0.432583 -0.116834
C14   C     C_2   0.529078 0.969459 0.572874 0.238806
C15   C     C_R   0.259780 0.497437 0.500093 0.529928
C16   C     C_R   0.509968 0.800403 0.546916 0.532585
C17   C     C_R   0.739638 0.495821 0.498673 0.573560
Cu1   Cu    Cu3+1 0.514070 0.517380 0.684380 1.016832
Cu2   Cu    Cu3+1 0.485930 0.482620 0.315620 0.937943
H1    H     H_    0.122625 0.471759 0.784007 0.082851
H2    H     H_    0.911917 0.732530 0.673815 0.103390
H3    H     H_    0.081915 0.468926 0.199693 0.114076
H4    H     H_    0.084335 0.284508 0.270911 0.101540
H5    H     H_    0.871011 0.279297 0.274604 0.151263
H6    H     H_    0.621920 0.951520 0.941949 0.110020
H7    H     H_    0.468067 0.023489 0.891377 0.133288
H8    H     H_    0.601281 0.157201 0.994859 0.177082
H9    H     H_    0.237939 0.396551 0.012086 0.117970
H10   H     H_    0.303296 0.231526 0.094349 0.139970
H11   H     H_    0.235720 0.205311 0.863682 0.065458
H12   H     H_    0.872634 0.460217 0.197053 0.107050
H13   H     H_    0.820014 0.261331 0.877815 0.152306
H14   H     H_    0.983492 0.219406 0.857276 0.056330
H15   H     H_    0.859830 0.072160 0.753249 0.168878
H16   H     H_    0.113175 0.730881 0.439782 0.121967
H17   H     H_    0.899049 0.725840 0.431545 0.125589
H18   H     H_    0.440795 0.960844 0.304467 0.053060
H19   H     H_    0.587697 0.635426 0.052058 0.185545
H20   H     H_    0.107067 0.287014 0.616111 0.135731
H21   H     H_    0.914285 0.482197 0.786209 0.101024
H22   H     H_    0.125684 0.731339 0.680737 0.114273
N1    N     N_2   0.464720 0.456420 0.038520 0.042863
N2    N     N_2   0.535280 0.543580 0.961480 -0.193006
O1    O     O_R   0.509140 0.286130 0.619770 -0.378346
O2    O     O_3   0.407514 0.328142 0.918737 -0.438428
O3    O     O_3   0.879095 0.253009 0.618741 -0.559794
O4    O     O_R   0.485380 0.256770 0.308360 -0.547550
O5    O     O_R   0.329570 0.514650 0.655700 -0.481292
O6    O     O_R   0.305810 0.485300 0.344290 -0.539949
O7    O     O_R   0.514620 0.743230 0.691640 -0.526545
O8    O     O_R   0.490860 0.713870 0.380230 -0.547914
O9    O     O_R   0.694190 0.514700 0.655710 -0.505855
O10   O     O_R   0.670430 0.485350 0.344300 -0.534053
O11   O     O_3   0.608803 0.060080 0.720858 -0.565152

loop_
_geom_bond_atom_site_label_1
_geom_bond_atom_site_label_2
_ccdc_geom_bond_type
C7    O11   S    
C16   O8    A    
Cu1   O1    S    
C17   O10   A    
C12   H5    S    
C3    O3    S    
C13   H18   S    
C5    H4    S    
C7    H6    S    
Cu2   N1    S    
C8    H11   S    
Cu2   O10   S    
C2    C3    S    
C4    H16   S    
Cu1   O9    S    
H19   N2    S    
C3    C10   S    
C13   C14   D    
C4    C11   S    
C9    H14   S    
C2    C6    S    
C7    H7    S    
C10   C12   S    
C15   O5    A    
C5    C6    S    
C8    H10   S    
C17   O9    A    
C11   H17   S    
C14   O11   S    
C16   O7    A    
C3    H21   S    
Cu2   O4    S    
C15   O6    A    
C12   H12   S    
C9    H15   S    
C8    H9    S    
C14   C16   S    
C1    C13   S    
C10   C11   S    
C10   C17   S    
C2    H1    S    
Cu2   O8    S    
C9    O3    S    
C7    H8    S    
Cu1   O7    S    
C5    C12   S    
C4    C6    S    
Cu1   Cu2   S    
N1    N2    D    
Cu2   O6    S    
C8    O2    S    
C1    O4    A    
C1    O1    A    
C9    H13   S    
C6    C15   S    
Cu1   N2    S    
C2    H20   S    
C11   H2    S    
C4    H22   S    
C5    H3    S    
N1    O2    S    
Cu1   O5    S    
