data_mof_unit_33270.cif
_audit_creation_date              2013-03-05T15:45:36-0500
_audit_creation_method            fapswitch 2.2
_symmetry_space_group_name_H-M    P1
_symmetry_Int_Tables_number       1
_space_group_crystal_system       triclinic
_cell_length_a                    27.720409
_cell_length_b                    10.732897
_cell_length_c                    10.075147
_cell_angle_alpha                 90.206151
_cell_angle_beta                  90.956697
_cell_angle_gamma                 90.084689
_cell_volume                      2997.11989624

loop_
_atom_site_label
_atom_site_type_symbol
_atom_site_description
_atom_site_fract_x
_atom_site_fract_y
_atom_site_fract_z
_atom_type_partial_charge
O1    O     O_R   0.499990 0.319060 0.613040 -0.630972
O2    O     O_R   0.500010 0.319100 0.386900 -0.614092
C1    C     C_R   0.500120 0.262951 0.499754 0.925560
O3    O     O_R   0.428750 0.500000 0.613050 -0.625148
O4    O     O_R   0.428760 0.500040 0.386920 -0.544169
C2    C     C_R   0.406148 0.502465 0.499067 0.924333
Zn1   Zn    Zn3+2 0.499990 0.499970 0.650990 1.027179
Zn2   Zn    Zn3+2 0.500010 0.500030 0.349010 1.039451
O5    O     O_R   0.499990 0.680900 0.613100 -0.542416
O6    O     O_R   0.500010 0.680940 0.386960 -0.562065
O7    O     O_R   0.571240 0.499960 0.613080 -0.587372
O8    O     O_R   0.571250 0.500000 0.386950 -0.634581
C3    C     C_R   0.497941 0.737325 0.499483 0.989918
C4    C     C_R   0.593868 0.499173 0.501121 0.889921
C5    C     C_R   0.177704 0.374778 0.496273 0.529565
O9    O     O_2   0.203091 0.268552 0.481455 -0.536359
N1    N     N_R   0.201225 0.486015 0.512933 -0.346534
C6    C     C_R   0.176503 0.595492 0.526316 0.560624
C7    C     C_R   0.275018 0.561181 0.410822 -0.152069
C8    C     C_R   0.325083 0.571466 0.407344 0.429773
C9    C     C_R   0.330625 0.429462 0.595598 -0.255640
C10   C     C_R   0.280655 0.424318 0.600924 -0.063168
C11   C     C_R   0.252744 0.489593 0.507980 0.205055
C12   C     C_R   0.101205 0.483194 0.501773 -0.060065
C13   C     C_R   0.127223 0.371126 0.491840 -0.011983
C14   C     C_R   0.102431 0.258504 0.475973 -0.115034
C15   C     C_R   0.126129 0.596459 0.517719 -0.088462
C16   C     C_R   0.353392 0.501750 0.498843 -0.185702
H1    H     H_    0.351619 0.376352 0.667233 0.185239
H2    H     H_    0.263612 0.369571 0.677142 0.173435
H3    H     H_    0.121661 0.170938 0.470335 0.191305
C17   C     C_R   0.646533 0.494309 0.504253 -0.086135
C18   C     C_R   0.974336 0.369267 0.462740 -0.025723
C19   C     C_R   0.974541 0.587872 0.532293 0.064710
C20   C     C_R   0.948980 0.477648 0.499135 0.085982
C21   C     C_R   0.948061 0.265643 0.415899 -0.250112
C22   C     C_R   0.897712 0.263873 0.411711 0.466420
C23   C     C_R   0.871806 0.368490 0.461468 -0.161086
C24   C     C_R   0.897996 0.475759 0.504759 -0.137680
C25   C     C_R   0.873432 0.581806 0.554102 0.000731
C26   C     C_R   0.822921 0.581368 0.551889 0.527169
N2    N     N_R   0.798392 0.477862 0.511322 -0.376219
C27   C     C_R   0.820978 0.372152 0.470190 0.549345
C28   C     C_R   0.722496 0.507263 0.390907 -0.091911
C29   C     C_R   0.672471 0.513502 0.387748 -0.192918
C30   C     C_R   0.671203 0.467958 0.623761 -0.130309
C31   C     C_R   0.721311 0.460725 0.627213 0.140939
C32   C     C_R   0.746960 0.481223 0.509992 0.254043
O10   O     O_2   0.793688 0.271849 0.440240 -0.447594
C33   C     C_R   0.025370 0.368108 0.474440 0.091276
C34   C     C_R   0.050301 0.482104 0.495718 0.045033
C35   C     C_R   0.024636 0.595181 0.510223 -0.080882
C36   C     C_R   0.052381 0.256786 0.467451 -0.177961
H4    H     H_    0.654183 0.533959 0.294525 0.176502
H5    H     H_    0.742425 0.523092 0.300955 0.159196
H6    H     H_    0.966537 0.186005 0.376330 0.228668
H7    H     H_    0.035673 0.166336 0.459710 0.206606
O11   O     O_2   0.200720 0.703222 0.547310 -0.520924
C37   C     C_R   0.100668 0.708685 0.515821 -0.187579
H8    H     H_    0.252814 0.611296 0.339535 0.205610
H9    H     H_    0.120037 0.796393 0.516143 0.207286
C38   C     C_R   0.950098 0.683776 0.597169 -0.160093
C39   C     C_R   0.900143 0.683624 0.605929 0.125608
O12   O     O_2   0.797989 0.683376 0.588752 -0.493685
C40   C     C_R   0.050535 0.709833 0.502995 0.379577
H10   H     H_    0.969726 0.759105 0.644432 0.197152
H11   H     H_    0.651663 0.451695 0.714351 0.182772
C41   C     C_2   0.487197 0.935664 0.385171 0.140481
C42   C     C_2   0.489883 0.868746 0.497973 -0.252476
H12   H     H_    0.484367 0.910985 0.594457 0.161831
C43   C     C_2   0.483456 0.069723 0.393704 -0.210509
C44   C     C_2   0.501407 0.131166 0.498639 -0.322570
H13   H     H_    0.468245 0.118816 0.308555 0.180468
H14   H     H_    0.518667 0.086358 0.583171 0.162104
C45   C     C_2   0.526850 0.572195 0.929723 0.435546
N3    N     N_2   0.500520 0.501330 0.852150 -0.256677
H15   H     H_    0.492566 0.414714 0.889239 0.125881
C46   C     C_2   0.534312 0.542149 0.072706 -0.151506
N4    N     N_2   0.500540 0.501360 0.147810 -0.088928
H16   H     H_    0.568732 0.565922 0.118935 0.190582
N5    N     N_3   0.877182 0.786904 0.669637 -0.345794
H17   H     H_    0.890727 0.793463 0.766929 0.194446
H18   H     H_    0.886771 0.868305 0.619677 0.256643
N6    N     N_3   0.745509 0.431354 0.749808 -0.437332
H19   H     H_    0.768562 0.505115 0.775130 0.219849
H20   H     H_    0.766551 0.351913 0.734946 0.214060
S1    S     S_3+6 0.024613 0.851672 0.445240 0.018866
O13   O     O_2   0.977631 0.828286 0.372783 -0.230212
O14   O     O_2   0.016250 0.938108 0.560333 -0.352019
O15   O     O_3   0.062563 0.920640 0.339364 -0.507515
H21   H     H_    0.085107 0.970029 0.395790 0.346807
N7    N     N_3   0.488560 0.879545 0.255522 -0.351538
H22   H     H_    0.517750 0.917594 0.205157 0.210899
H23   H     H_    0.457009 0.904190 0.203779 0.222157
S2    S     S_3+6 0.550783 0.716914 0.879038 0.040011
O16   O     O_2   0.583392 0.701462 0.762756 -0.276860
O17   O     O_2   0.509943 0.803066 0.843285 -0.316180
O18   O     O_3   0.582763 0.781006 0.005284 -0.579387
H24   H     H_    0.591533 0.865330 0.974038 0.387206
N8    N     N_3   0.452919 0.502222 0.100078 -0.286395
H25   H     H_    0.444746 0.417229 0.054272 0.165702
H26   H     H_    0.445459 0.580122 0.041008 0.226557
S3    S     S_3+6 0.870504 0.128905 0.338751 0.086742
O19   O     O_2   0.844222 0.057460 0.443499 -0.236484
O20   O     O_2   0.835614 0.167158 0.230528 -0.238868
O21   O     O_3   0.912330 0.035041 0.272178 -0.512053
H27   H     H_    0.894254 0.960365 0.241343 0.401914
S4    S     S_3+6 0.349332 0.678547 0.293172 0.033873
O22   O     O_2   0.393395 0.741201 0.350996 -0.320472
O23   O     O_2   0.362164 0.609701 0.168775 -0.300277
O24   O     O_3   0.307989 0.787909 0.255227 -0.527871
H28   H     H_    0.323738 0.842128 0.189361 0.389952

loop_
_geom_bond_atom_site_label_1
_geom_bond_atom_site_label_2
_geom_bond_distance
_ccdc_geom_bond_type
S1    O13   1.502684 D    
C17   C29   1.402396 A    
C20   C24   1.415499 A    
S2    O16   1.500518 D    
C12   C15   1.404776 A    
N5    H17   1.045912 S    
S2    O18   1.682618 S    
C45   S2    1.768465 S    
Zn1   O7    2.017923 S    
N1    C11   1.430307 S    
C25   C39   1.412699 A    
C39   N5    1.434052 S    
C21   C22   1.395713 A    
N6    H20   1.045510 S    
C23   C24   1.423429 A    
O7    C4    1.299809 A    
C46   H16   1.084428 S    
C5    C13   1.399821 A    
O21   H27   0.990855 S    
C5    O9    1.349835 S    
C19   C38   1.399224 A    
C18   C21   1.404466 A    
S4    O22   1.501509 D    
Zn1   O5    1.980417 S    
C19   C20   1.414194 A    
C26   N2    1.359699 A    
O5    C3    1.297402 A    
N7    H22   1.045574 S    
C18   C20   1.410522 A    
C6    O11   1.350373 S    
C2    C16   1.462396 S    
C7    C8    1.393087 A    
C41   C42   1.347670 D    
Zn2   N4    2.027521 S    
C40   S1    1.779921 S    
C12   C34   1.411392 A    
C14   H3    1.082947 S    
C9    C10   1.388150 A    
O3    Zn1   2.005182 S    
N7    H23   1.045521 S    
N5    H18   1.046073 S    
C33   C34   1.418173 A    
N3    H15   1.028160 S    
C37   H9    1.083006 S    
C33   C36   1.413136 A    
C38   H10   1.078759 S    
C34   C35   1.416039 A    
N4    N8    1.397440 S    
C12   C13   1.407502 A    
C44   H14   1.084247 S    
C24   C25   1.419786 A    
C22   S3    1.782749 S    
C36   H7    1.077009 S    
C46   N4    1.290540 D    
C27   O10   1.345321 S    
C8    C16   1.417061 A    
C18   C33   1.417717 A    
C9    H1    1.083701 S    
O1    C1    1.288643 A    
C7    C11   1.397842 A    
C45   N3    1.302732 D    
C22   C23   1.427638 A    
C21   H6    1.075868 S    
C31   C32   1.406484 A    
Zn2   O8    2.005184 S    
C38   C39   1.389060 A    
N8    H26   1.046890 S    
N1    C6    1.368499 A    
S3    O20   1.504009 D    
N2    C32   1.426055 S    
C31   N6    1.432036 S    
N6    H19   1.044899 S    
O3    C2    1.299345 A    
C25   C26   1.399986 A    
C9    C16   1.405379 A    
O8    C4    1.300912 A    
C29   H4    1.083177 S    
S1    O14   1.503629 D    
N2    C27   1.363210 A    
C14   C36   1.388709 A    
C28   C29   1.388265 A    
C43   H13   1.087769 S    
C5    N1    1.367944 A    
C30   C31   1.391153 A    
C10   H2    1.082895 S    
O24   H28   0.990611 S    
O1    Zn1   1.977627 S    
C17   C30   1.404620 A    
O2    Zn2   1.980418 S    
C6    C15   1.397700 A    
C4    C17   1.460705 S    
O6    C3    1.285342 A    
O4    Zn2   2.017920 S    
S2    O17   1.502761 D    
Zn1   N3    2.026524 S    
C7    H8    1.083054 S    
C19   C35   1.412137 A    
S4    O24   1.682242 S    
O2    C1    1.288733 A    
C13   C14   1.396941 A    
C23   C27   1.413789 A    
C15   C37   1.396992 A    
C37   C40   1.393612 A    
C28   H5    1.083021 S    
O15   H21   0.989808 S    
O4    C2    1.301432 A    
C3    C42   1.428531 S    
C41   C43   1.445081 S    
N8    H25   1.043712 S    
C41   N7    1.437539 S    
S4    O23   1.500774 D    
C1    C44   1.414937 S    
S3    O21   1.683342 S    
C42   H12   1.084375 S    
C45   C46   1.488504 S    
C30   H11   1.083638 S    
C43   C44   1.332923 D    
Zn2   O6    1.977626 S    
O18   H24   0.990575 S    
S1    O15   1.683254 S    
S3    O19   1.504140 D    
C10   C11   1.395864 A    
C26   O12   1.349878 S    
C35   C40   1.426450 A    
C28   C32   1.397623 A    
C8    S4    1.768882 S    
