data_mof_unit_49030.cif
_audit_creation_date              2012-12-10T18:09:36-0500
_audit_creation_method            fapswitch 2.2
_symmetry_space_group_name_H-M    P1
_symmetry_Int_Tables_number       1
_space_group_crystal_system       triclinic
_cell_length_a                    14.759747
_cell_length_b                    15.689545
_cell_length_c                    9.403776
_cell_angle_alpha                 89.895947
_cell_angle_beta                  90.000712
_cell_angle_gamma                 90.001565
_cell_volume                      2177.66374889

loop_
_atom_site_label
_atom_site_type_symbol
_atom_type_description
_atom_site_fract_x
_atom_site_fract_y
_atom_site_fract_z
_atom_type_partial_charge
C1    C     C_R   0.124269 0.384138 0.500211 0.766907
C2    C     C_R   0.880693 0.621217 0.499978 0.880454
C3    C     C_R   0.380726 0.878756 0.500020 0.880360
C4    C     C_R   0.380691 0.121216 0.499978 0.880462
C5    C     C_3   0.841041 0.237088 0.607312 -0.426229
C6    C     C_3   0.808552 0.264943 0.350894 -0.410276
C7    C     C_3   0.808340 0.734877 0.649208 -0.410124
C8    C     C_3   0.841126 0.762985 0.392958 -0.426288
C9    C     C_3   0.341030 0.737098 0.607351 -0.426210
C10   C     C_3   0.308584 0.764916 0.350909 -0.410296
C11   C     C_3   0.308322 0.234861 0.649218 -0.410114
C12   C     C_R   0.124292 0.615839 0.499791 0.766913
C13   C     C_3   0.341136 0.262993 0.392982 -0.426287
C14   C     C_3   0.272599 0.662390 0.603160 -0.379986
C15   C     C_3   0.234207 0.696487 0.348228 -0.371628
C16   C     C_3   0.233902 0.303239 0.651894 -0.371591
C17   C     C_3   0.272751 0.337737 0.397286 -0.380060
C18   C     C_3   0.772619 0.162373 0.603098 -0.380016
C19   C     C_3   0.734166 0.196525 0.348214 -0.371625
C20   C     C_3   0.733921 0.803255 0.651883 -0.371611
C21   C     C_3   0.772739 0.837727 0.397259 -0.380068
C22   C     C_3   0.715686 0.341675 0.540496 0.691964
C23   C     C_R   0.624270 0.884138 0.500211 0.766905
C24   C     C_3   0.715684 0.658339 0.459130 0.691978
C25   C     C_3   0.215687 0.841677 0.540443 0.691965
C26   C     C_3   0.215684 0.158341 0.459094 0.691980
C27   C     C_3   0.812636 0.308029 0.500129 -0.005161
C28   C     C_3   0.812597 0.691940 0.499866 -0.005212
C29   C     C_3   0.312642 0.808023 0.500128 -0.005163
C30   C     C_3   0.312594 0.191938 0.499865 -0.005226
C31   C     C_3   0.193872 0.683577 0.499486 0.062096
C32   C     C_3   0.193838 0.316393 0.500515 0.062064
C33   C     C_3   0.693867 0.183581 0.499486 0.062080
C34   C     C_R   0.624289 0.115842 0.499791 0.766923
C35   C     C_3   0.693839 0.816394 0.500515 0.062060
C36   C     C_3   0.148093 0.766644 0.548429 -0.408322
C37   C     C_3   0.148142 0.233406 0.450982 -0.408315
C38   C     C_3   0.648102 0.266637 0.548508 -0.408322
C39   C     C_3   0.648140 0.733403 0.451021 -0.408326
C40   C     C_3   0.955207 0.576352 0.083423 -0.183109
C41   C     C_3   0.954655 0.576054 0.916058 -0.186767
C42   C     C_3   0.954310 0.424133 0.083939 -0.186729
C43   C     C_3   0.954858 0.423834 0.916575 -0.183041
C44   C     C_3   0.455236 0.076368 0.083423 -0.183113
C45   C     C_3   0.094777 0.499565 0.083950 -0.189926
C46   C     C_3   0.454685 0.076070 0.916058 -0.186768
C47   C     C_3   0.454281 0.924149 0.083939 -0.186726
C48   C     C_3   0.454829 0.923850 0.916575 -0.183039
C49   C     C_3   0.094778 0.500071 0.916055 -0.189901
C50   C     C_3   0.594777 0.999534 0.083950 -0.189926
C51   C     C_3   0.594778 0.000040 0.916055 -0.189901
C52   C     C_R   0.880722 0.378760 0.500020 0.880366
Cl1   Cl    Cl    0.715329 0.395238 0.709332 -0.577325
Cl2   Cl    Cl    0.675154 0.414432 0.408138 -0.509430
Cl3   Cl    Cl    0.674941 0.585532 0.591243 -0.509393
Cl4   Cl    Cl    0.715499 0.604857 0.290223 -0.577415
Cl5   Cl    Cl    0.215305 0.895244 0.709275 -0.577306
Cl6   Cl    Cl    0.175190 0.914432 0.408056 -0.509434
Cl7   Cl    Cl    0.174925 0.085526 0.591181 -0.509389
Cl8   Cl    Cl    0.215518 0.104872 0.290175 -0.577426
Cu1   Cu    Cu3+1 0.000100 0.500000 0.642410 0.932672
Cu2   Cu    Cu3+1 0.000100 0.500000 0.357590 0.932747
Cu3   Cu    Cu3+1 0.500100 1.000000 0.642410 0.932666
Cu4   Cu    Cu3+1 0.500100 0.000000 0.357590 0.932758
H1    H     H_    0.844574 0.262879 0.717240 0.203679
H2    H     H_    0.875137 0.235172 0.325775 0.177507
H3    H     H_    0.874885 0.764655 0.674578 0.177494
H4    H     H_    0.910009 0.786999 0.419662 0.179525
H5    H     H_    0.409922 0.713015 0.580882 0.179562
H6    H     H_    0.375176 0.735149 0.325823 0.177507
H7    H     H_    0.374864 0.264638 0.674612 0.177492
H8    H     H_    0.410017 0.287003 0.419709 0.179528
H9    H     H_    0.307518 0.603129 0.568219 0.173856
H10   H     H_    0.263150 0.635541 0.308210 0.166828
H11   H     H_    0.262740 0.364126 0.692354 0.166810
H12   H     H_    0.794943 0.312121 0.265190 0.216480
H13   H     H_    0.307654 0.396907 0.432707 0.173938
H14   H     H_    0.807537 0.103129 0.568088 0.173876
H15   H     H_    0.763090 0.135587 0.308134 0.166829
H16   H     H_    0.762764 0.864145 0.692315 0.166816
H17   H     H_    0.807643 0.896900 0.432651 0.173940
H18   H     H_    0.246160 0.650775 0.712340 0.176468
H19   H     H_    0.180023 0.716564 0.272830 0.195955
H20   H     H_    0.179584 0.283000 0.726935 0.196067
H21   H     H_    0.246507 0.349589 0.288058 0.176337
H22   H     H_    0.746207 0.150723 0.712281 0.176457
H23   H     H_    0.794664 0.687610 0.734749 0.216598
H24   H     H_    0.679965 0.216626 0.272867 0.195982
H25   H     H_    0.679614 0.783026 0.726943 0.196065
H26   H     H_    0.746483 0.849565 0.288039 0.176344
H27   H     H_    0.122477 0.758014 0.658942 0.184310
H28   H     H_    0.086954 0.779118 0.482095 0.165648
H29   H     H_    0.086826 0.220860 0.516873 0.165586
H30   H     H_    0.122816 0.242198 0.340340 0.184372
H31   H     H_    0.622531 0.257985 0.659040 0.184319
H32   H     H_    0.586937 0.279119 0.482243 0.165638
H33   H     H_    0.586837 0.720863 0.516935 0.165592
H34   H     H_    0.844730 0.737308 0.282961 0.203652
H35   H     H_    0.622798 0.742183 0.340391 0.184369
H36   H     H_    0.988790 0.635304 0.122619 0.141573
H37   H     H_    0.987283 0.635220 0.875449 0.143270
H38   H     H_    0.986680 0.364839 0.124535 0.143177
H39   H     H_    0.988178 0.364749 0.877389 0.141547
H40   H     H_    0.488841 0.135309 0.122620 0.141571
H41   H     H_    0.487335 0.135225 0.875448 0.143275
H42   H     H_    0.486629 0.864844 0.124533 0.143169
H43   H     H_    0.488126 0.864753 0.877390 0.141547
H44   H     H_    0.883927 0.578748 0.121075 0.203676
H45   H     H_    0.344558 0.762906 0.717269 0.203682
H46   H     H_    0.883058 0.577468 0.879349 0.179818
H47   H     H_    0.882710 0.422997 0.120669 0.180225
H48   H     H_    0.883571 0.421722 0.878904 0.203786
H49   H     H_    0.383957 0.078787 0.121073 0.203673
H50   H     H_    0.383088 0.077507 0.879351 0.179782
H51   H     H_    0.382681 0.923036 0.120671 0.180265
H52   H     H_    0.383540 0.921762 0.878903 0.203788
H53   H     H_    0.133048 0.555874 0.122975 0.140590
H54   H     H_    0.132417 0.557004 0.877722 0.141434
H55   H     H_    0.132158 0.442478 0.122259 0.141549
H56   H     H_    0.294980 0.812082 0.265183 0.216464
H57   H     H_    0.132793 0.443606 0.877059 0.140666
H58   H     H_    0.633070 0.055829 0.122977 0.140584
H59   H     H_    0.632439 0.056960 0.877720 0.141430
H60   H     H_    0.632136 0.942434 0.122257 0.141556
H61   H     H_    0.632772 0.943562 0.877061 0.140673
H62   H     H_    0.294637 0.187586 0.734744 0.216609
H63   H     H_    0.344750 0.237325 0.282980 0.203649
H64   H     H_    0.909933 0.213017 0.580818 0.179560
N1    N     N_3   0.001260 0.500000 0.143650 -0.125962
N2    N     N_3   0.001260 0.500000 0.856350 -0.125971
N3    N     N_3   0.501260 0.000000 0.143650 -0.125961
N4    N     N_3   0.501260 0.000000 0.856350 -0.125972
O1    O     O_R   0.091250 0.408820 0.620260 -0.603739
O2    O     O_R   0.908940 0.408800 0.379740 -0.580139
O3    O     O_R   0.908940 0.591200 0.620260 -0.580226
O4    O     O_R   0.908940 0.591200 0.379740 -0.563394
O5    O     O_R   0.408940 0.908800 0.620260 -0.563530
O6    O     O_R   0.408940 0.908800 0.379740 -0.580122
O7    O     O_R   0.408940 0.091200 0.620260 -0.580235
O8    O     O_R   0.408940 0.091200 0.379740 -0.563380
O9    O     O_R   0.091250 0.408820 0.379740 -0.603652
O10   O     O_R   0.091250 0.591180 0.620260 -0.603602
O11   O     O_R   0.091250 0.591180 0.379740 -0.603704
O12   O     O_R   0.591250 0.908820 0.620260 -0.603738
O13   O     O_R   0.591250 0.908820 0.379740 -0.603654
O14   O     O_R   0.591250 0.091180 0.620260 -0.603602
O15   O     O_R   0.591250 0.091180 0.379740 -0.603706
O16   O     O_R   0.908940 0.408800 0.620260 -0.563518

loop_
_geom_bond_atom_site_label_1
_geom_bond_atom_site_label_2
_ccdc_geom_bond_type
C40   N1    S    
C45   N1    S    
Cu4   O13   S    
C16   H11   S    
C52   O2    A    
C50   H58   S    
Cu2   O11   S    
C42   H47   S    
C44   H40   S    
Cu1   O1    S    
C22   Cl2   S    
Cu4   O6    S    
C24   Cl3   S    
C47   H51   S    
C6    C19   S    
C23   O13   A    
C18   H22   S    
C17   H21   S    
Cu1   O16   S    
C9    H5    S    
C10   C15   S    
C46   N4    S    
C41   N2    S    
C11   H7    S    
C39   H33   S    
C48   H43   S    
C22   C38   S    
C46   H41   S    
C16   H20   S    
C24   C39   S    
C51   H59   S    
C11   C16   S    
Cu2   O4    S    
C3    C29   S    
C8    H34   S    
C20   H25   S    
C5    C27   S    
C20   C35   S    
C7    H23   S    
C6    C27   S    
C11   C30   S    
C12   O10   A    
C38   H31   S    
Cu3   O12   S    
C3    O5    A    
C26   Cl7   S    
C14   C31   S    
Cu3   O14   S    
C9    C29   S    
C48   H52   S    
C36   H28   S    
C52   O16   A    
C9    H45   S    
Cu3   O5    S    
Cu2   N1    S    
C25   Cl5   S    
C1    O1    A    
C42   H38   S    
C44   C46   S    
C8    C21   S    
C22   Cl1   S    
C21   H26   S    
C25   C29   S    
C33   C34   S    
C20   H16   S    
C51   H61   S    
C14   H9    S    
C13   C30   S    
C11   H62   S    
C50   H60   S    
C5    H1    S    
C19   H24   S    
C19   C33   S    
C46   H50   S    
C15   H19   S    
C5    C18   S    
Cu3   N4    S    
C15   C31   S    
C1    C32   S    
C2    O4    A    
C7    C28   S    
C2    O3    A    
C47   N3    S    
C44   N3    S    
C35   C39   S    
C9    C14   S    
C4    O8    A    
C34   O15   A    
Cu1   O10   S    
C39   H35   S    
C47   C48   S    
Cu4   N3    S    
C45   C49   S    
C18   H14   S    
C47   H42   S    
C49   H57   S    
C17   H13   S    
C50   C51   S    
C37   H29   S    
C3    O6    A    
C32   C37   S    
C19   H15   S    
Cu1   N2    S    
C10   H6    S    
C36   H27   S    
C40   C41   S    
C21   H17   S    
C44   H49   S    
C8    H4    S    
C23   C35   S    
C41   H46   S    
C12   C31   S    
C8    C28   S    
C23   O12   A    
C16   C32   S    
C43   H48   S    
C14   H18   S    
Cu2   O9    S    
C27   C52   S    
Cu1   O3    S    
C25   Cl6   S    
Cu4   O8    S    
C45   H53   S    
Cu3   O7    S    
C43   N2    S    
C24   C28   S    
C40   H36   S    
C51   N4    S    
C26   C37   S    
C6    H12   S    
C21   C35   S    
C13   H8    S    
C24   Cl4   S    
C49   N2    S    
C33   C38   S    
C12   O11   A    
C13   C17   S    
C22   C27   S    
Cu2   O2    S    
Cu4   O15   S    
C4    O7    A    
C34   O14   A    
C10   C29   S    
C45   H55   S    
C5    H64   S    
C41   H37   S    
C37   H30   S    
C42   N1    S    
Cu1   Cu2   S    
C18   C33   S    
C43   H39   S    
C1    O9    A    
C50   N3    S    
C25   C36   S    
C7    H3    S    
Cu3   Cu4   S    
C13   H63   S    
C49   H54   S    
C40   H44   S    
C6    H2    S    
C15   H10   S    
C7    C20   S    
C42   C43   S    
C38   H32   S    
C17   C32   S    
C31   C36   S    
C48   N4    S    
C2    C28   S    
C26   Cl8   S    
C10   H56   S    
C4    C30   S    
C26   C30   S    
