data_mof_unit_46395.cif
_audit_creation_date              2012-12-10T20:07:04-0500
_audit_creation_method            fapswitch 2.2
_symmetry_space_group_name_H-M    P1
_symmetry_Int_Tables_number       1
_space_group_crystal_system       triclinic
_cell_length_a                    19.335654
_cell_length_b                    18.405951
_cell_length_c                    10.624679
_cell_angle_alpha                 90.003675
_cell_angle_beta                  89.971286
_cell_angle_gamma                 89.998595
_cell_volume                      3781.22821352

loop_
_atom_site_label
_atom_site_type_symbol
_atom_type_description
_atom_site_fract_x
_atom_site_fract_y
_atom_site_fract_z
_atom_type_partial_charge
C1    C     C_R   0.365606 0.500001 0.499851 0.860983
C2    C     C_R   0.634394 0.499999 0.500142 0.860984
C3    C     C_R   0.709485 0.499994 0.499991 -0.032035
C4    C     C_R   0.290515 0.500003 0.499949 -0.032031
C5    C     C_R   0.964228 0.544573 0.415438 -0.187765
C6    C     C_R   0.035772 0.455404 0.584332 -0.187760
C7    C     C_R   0.035857 0.544589 0.415523 -0.186779
C8    C     C_R   0.964144 0.455389 0.584247 -0.186775
C9    C     C_R   0.071742 0.500005 0.499972 0.107812
C10   C     C_R   0.928258 0.499973 0.499800 0.107814
C11   C     C_R   0.534092 0.725913 0.592509 0.008236
C12   C     C_R   0.465907 0.274087 0.407491 0.008234
C13   C     C_R   0.465908 0.725908 0.407491 0.008200
C14   C     C_R   0.534092 0.274092 0.592509 0.008200
C15   C     C_R   0.534669 0.802011 0.594413 -0.287865
C16   C     C_R   0.465331 0.197989 0.405587 -0.287865
C17   C     C_R   0.465332 0.802005 0.405587 -0.287926
C18   C     C_R   0.534668 0.197994 0.594413 -0.287926
C19   C     C_R   0.500000 0.841356 0.500000 0.124161
C20   C     C_R   0.500000 0.158644 0.500000 0.124161
C21   C     C_R   0.440782 0.961914 0.463745 -0.187687
C22   C     C_R   0.559218 0.038086 0.536254 -0.187687
C23   C     C_R   0.559218 0.961914 0.536254 -0.187744
C24   C     C_R   0.440782 0.038086 0.463745 -0.187744
C25   C     C_R   0.500000 0.077321 0.500000 0.123837
C26   C     C_R   0.500000 0.922679 0.500000 0.123838
C27   C     C_R   0.510744 0.499997 0.260261 0.899219
C28   C     C_R   0.489256 0.500003 0.739739 0.899220
C29   C     C_R   0.538456 0.633677 0.110314 -0.132983
C30   C     C_R   0.461546 0.366323 0.889686 -0.132984
C31   C     C_R   0.461633 0.633709 0.889724 -0.132901
C32   C     C_R   0.538369 0.366291 0.110277 -0.132899
C33   C     C_R   0.520423 0.699378 0.053919 -0.168387
C34   C     C_R   0.479579 0.300621 0.946082 -0.168388
C35   C     C_R   0.479710 0.699395 0.946139 -0.168404
C36   C     C_R   0.520292 0.300605 0.053862 -0.168404
C37   C     C_R   0.484517 0.566718 0.940632 0.089435
C38   C     C_R   0.515485 0.433282 0.059368 0.089435
C39   C     C_R   0.515530 0.566705 0.059384 0.089431
C40   C     C_R   0.484472 0.433295 0.940616 0.089430
C41   C     C_R   0.478323 0.500009 0.875653 -0.267105
C42   C     C_R   0.521679 0.499991 0.124347 -0.267102
C43   C     C_R   0.745607 0.433943 0.500000 -0.196223
C44   C     C_R   0.254388 0.566051 0.499913 -0.196224
C45   C     C_R   0.254390 0.433957 0.500070 -0.196339
C46   C     C_R   0.745615 0.566038 0.499820 -0.196344
C47   C     C_R   0.817232 0.433977 0.499929 -0.180438
C48   C     C_R   0.182763 0.566012 0.499912 -0.180426
C49   C     C_R   0.182765 0.433999 0.500155 -0.180256
C50   C     C_R   0.817241 0.565991 0.499664 -0.180243
C51   C     C_R   0.853155 0.499980 0.499764 0.119334
C52   C     C_R   0.146845 0.500006 0.500033 0.119331
H1    H     H_    0.570958 0.635686 0.193141 0.151477
H2    H     H_    0.429044 0.364313 0.806860 0.151478
H3    H     H_    0.429129 0.635747 0.806905 0.151640
H4    H     H_    0.570873 0.364253 0.193096 0.151640
H5    H     H_    0.718669 0.382343 0.499846 0.154800
H6    H     H_    0.281323 0.617652 0.500100 0.154796
H7    H     H_    0.281325 0.382354 0.499825 0.154815
H8    H     H_    0.718683 0.617643 0.500081 0.154810
H9    H     H_    0.844614 0.382625 0.498727 0.129884
H10   H     H_    0.155376 0.617361 0.501098 0.129885
H11   H     H_    0.155380 0.382651 0.498973 0.129954
H12   H     H_    0.844630 0.617337 0.500815 0.129950
H13   H     H_    0.936891 0.578580 0.348744 0.132415
H14   H     H_    0.063109 0.421399 0.651030 0.132419
H15   H     H_    0.063263 0.578603 0.348885 0.132725
H16   H     H_    0.936739 0.421377 0.650890 0.132726
H17   H     H_    0.560789 0.695887 0.665278 0.138947
H18   H     H_    0.439210 0.304113 0.334722 0.138946
H19   H     H_    0.439211 0.695878 0.334722 0.138834
H20   H     H_    0.560789 0.304122 0.665278 0.138834
H21   H     H_    0.561263 0.829707 0.670124 0.133714
H22   H     H_    0.438737 0.170293 0.329876 0.133714
H23   H     H_    0.438738 0.829698 0.329875 0.133652
H24   H     H_    0.561263 0.170302 0.670124 0.133653
H25   H     H_    0.393847 0.933727 0.437301 0.129310
H26   H     H_    0.606153 0.066273 0.562698 0.129310
H27   H     H_    0.606153 0.933727 0.562698 0.129337
H28   H     H_    0.393847 0.066273 0.437301 0.129337
N1    N     N_R   0.500000 0.689440 0.500000 -0.096839
N2    N     N_R   0.500000 0.310560 0.500000 -0.096839
O1    O     O_R   0.398180 0.560840 0.499970 -0.627544
O2    O     O_R   0.601820 0.439160 0.500030 -0.627546
O3    O     O_R   0.601820 0.560840 0.500030 -0.627548
O4    O     O_R   0.398180 0.439160 0.499970 -0.627552
O5    O     O_R   0.499990 0.560810 0.316770 -0.623294
O6    O     O_R   0.500010 0.439190 0.683230 -0.623293
O7    O     O_R   0.500010 0.560810 0.683230 -0.623256
O8    O     O_R   0.499990 0.439190 0.316770 -0.623258
Zn1   Zn    Zn3+2 0.500000 0.581210 0.500000 0.931318
Zn2   Zn    Zn3+2 0.500000 0.418790 0.500000 0.931316
H29   H     H_    0.536685 0.249722 0.095331 0.137936
H30   H     H_    0.463318 0.750278 0.904670 0.137937
H31   H     H_    0.463156 0.249752 0.904595 0.137900
H32   H     H_    0.536847 0.750248 0.095406 0.137899

loop_
_geom_bond_atom_site_label_1
_geom_bond_atom_site_label_2
_ccdc_geom_bond_type
C21   C26   A    
C49   H11   S    
O5    Zn1   S    
C50   H12   S    
C14   C18   A    
C2    O2    A    
C6    C9    A    
O3    Zn1   S    
C11   N1    A    
C15   C19   A    
C30   H2    S    
C3    C43   A    
C6    H14   S    
C2    O3    A    
C16   H22   S    
C32   C36   A    
C38   C42   A    
C20   C25   S    
C13   N1    A    
C28   C41   S    
N2    Zn2   S    
C27   O8    A    
C23   C26   A    
C19   C26   S    
C17   C19   A    
O8    Zn2   S    
C36   H29   S    
C24   H28   S    
C12   C16   A    
C29   C33   A    
C44   H6    S    
C22   C25   A    
C28   O6    A    
C28   O7    A    
C32   C38   A    
O7    Zn1   S    
C34   C36   A    
C9    C52   S    
C13   H19   S    
C10   C51   S    
C39   C42   A    
C4    C45   A    
C30   C34   A    
C12   N2    A    
O6    Zn2   S    
C34   H31   S    
C22   H26   S    
C5    H13   S    
C5    C7    A    
C6    C8    A    
C4    C44   A    
C31   C37   A    
C48   H10   S    
C45   C49   A    
C16   C20   A    
C49   C52   A    
C29   C39   A    
C50   C51   A    
C30   C40   A    
C24   C25   A    
C27   O5    A    
C40   C41   A    
C15   H21   S    
C8    H16   S    
C11   C15   A    
C31   C35   A    
C14   N2    A    
C33   H32   S    
C35   H30   S    
C1    O4    A    
C7    C9    A    
C12   H18   S    
C45   H7    S    
C18   H24   S    
C46   H8    S    
C14   H20   S    
C47   H9    S    
C47   C51   A    
C11   H17   S    
C1    O1    A    
O1    Zn1   S    
C46   C50   A    
C3    C46   A    
C13   C17   A    
C1    C4    S    
C31   H3    S    
C2    C3    S    
C5    C10   A    
C37   C39   A    
O4    Zn2   S    
C38   C40   A    
C27   C42   S    
C29   H1    S    
C33   C35   A    
C18   C20   A    
C37   C41   A    
C43   H5    S    
C7    H15   S    
N1    Zn1   S    
C48   C52   A    
C8    C10   A    
C21   C24   A    
C21   H25   S    
C17   H23   S    
C22   C23   A    
O2    Zn2   S    
C23   H27   S    
C43   C47   A    
C32   H4    S    
C44   C48   A    
