data_mof_unit_36832.cif
_audit_creation_date              2013-03-05T16:12:08-0500
_audit_creation_method            fapswitch 2.2
_symmetry_space_group_name_H-M    P1
_symmetry_Int_Tables_number       1
_space_group_crystal_system       triclinic
_cell_length_a                    10.717336
_cell_length_b                    9.455671
_cell_length_c                    27.801184
_cell_angle_alpha                 89.914586
_cell_angle_beta                  91.228865
_cell_angle_gamma                 90.022422
_cell_volume                      2816.70966755

loop_
_atom_site_label
_atom_site_type_symbol
_atom_site_description
_atom_site_fract_x
_atom_site_fract_y
_atom_site_fract_z
_atom_type_partial_charge
O1    O     O_R   0.317570 0.620260 0.500030 -0.550652
O2    O     O_R   0.317570 0.379740 0.500030 -0.550533
C1    C     C_R   0.260046 0.499971 0.502558 0.787306
O3    O     O_R   0.499900 0.620250 0.430280 -0.568208
O4    O     O_R   0.499900 0.379750 0.430280 -0.567422
C2    C     C_R   0.504046 0.500142 0.407546 0.850275
Cu1   Cu    Cu3+1 0.499860 0.642410 0.500020 0.950042
Cu2   Cu    Cu3+1 0.499860 0.357590 0.500020 0.950098
O5    O     O_R   0.682190 0.620260 0.500010 -0.603634
O6    O     O_R   0.682190 0.379740 0.500010 -0.603794
O7    O     O_R   0.499860 0.620280 0.569750 -0.598516
O8    O     O_R   0.499860 0.379720 0.569750 -0.598760
C3    C     C_R   0.739861 0.500007 0.502032 0.750589
C4    C     C_R   0.500143 0.499885 0.592519 0.776427
C5    C     C_R   0.419077 0.523651 0.178105 0.559942
O9    O     O_2   0.312644 0.539705 0.202636 -0.479919
N1    N     N_R   0.529590 0.505023 0.202524 -0.479543
C6    C     C_R   0.639401 0.488432 0.179098 0.578470
C7    C     C_R   0.527900 0.630733 0.279465 -0.086043
C8    C     C_R   0.521665 0.629652 0.329479 -0.160890
C9    C     C_R   0.521823 0.373238 0.328949 -0.163245
C10   C     C_R   0.528332 0.374547 0.278882 -0.084950
C11   C     C_R   0.529757 0.503300 0.254041 0.333358
C12   C     C_R   0.527293 0.509603 0.102369 -0.082692
C13   C     C_R   0.415533 0.524781 0.127742 -0.022439
C14   C     C_R   0.302224 0.539491 0.102522 -0.091532
C15   C     C_R   0.641914 0.495443 0.128259 -0.141532
C16   C     C_R   0.515025 0.500879 0.354704 -0.058505
H1    H     H_    0.522356 0.272389 0.347327 0.183471
H2    H     H_    0.531095 0.275664 0.259327 0.150436
H3    H     H_    0.215094 0.549459 0.121295 0.230542
C17   C     C_R   0.501259 0.499533 0.645512 -0.034604
C18   C     C_R   0.406256 0.533177 0.974701 0.044204
C19   C     C_R   0.630876 0.476032 0.974805 0.067325
C20   C     C_R   0.516994 0.503481 0.949476 0.072232
C21   C     C_R   0.297036 0.568053 0.947684 -0.201847
C22   C     C_R   0.295654 0.568181 0.897712 -0.142175
C23   C     C_R   0.402932 0.533945 0.872615 -0.019925
C24   C     C_R   0.513874 0.501383 0.898332 -0.047813
C25   C     C_R   0.621718 0.466851 0.872788 -0.020588
C26   C     C_R   0.616746 0.466016 0.822275 0.535525
N2    N     N_R   0.508089 0.498856 0.798079 -0.468941
C27   C     C_R   0.402090 0.532315 0.822112 0.534370
C28   C     C_R   0.513170 0.371346 0.721261 -0.103423
C29   C     C_R   0.510926 0.371446 0.671090 -0.227344
C30   C     C_R   0.493425 0.627293 0.671077 -0.226766
C31   C     C_R   0.495304 0.626829 0.721241 -0.104197
C32   C     C_R   0.505406 0.498966 0.746484 0.359880
O10   O     O_2   0.296042 0.562970 0.797187 -0.537158
C33   C     C_R   0.408371 0.527963 0.025819 0.047171
C34   C     C_R   0.523803 0.508238 0.051171 0.074337
C35   C     C_R   0.635504 0.486781 0.025815 -0.014531
C36   C     C_R   0.298403 0.540776 0.052656 -0.189888
H4    H     H_    0.517328 0.271387 0.652415 0.145188
H5    H     H_    0.520755 0.272123 0.740600 0.139088
H6    H     H_    0.209575 0.595590 0.878787 0.188946
H7    H     H_    0.211071 0.599084 0.963993 0.143536
H8    H     H_    0.206718 0.548635 0.036278 0.154562
O11   O     O_2   0.744557 0.462621 0.205116 -0.451501
C37   C     C_R   0.753926 0.486967 0.102440 0.367957
H9    H     H_    0.522303 0.729727 0.348232 0.183139
H10   H     H_    0.530550 0.730578 0.260372 0.149630
C38   C     C_R   0.736373 0.437178 0.948037 -0.200901
C39   C     C_R   0.731758 0.433307 0.898077 -0.146112
O12   O     O_2   0.719903 0.433994 0.797506 -0.536847
C40   C     C_R   0.749214 0.480670 0.052296 -0.260428
H11   H     H_    0.823698 0.405492 0.964666 0.148372
H12   H     H_    0.485846 0.727576 0.652402 0.144210
H13   H     H_    0.815333 0.403567 0.879319 0.189748
H14   H     H_    0.489509 0.725870 0.740570 0.138761
H15   H     H_    0.837945 0.478579 0.034813 0.166888
C41   C     C_3   0.072733 0.631915 0.530911 -0.376789
C42   C     C_3   0.072617 0.367431 0.530710 -0.376761
H16   H     H_    0.105476 0.730809 0.513971 0.228546
H17   H     H_    0.105238 0.268907 0.513610 0.228744
H18   H     H_    0.108710 0.631885 0.568773 0.153122
H19   H     H_    0.108615 0.366611 0.568568 0.153037
C43   C     C_3   0.929091 0.632665 0.530206 -0.373472
C44   C     C_3   0.928986 0.366760 0.530014 -0.373480
H20   H     H_    0.894940 0.634632 0.567732 0.159789
H21   H     H_    0.894852 0.364011 0.567541 0.159936
H22   H     H_    0.895494 0.730941 0.512034 0.177888
H23   H     H_    0.895294 0.268870 0.511707 0.177905
H24   H     H_    0.103060 0.595639 0.432184 0.213732
H25   H     H_    0.102968 0.405825 0.432044 0.213166
H26   H     H_    0.890070 0.595683 0.431754 0.174931
H27   H     H_    0.889976 0.405848 0.431617 0.175018
C45   C     C_3   0.069229 0.500528 0.451640 -0.315306
C46   C     C_3   0.121853 0.499954 0.503952 0.120674
C47   C     C_3   0.877834 0.500004 0.503453 0.150573
C48   C     C_3   0.925535 0.500553 0.451332 -0.389410
C49   C     C_3   0.627448 0.083776 0.510562 -0.304969
C50   C     C_3   0.627470 0.916236 0.510512 -0.304709
H28   H     H_    0.665195 0.123047 0.545683 0.174025
H29   H     H_    0.665370 0.876541 0.545589 0.174680
H30   H     H_    0.692977 0.121456 0.482825 0.158780
H31   H     H_    0.692888 0.878970 0.482717 0.158424
H32   H     H_    0.456524 0.119565 0.575321 0.138526
H33   H     H_    0.456972 0.880120 0.575350 0.137951
C51   C     C_3   0.421166 0.083129 0.539547 -0.200666
C52   C     C_3   0.421299 0.916509 0.539588 -0.200387
C53   C     C_3   0.458085 0.083894 0.453341 0.294219
C54   C     C_3   0.457941 0.916410 0.453362 0.294013
N3    N     N_3   0.500250 0.143650 0.501060 -0.182089
N4    N     N_3   0.500250 0.856350 0.501060 -0.181940
H34   H     H_    0.529206 0.115185 0.426581 0.038578
H35   H     H_    0.528854 0.885163 0.426557 0.037805
H36   H     H_    0.324619 0.123910 0.537217 0.190765
H37   H     H_    0.324821 0.875406 0.537394 0.190456
N5    N     N_R   0.874414 0.492269 0.125916 0.161303
O13   O     O_R   0.960138 0.401944 0.114232 -0.350113
O14   O     O_R   0.906574 0.604046 0.150468 -0.291937
N6    N     N_R   0.339152 0.144373 0.435264 0.177762
O15   O     O_R   0.237429 0.135826 0.459622 -0.364434
O16   O     O_R   0.329848 0.185504 0.390661 -0.355037
N7    N     N_R   0.338796 0.856172 0.435423 0.177544
O17   O     O_R   0.237230 0.864824 0.459862 -0.364886
O18   O     O_R   0.329153 0.815167 0.390858 -0.353735

loop_
_geom_bond_atom_site_label_1
_geom_bond_atom_site_label_2
_geom_bond_distance
_ccdc_geom_bond_type
H27   C48   1.113457 S    
C3    C47   1.478383 S    
C17   C29   1.406290 A    
C20   C24   1.421713 A    
C7    C8    1.393517 A    
C12   C15   1.416672 A    
C49   H30   1.112203 S    
C41   H18   1.113192 S    
Cu1   Cu2   2.693163 S    
C43   C47   1.553440 S    
Cu1   O7    1.949527 S    
N1    C11   1.432262 S    
C21   C22   1.389046 A    
C15   C37   1.414209 A    
C23   C24   1.408127 A    
O7    C4    1.301722 A    
C43   H20   1.113187 S    
C5    C13   1.399882 A    
C7    H10   1.083064 S    
C52   H37   1.104971 S    
C5    O9    1.350230 S    
C51   N3    1.492451 S    
C18   C21   1.415967 A    
N7    O17   1.298132 A    
Cu1   O5    1.965371 S    
C19   C20   1.419761 A    
C26   N2    1.367880 A    
C8    H9    1.081017 S    
O5    C3    1.294986 A    
N5    O13   1.301253 A    
C49   C50   1.584210 S    
C44   C47   1.553583 S    
C41   C43   1.539177 S    
C50   N4    1.494390 S    
C22   H6    1.083530 S    
C2    C16   1.476298 S    
C31   C32   1.400107 A    
Cu1   N4    2.023197 S    
C12   C34   1.423137 A    
C37   C40   1.395259 A    
C14   H3    1.083678 S    
C50   H29   1.113053 S    
C9    C10   1.395207 A    
C42   H17   1.106719 S    
O3    Cu1   1.950464 S    
C33   C34   1.422801 A    
C52   N4    1.492630 S    
C38   H11   1.077330 S    
C51   H36   1.104955 S    
C33   C36   1.413665 A    
C34   C35   1.417049 A    
C12   C13   1.410496 A    
O3    C2    1.301783 A    
C21   H7    1.076578 S    
C24   C25   1.408181 A    
C44   H21   1.113198 S    
C27   O10   1.349744 S    
C26   O12   1.349708 S    
C8    C16   1.406782 A    
C18   C33   1.421629 A    
C9    H1    1.081137 S    
O1    C1    1.296069 A    
C7    C11   1.398232 A    
C31   H14   1.082880 S    
C30   H12   1.082633 S    
C22   C23   1.396015 A    
C43   H22   1.113318 S    
C40   H15   1.077416 S    
C45   C48   1.539859 S    
Cu2   O8    1.950148 S    
C49   H28   1.113068 S    
N1    C6    1.366436 A    
C42   C44   1.539057 S    
C54   N4    1.502900 S    
N2    C32   1.434061 S    
C39   H13   1.083498 S    
C53   N3    1.503241 S    
Cu2   N3    2.023114 S    
C41   H16   1.106748 S    
C25   C26   1.404223 A    
H33   C52   1.111681 S    
C9    C16   1.406959 A    
O8    C4    1.301473 A    
C29   H4    1.082795 S    
H32   C51   1.111839 S    
N2    C27   1.367682 A    
C14   C36   1.386115 A    
C50   H31   1.112243 S    
C35   C40   1.411369 A    
C28   C29   1.394495 A    
N6    O15   1.298097 A    
H25   C45   1.113361 S    
C5    N1    1.363843 A    
C30   C31   1.394332 A    
C10   H2    1.082999 S    
O1    Cu1   1.964783 S    
C17   C30   1.405983 A    
O2    Cu2   1.964946 S    
C6    C15   1.415677 A    
H24   C45   1.113354 S    
C4    C17   1.473051 S    
O6    C3    1.294826 A    
O4    Cu2   1.949843 S    
C54   H35   1.115952 S    
C36   H8    1.076639 S    
C19   C35   1.421729 A    
C25   C39   1.396344 A    
C1    C46   1.482398 S    
O2    C1    1.296196 A    
C13   C14   1.396051 A    
C42   C46   1.554239 S    
C23   C27   1.404003 A    
C53   N6    1.475316 S    
C44   H23   1.113311 S    
C41   C46   1.554372 S    
C28   H5    1.082870 S    
C47   C48   1.546884 S    
O4    C2    1.302454 A    
C54   N7    1.475351 S    
C19   C38   1.415756 A    
C18   C20   1.419761 A    
N7    O18   1.300756 A    
C53   H34   1.116026 S    
C53   C54   1.583676 S    
N5    O14   1.301379 A    
C37   N5    1.435221 S    
C49   N3    1.494457 S    
C38   C39   1.389303 A    
C6    O11   1.348181 S    
C45   C46   1.548540 S    
Cu2   O6    1.965208 S    
H26   C48   1.113456 S    
C42   H19   1.113186 S    
C10   C11   1.399025 A    
C51   C52   1.575503 S    
C28   C32   1.399994 A    
N6    O16   1.300814 A    
