data_mof_unit_11398.cif
_audit_creation_date              2012-12-10T20:02:21-0500
_audit_creation_method            fapswitch 2.2
_symmetry_space_group_name_H-M    P1
_symmetry_Int_Tables_number       1
_space_group_crystal_system       triclinic
_cell_length_a                    10.795045
_cell_length_b                    15.000195
_cell_length_c                    14.126973
_cell_angle_alpha                 90.121581
_cell_angle_beta                  91.264661
_cell_angle_gamma                 90.155032
_cell_volume                      2286.97834

loop_
_atom_site_label
_atom_site_type_symbol
_atom_type_description
_atom_site_fract_x
_atom_site_fract_y
_atom_site_fract_z
_atom_type_partial_charge
C1    C     C_R   0.499362 0.327682 0.499888 0.863400
C2    C     C_R   0.535553 0.814674 0.420639 -0.216463
C3    C     C_R   0.495117 0.231916 0.499611 -0.020891
C4    C     C_R   0.495139 0.767996 0.499850 -0.024879
C5    C     C_R   0.449936 0.186809 0.419157 -0.201974
C6    C     C_R   0.448694 0.813079 0.578187 -0.204251
C7    C     C_R   0.444215 0.094834 0.419454 -0.184058
C8    C     C_R   0.442866 0.905005 0.577348 -0.183317
C9    C     C_R   0.485118 0.048030 0.499740 0.116724
C10   C     C_R   0.484850 0.951789 0.498671 0.120439
C11   C     C_R   0.528457 0.422125 0.105427 -0.284749
C12   C     C_R   0.499356 0.672294 0.500032 0.863199
C13   C     C_R   0.536817 0.576411 0.895228 -0.281452
C14   C     C_R   0.526169 0.423480 0.204766 0.012867
C15   C     C_R   0.535657 0.574734 0.795938 0.032100
C16   C     C_R   0.259749 0.502015 0.498891 0.881544
C17   C     C_R   0.740263 0.498757 0.501367 0.881674
C18   C     C_R   0.477073 0.576790 0.204004 0.034683
C19   C     C_R   0.465664 0.425316 0.795014 0.012564
C20   C     C_R   0.478147 0.578299 0.104656 -0.291344
C21   C     C_R   0.467365 0.423679 0.894329 -0.308049
C22   C     C_R   0.503472 0.500163 0.053262 0.133761
C23   C     C_R   0.872688 0.498295 0.503768 -0.095886
C24   C     C_R   0.503125 0.500000 0.946582 0.119064
C25   C     C_R   0.178209 0.649899 0.208738 0.164298
C26   C     C_R   0.799122 0.386067 0.805785 0.187133
C27   C     C_R   0.146529 0.624442 0.301037 -0.128565
C28   C     C_R   0.839519 0.397695 0.712813 -0.137124
C29   C     C_R   0.109288 0.536923 0.319832 0.085430
C30   C     C_R   0.889662 0.479421 0.684618 0.092420
C31   C     C_R   0.105710 0.473656 0.246797 -0.232999
C32   C     C_R   0.899040 0.549848 0.749949 -0.248996
C33   C     C_R   0.137206 0.497055 0.154318 0.211373
C34   C     C_R   0.127303 0.503610 0.497555 -0.096368
C35   C     C_R   0.859599 0.539555 0.843400 0.189366
C36   C     C_R   0.171865 0.585950 0.135840 -0.180373
C37   C     C_R   0.809502 0.456908 0.870702 -0.131538
C38   C     C_R   0.930752 0.510412 0.417278 -0.252482
C39   C     C_R   0.069331 0.491700 0.584279 -0.252252
C40   C     C_3   0.216655 0.744112 0.183344 -0.438188
C41   C     C_3   0.234851 0.808030 0.267020 -0.881036
C42   C     C_3   0.744893 0.298095 0.835673 -0.427346
C43   C     C_3   0.843833 0.225688 0.840628 -0.887512
C44   C     C_3   0.130419 0.424772 0.079009 -0.423529
C45   C     C_R   0.942397 0.489690 0.589050 0.020786
C46   C     C_3   0.156205 0.454997 0.978071 -0.881770
C47   C     C_3   0.873429 0.618642 0.910123 -0.430189
C48   C     C_3   0.846902 0.600038 0.014292 -0.890396
C49   C     C_R   0.057444 0.514817 0.413048 0.017263
C50   C     C_R   0.530234 0.093224 0.580159 -0.178416
C51   C     C_R   0.530860 0.906599 0.420208 -0.176915
C52   C     C_R   0.534520 0.185172 0.580278 -0.204778
H1    H     H_    0.195064 0.606554 0.065086 0.144591
H2    H     H_    0.436828 0.366501 0.755971 0.125646
H3    H     H_    0.456659 0.640049 0.068618 0.121692
H4    H     H_    0.437825 0.363565 0.929583 0.139814
H5    H     H_    0.146398 0.672281 0.358406 0.137748
H6    H     H_    0.832757 0.343092 0.662584 0.126649
H7    H     H_    0.075350 0.406272 0.261703 0.132787
H8    H     H_    0.938945 0.612745 0.728149 0.136997
H9    H     H_    0.877420 0.519552 0.352005 0.176611
H10   H     H_    0.122775 0.483345 0.649608 0.176505
H11   H     H_    0.564017 0.057412 0.642006 0.129744
H12   H     H_    0.778088 0.446806 0.942024 0.146268
H13   H     H_    0.565208 0.942407 0.359618 0.129721
H14   H     H_    0.570211 0.219561 0.642579 0.140322
H15   H     H_    0.571979 0.780250 0.359795 0.150251
H16   H     H_    0.417826 0.222546 0.356752 0.145513
H17   H     H_    0.415770 0.777347 0.639320 0.146488
H18   H     H_    0.145480 0.819889 0.302327 0.257002
H19   H     H_    0.303845 0.780768 0.318622 0.268363
H20   H     H_    0.269893 0.873043 0.241166 0.249141
H21   H     H_    0.305491 0.741174 0.145290 0.195896
H22   H     H_    0.145791 0.772505 0.133850 0.208394
H23   H     H_    0.407871 0.060243 0.357380 0.127572
H24   H     H_    0.883419 0.214089 0.769761 0.257150
H25   H     H_    0.919290 0.245339 0.891318 0.262252
H26   H     H_    0.801820 0.162419 0.865200 0.248001
H27   H     H_    0.702412 0.303892 0.906414 0.200459
H28   H     H_    0.670164 0.278097 0.784662 0.199103
H29   H     H_    0.087549 0.505266 0.954158 0.268800
H30   H     H_    0.250362 0.483739 0.974114 0.271735
H31   H     H_    0.149837 0.396913 0.929321 0.253856
H32   H     H_    0.197993 0.371765 0.098540 0.210271
H33   H     H_    0.036247 0.394554 0.078921 0.200215
H34   H     H_    0.405741 0.939586 0.637818 0.127798
H35   H     H_    0.748098 0.582676 0.023476 0.265149
H36   H     H_    0.905885 0.545096 0.041849 0.270120
H37   H     H_    0.867619 0.660723 0.056984 0.252812
H38   H     H_    0.970089 0.644033 0.906639 0.200155
H39   H     H_    0.810913 0.672684 0.884703 0.204429
H40   H     H_    0.551602 0.360504 0.070131 0.124687
H41   H     H_    0.566572 0.636798 0.931079 0.133551
H42   H     H_    0.546422 0.363081 0.243593 0.126345
H43   H     H_    0.564101 0.633372 0.757655 0.123193
H44   H     H_    0.456908 0.637311 0.242196 0.134827
N1    N     N_R   0.500000 0.499980 0.252470 -0.090837
N2    N     N_R   0.500000 0.500020 0.747530 -0.089450
O1    O     O_R   0.500010 0.369070 0.579480 -0.637020
O2    O     O_R   0.499990 0.630930 0.420520 -0.637314
O3    O     O_R   0.500010 0.369060 0.420520 -0.635396
O4    O     O_R   0.499990 0.630940 0.579480 -0.634774
O5    O     O_R   0.316760 0.500010 0.579480 -0.627199
O6    O     O_R   0.683240 0.499990 0.420520 -0.625646
O7    O     O_R   0.316760 0.500000 0.420520 -0.607796
O8    O     O_R   0.683240 0.500000 0.579480 -0.611691
Zn1   Zn    Zn3+2 0.500000 0.500010 0.606140 0.941248
Zn2   Zn    Zn3+2 0.500000 0.499990 0.393860 0.945252

loop_
_geom_bond_atom_site_label_1
_geom_bond_atom_site_label_2
_ccdc_geom_bond_type
C6    H17   S    
C42   H28   S    
C23   C45   A    
C27   C29   A    
C18   H44   S    
C30   C45   S    
C35   C47   S    
C1    O1    A    
C38   C49   A    
C29   C49   S    
C43   H26   S    
C17   C23   S    
C35   C37   A    
C17   O6    A    
C20   H3    S    
C25   C40   S    
C15   H43   S    
C11   C14   A    
O8    Zn1   S    
C33   C36   A    
C40   H21   S    
C51   H13   S    
C31   H7    S    
C36   H1    S    
C16   C34   S    
C46   H30   S    
N1    Zn2   S    
C11   H40   S    
C50   C52   A    
C48   H36   S    
C18   N1    A    
C4    C12   S    
C9    C10   S    
C18   C20   A    
C41   H19   S    
C38   H9    S    
O3    Zn2   S    
C42   H27   S    
C50   H11   S    
C5    H16   S    
C10   C51   A    
C19   N2    A    
C44   C46   S    
O7    Zn2   S    
O2    Zn2   S    
C34   C39   A    
C32   C35   A    
C4    C6    A    
C2    H15   S    
C27   H5    S    
C5    C7    A    
C6    C8    A    
C44   H32   S    
N2    Zn1   S    
C13   C24   A    
C13   H41   S    
C1    C3    S    
C2    C4    A    
C12   O4    A    
C46   H29   S    
C16   O5    A    
C47   C48   S    
C31   C33   A    
C48   H35   S    
O4    Zn1   S    
C16   O7    A    
C41   H20   S    
C19   H2    S    
C40   C41   S    
C20   C22   A    
C48   H37   S    
C13   C15   A    
C47   H38   S    
C22   C24   S    
C43   H25   S    
C42   C43   S    
C32   H8    S    
C15   N2    A    
C44   H33   S    
C1    O3    A    
O6    Zn2   S    
C37   H12   S    
C52   H14   S    
C26   C42   S    
C14   N1    A    
C43   H24   S    
C7    C9    A    
C39   H10   S    
C34   C49   A    
C19   C21   A    
C33   C44   S    
C47   H39   S    
C9    C50   A    
C3    C5    A    
C21   H4    S    
C7    H23   S    
C3    C52   A    
C26   C37   A    
C28   H6    S    
C25   C27   A    
C23   C38   A    
O1    Zn1   S    
C11   C22   A    
C26   C28   A    
C39   C45   A    
C28   C30   A    
C29   C31   A    
C17   O8    A    
C30   C32   A    
C40   H22   S    
C8    H34   S    
C12   O2    A    
C2    C51   A    
C25   C36   A    
C46   H31   S    
C8    C10   A    
C21   C24   A    
O5    Zn1   S    
C14   H42   S    
C41   H18   S    
