data_mof_unit_64119.cif
_audit_creation_date              2013-03-05T16:16:44-0500
_audit_creation_method            fapswitch 2.2
_symmetry_space_group_name_H-M    P1
_symmetry_Int_Tables_number       1
_space_group_crystal_system       triclinic
_cell_length_a                    24.522914
_cell_length_b                    24.554647
_cell_length_c                    16.062426
_cell_angle_alpha                 90.234965
_cell_angle_beta                  101.188363
_cell_angle_gamma                 90.090689
_cell_volume                      9488.08554441

loop_
_atom_site_label
_atom_site_type_symbol
_atom_site_description
_atom_site_fract_x
_atom_site_fract_y
_atom_site_fract_z
_atom_type_partial_charge
O1    O     O_R   0.439420 0.056820 0.420010 -0.535373
O2    O     O_R   0.560580 0.943180 0.579990 -0.547984
O3    O     O_R   0.560580 0.056820 0.579990 -0.533117
O4    O     O_R   0.439420 0.943180 0.420010 -0.545160
O5    O     O_R   0.939420 0.556820 0.420010 -0.547983
O6    O     O_R   0.060580 0.443180 0.579990 -0.535386
O7    O     O_R   0.060580 0.556820 0.579990 -0.545150
O8    O     O_R   0.939420 0.443180 0.420010 -0.533118
O9    O     O_R   0.446220 0.056810 0.563370 -0.605795
O10   O     O_R   0.553780 0.943190 0.436630 -0.601854
O11   O     O_R   0.553780 0.056810 0.436630 -0.605977
O12   O     O_R   0.446220 0.943190 0.563370 -0.602870
O13   O     O_R   0.946220 0.556810 0.563370 -0.601854
O14   O     O_R   0.053780 0.443190 0.436630 -0.605801
O15   O     O_R   0.053780 0.556810 0.436630 -0.602868
O16   O     O_R   0.946220 0.443190 0.563370 -0.605983
C1    C     C_R   0.425553 0.075788 0.488527 0.793708
C2    C     C_R   0.574585 0.924356 0.511623 0.790575
C3    C     C_R   0.574874 0.075480 0.511960 0.792044
C4    C     C_R   0.425337 0.924378 0.488144 0.793955
C5    C     C_R   0.925415 0.575644 0.488377 0.790577
C6    C     C_R   0.074446 0.424210 0.511472 0.793707
C7    C     C_R   0.074663 0.575622 0.511856 0.793964
C8    C     C_R   0.925125 0.424520 0.488040 0.792051
Cu1   Cu    Cu3+1 0.495980 0.000000 0.415120 0.973422
Cu2   Cu    Cu3+1 0.504020 0.000000 0.584880 0.973081
Cu3   Cu    Cu3+1 0.995980 0.500000 0.415120 0.973081
Cu4   Cu    Cu3+1 0.004020 0.500000 0.584880 0.973417
C9    C     C_R   0.382969 0.881812 0.479717 -0.044122
C10   C     C_R   0.617723 0.117683 0.520729 -0.028809
C11   C     C_R   0.616724 0.881689 0.519620 -0.045163
C12   C     C_R   0.385375 0.120214 0.482581 -0.032447
C13   C     C_R   0.882275 0.382318 0.479270 -0.028806
C14   C     C_R   0.117031 0.618188 0.520283 -0.044123
C15   C     C_R   0.114613 0.379773 0.517415 -0.032506
C16   C     C_R   0.883275 0.618311 0.480380 -0.045163
C17   C     C_R   0.344570 0.884149 0.533750 -0.250516
C18   C     C_R   0.654255 0.116790 0.463656 -0.251338
C19   C     C_R   0.655104 0.883704 0.465527 -0.253028
C20   C     C_R   0.353831 0.123844 0.546421 -0.249807
C21   C     C_R   0.845744 0.383211 0.536345 -0.251343
C22   C     C_R   0.155429 0.615852 0.466247 -0.250512
C23   C     C_R   0.146116 0.376102 0.453525 -0.249804
C24   C     C_R   0.844896 0.616296 0.534475 -0.253026
C25   C     C_R   0.303448 0.844838 0.528655 -0.151040
C26   C     C_R   0.695556 0.155899 0.468637 -0.152043
C27   C     C_R   0.696145 0.844421 0.470593 -0.150424
C28   C     C_R   0.317627 0.166744 0.548029 -0.152559
C29   C     C_R   0.804443 0.344104 0.531363 -0.152043
C30   C     C_R   0.196550 0.655164 0.471343 -0.151041
C31   C     C_R   0.182303 0.333189 0.451910 -0.152596
C32   C     C_R   0.803855 0.655578 0.529408 -0.150425
C33   C     C_R   0.300620 0.801950 0.470116 0.142847
C34   C     C_R   0.700493 0.197137 0.530217 0.142558
C35   C     C_R   0.698941 0.801879 0.529202 0.142653
C36   C     C_R   0.311623 0.206628 0.484909 0.144292
C37   C     C_R   0.799504 0.302866 0.469782 0.142559
C38   C     C_R   0.199378 0.698052 0.529882 0.142847
C39   C     C_R   0.188334 0.293332 0.515071 0.144286
C40   C     C_R   0.801057 0.698119 0.470798 0.142654
C41   C     C_R   0.338081 0.799840 0.414771 -0.162441
C42   C     C_R   0.665054 0.197761 0.588610 -0.162418
C43   C     C_R   0.661404 0.800037 0.584440 -0.162794
C44   C     C_R   0.343220 0.203868 0.421358 -0.162496
C45   C     C_R   0.834941 0.302242 0.411388 -0.162419
C46   C     C_R   0.161919 0.700160 0.585229 -0.162442
C47   C     C_R   0.156780 0.296131 0.578673 -0.162481
C48   C     C_R   0.838593 0.699961 0.415559 -0.162794
C49   C     C_R   0.379846 0.839211 0.419145 0.152993
C50   C     C_R   0.623122 0.158599 0.584448 0.163668
C51   C     C_R   0.619720 0.839350 0.580072 0.157907
C52   C     C_R   0.380258 0.160851 0.419008 0.159228
C53   C     C_R   0.876874 0.341403 0.415550 0.163672
C54   C     C_R   0.120155 0.660789 0.580856 0.152988
C55   C     C_R   0.119760 0.339162 0.581034 0.159220
C56   C     C_R   0.880278 0.660648 0.419926 0.157906
C57   C     C_2   0.259071 0.758538 0.465526 -0.217035
C58   C     C_2   0.742138 0.240411 0.534821 -0.216770
C59   C     C_2   0.740619 0.758635 0.534248 -0.216938
C60   C     C_2   0.273452 0.252364 0.484853 -0.215251
C61   C     C_2   0.757858 0.259593 0.465178 -0.216770
C62   C     C_2   0.240927 0.741464 0.534471 -0.217035
C63   C     C_2   0.226496 0.247590 0.515124 -0.215272
C64   C     C_2   0.759378 0.741363 0.465752 -0.216938
H1    H     H_    0.345977 0.916965 0.579465 0.146885
H2    H     H_    0.651238 0.085291 0.415497 0.148164
H3    H     H_    0.653798 0.916291 0.419874 0.147600
H4    H     H_    0.357553 0.093555 0.596091 0.152852
H5    H     H_    0.848763 0.414710 0.584505 0.148165
H6    H     H_    0.154021 0.583037 0.420532 0.146888
H7    H     H_    0.142373 0.406369 0.403820 0.152895
H8    H     H_    0.846204 0.583709 0.580129 0.147601
H9    H     H_    0.255489 0.760767 0.595711 0.143938
H10   H     H_    0.741238 0.242104 0.403226 0.145308
H11   H     H_    0.745182 0.760349 0.404465 0.143790
H12   H     H_    0.215904 0.209516 0.542291 0.143141
H13   H     H_    0.758757 0.257900 0.596773 0.145308
H14   H     H_    0.244509 0.739235 0.404286 0.143938
H15   H     H_    0.284040 0.290442 0.457690 0.143151
H16   H     H_    0.754815 0.739649 0.595535 0.143790
H17   H     H_    0.335391 0.766642 0.369422 0.123789
H18   H     H_    0.669421 0.229711 0.636268 0.124191
H19   H     H_    0.664001 0.767096 0.629784 0.123351
H20   H     H_    0.338723 0.235360 0.373393 0.123920
H21   H     H_    0.830573 0.270293 0.363728 0.124191
H22   H     H_    0.164609 0.733358 0.630579 0.123789
H23   H     H_    0.161301 0.264660 0.626673 0.123927
H24   H     H_    0.835995 0.732902 0.370213 0.123351
H25   H     H_    0.723834 0.153394 0.424746 0.131297
H26   H     H_    0.273650 0.848500 0.569994 0.130449
H27   H     H_    0.295368 0.169026 0.599868 0.130930
H28   H     H_    0.725961 0.847910 0.429282 0.130370
H29   H     H_    0.226347 0.651502 0.430002 0.130449
H30   H     H_    0.776165 0.346609 0.575255 0.131296
H31   H     H_    0.774040 0.652089 0.570721 0.130370
H32   H     H_    0.204532 0.330875 0.400038 0.130954
N1    N     N_R   0.510090 0.000000 0.712400 -0.201562
N2    N     N_R   0.489910 0.000000 0.287600 -0.201665
N3    N     N_R   0.010090 0.500000 0.712400 -0.201659
N4    N     N_R   0.989910 0.500000 0.287600 -0.201561
C65   C     C_R   0.461203 0.996204 0.740166 -0.002658
C66   C     C_R   0.538947 0.001445 0.259940 -0.002360
C67   C     C_R   0.961053 0.498554 0.740059 -0.002361
C68   C     C_R   0.038797 0.503795 0.259833 -0.002673
C69   C     C_R   0.460695 0.990690 0.826152 -0.295782
C70   C     C_R   0.539788 0.006468 0.173977 -0.292963
C71   C     C_R   0.960213 0.493530 0.826024 -0.292964
C72   C     C_R   0.039305 0.509310 0.173848 -0.295783
C73   C     C_R   0.510891 0.990374 0.884627 0.144812
C74   C     C_R   0.489706 0.009375 0.115415 0.143004
C75   C     C_R   0.010294 0.490625 0.884585 0.143010
C76   C     C_R   0.989109 0.509625 0.115373 0.144815
C77   C     C_R   0.560965 0.995145 0.855333 -0.401214
C78   C     C_R   0.439455 0.007575 0.144791 -0.400884
C79   C     C_R   0.060546 0.492426 0.855209 -0.400887
C80   C     C_R   0.939035 0.504854 0.144667 -0.401215
C81   C     C_R   0.560165 0.999106 0.767039 0.643808
C82   C     C_R   0.439983 0.001803 0.232694 0.641988
C83   C     C_R   0.060017 0.498198 0.767305 0.641985
C84   C     C_R   0.939835 0.500894 0.232961 0.643809
C85   C     C_2   0.511228 0.981245 0.976106 0.163264
C86   C     C_2   0.489828 0.018662 0.024015 0.161517
C87   C     C_2   0.010173 0.481338 0.975986 0.161518
C88   C     C_2   0.988772 0.518754 0.023894 0.163264
H33   H     H_    0.422289 0.996064 0.694934 0.141667
H34   H     H_    0.577792 0.000338 0.305278 0.141799
H35   H     H_    0.922208 0.499660 0.694722 0.141797
H36   H     H_    0.077710 0.503936 0.305065 0.141669
H37   H     H_    0.599620 0.995643 0.901168 0.135904
H38   H     H_    0.400837 0.012028 0.099610 0.138569
H39   H     H_    0.099164 0.487975 0.900390 0.138564
H40   H     H_    0.900381 0.504357 0.098831 0.135903
H41   H     H_    0.579247 0.009745 0.153628 0.141687
H42   H     H_    0.421481 0.985719 0.846768 0.141301
H43   H     H_    0.078519 0.514281 0.153232 0.141301
H44   H     H_    0.920753 0.490252 0.846372 0.141687
C89   C     C_3   0.583950 0.162777 0.645967 -0.832474
H45   H     H_    0.540218 0.162907 0.610830 0.226009
H46   H     H_    0.590595 0.128094 0.690859 0.266312
H47   H     H_    0.590780 0.200849 0.684198 0.213228
C90   C     C_3   0.421257 0.833686 0.361361 -0.851448
H48   H     H_    0.464247 0.834566 0.399306 0.230032
H49   H     H_    0.415843 0.794726 0.325284 0.217017
H50   H     H_    0.415725 0.867276 0.314513 0.249397
C91   C     C_3   0.414700 0.160650 0.350706 -0.830168
H51   H     H_    0.402989 0.125341 0.307537 0.266060
H52   H     H_    0.408109 0.198077 0.311449 0.212257
H53   H     H_    0.459581 0.158648 0.379882 0.229830
C92   C     C_3   0.578168 0.833937 0.637624 -0.850034
H54   H     H_    0.535225 0.834649 0.599524 0.229923
H55   H     H_    0.583406 0.795084 0.673440 0.216493
H56   H     H_    0.583692 0.867652 0.684699 0.247600
C93   C     C_3   0.078745 0.666312 0.638643 -0.851446
H57   H     H_    0.035754 0.665432 0.600700 0.230032
H58   H     H_    0.084278 0.632722 0.685489 0.249401
H59   H     H_    0.084159 0.705272 0.674720 0.217017
C94   C     C_3   0.916045 0.337225 0.354029 -0.832474
H60   H     H_    0.959777 0.337093 0.389164 0.226013
H61   H     H_    0.909213 0.299153 0.315796 0.213227
H62   H     H_    0.909401 0.371908 0.309138 0.266312
C95   C     C_3   0.921829 0.666061 0.362372 -0.850035
H63   H     H_    0.964772 0.665351 0.400471 0.229924
H64   H     H_    0.916305 0.632346 0.315298 0.247602
H65   H     H_    0.916589 0.704913 0.326554 0.216493
C96   C     C_3   0.085371 0.339405 0.649404 -0.830116
H66   H     H_    0.097112 0.374734 0.692522 0.266092
H67   H     H_    0.040479 0.341401 0.620291 0.229874
H68   H     H_    0.091985 0.301998 0.688705 0.212230
O17   O     O_3   0.391987 0.003326 0.266545 -0.558948
C97   C     C_3   0.348455 0.972396 0.217853 0.020588
H69   H     H_    0.363629 0.932911 0.196481 0.127891
H70   H     H_    0.327526 0.996203 0.162052 0.142424
C98   C     C_3   0.305420 0.959985 0.271801 -0.753940
H71   H     H_    0.288842 0.998514 0.293392 0.245385
H72   H     H_    0.270583 0.936224 0.234011 0.193155
H73   H     H_    0.324504 0.935832 0.328097 0.254570
O18   O     O_3   0.607886 0.005233 0.733205 -0.559994
C99   C     C_3   0.652930 0.974230 0.776751 0.026161
H74   H     H_    0.639553 0.932830 0.793012 0.129513
H75   H     H_    0.673457 0.996021 0.835309 0.141458
C100  C     C_3   0.695584 0.967466 0.720228 -0.751326
H76   H     H_    0.710321 0.008006 0.703370 0.245361
H77   H     H_    0.731645 0.943804 0.754089 0.192843
H78   H     H_    0.676827 0.945409 0.661172 0.252223
O19   O     O_3   0.892114 0.494768 0.266795 -0.559994
C101  C     C_3   0.847069 0.525769 0.223247 0.026156
H79   H     H_    0.826542 0.503976 0.164691 0.141460
H80   H     H_    0.860445 0.567168 0.206983 0.129514
C102  C     C_3   0.804416 0.532534 0.279770 -0.751325
H81   H     H_    0.823172 0.554593 0.338824 0.252224
H82   H     H_    0.768354 0.556194 0.245908 0.192843
H83   H     H_    0.789679 0.491993 0.296631 0.245362
O20   O     O_3   0.108013 0.496678 0.733453 -0.558974
C103  C     C_3   0.151547 0.527601 0.782151 0.020561
H84   H     H_    0.172476 0.503787 0.837945 0.142427
H85   H     H_    0.136376 0.567084 0.803534 0.127904
C104  C     C_3   0.194582 0.540016 0.728204 -0.753953
H86   H     H_    0.175499 0.564176 0.671916 0.254573
H87   H     H_    0.229422 0.563771 0.766000 0.193158
H88   H     H_    0.211155 0.501488 0.706601 0.245384
C105  C     C_3   0.466529 0.072163 0.986812 -0.889757
H89   H     H_    0.455809 0.099294 0.036746 0.238284
H90   H     H_    0.497783 0.093584 0.957160 0.239549
H91   H     H_    0.428131 0.065116 0.938718 0.227494
C106  C     C_3   0.534213 0.927504 0.012724 -0.901365
H92   H     H_    0.503123 0.906379 0.043092 0.237804
H93   H     H_    0.544111 0.900296 0.962268 0.235004
H94   H     H_    0.573098 0.934061 0.059958 0.228013
C107  C     C_3   0.965786 0.572495 0.987275 -0.901364
H95   H     H_    0.955887 0.599703 0.037731 0.235003
H96   H     H_    0.996875 0.593621 0.956907 0.237805
H97   H     H_    0.926901 0.565937 0.940041 0.228013
C108  C     C_3   0.033473 0.427838 0.013188 -0.889766
H98   H     H_    0.044193 0.400706 0.963254 0.238284
H99   H     H_    0.071871 0.434885 0.061282 0.227492
H100  H     H_    0.002220 0.406416 0.042841 0.239549

loop_
_geom_bond_atom_site_label_1
_geom_bond_atom_site_label_2
_geom_bond_distance
_ccdc_geom_bond_type
C76   C88   1.485722 S    
C21   H5    1.083881 S    
C77   C81   1.418274 A    
C89   H45   1.110768 S    
O2    C2    1.296232 A    
C100  H77   1.110393 S    
C100  H76   1.110824 S    
C41   H17   1.084329 S    
C14   C22   1.400066 A    
Cu2   N1    2.024670 S    
C19   H3    1.083881 S    
C80   C84   1.418276 A    
C23   C31   1.382087 A    
C84   O19   1.390835 S    
C102  H83   1.110826 S    
C92   H56   1.109148 S    
C90   H48   1.110779 S    
C45   C53   1.398653 A    
C12   C52   1.418877 A    
C5    C16   1.461160 S    
C74   C78   1.403155 A    
Cu3   N4    2.024672 S    
C104  H88   1.110773 S    
C79   C83   1.417173 A    
C6    C15   1.462089 S    
C68   H36   1.081397 S    
O11   C3    1.301390 A    
C90   H49   1.110777 S    
C18   H2    1.083881 S    
C79   H39   1.081549 S    
O10   C2    1.300770 A    
C17   H1    1.083910 S    
C49   C90   1.508756 S    
C105  H91   1.108804 S    
C75   C79   1.403156 A    
C38   C62   1.465153 S    
C59   C64   1.339827 D    
C101  H80   1.115158 S    
C96   H67   1.110676 S    
C73   C85   1.485722 S    
O11   Cu1   1.968269 S    
C41   C49   1.398885 A    
C27   H28   1.082053 S    
O6    C6    1.298209 A    
C66   H34   1.081442 S    
C106  H94   1.108416 S    
C29   C37   1.401182 A    
C10   C18   1.400735 A    
C44   H20   1.084377 S    
N2    C66   1.360900 A    
C45   H21   1.084398 S    
C14   C54   1.417470 A    
N1    C65   1.361002 A    
C32   C40   1.401898 A    
C72   H43   1.082987 S    
C39   C47   1.397687 A    
O5    Cu3   1.980922 S    
C33   C41   1.397701 A    
C38   C46   1.397701 A    
O6    Cu4   1.980922 S    
C98   H72   1.110396 S    
C35   C43   1.397781 A    
C51   C92   1.508863 S    
O13   Cu4   1.973454 S    
O3    C3    1.295818 A    
C99   H74   1.115159 S    
N4    C84   1.364067 A    
O14   Cu3   1.973452 S    
O18   C99   1.412834 S    
C15   C23   1.401858 A    
C108  H98   1.110957 S    
C10   C50   1.418797 A    
C86   C105  1.511839 S    
O16   Cu4   1.968274 S    
C97   C98   1.521037 S    
C68   C72   1.390759 A    
C53   C94   1.509163 S    
C24   C32   1.386330 A    
O15   C7    1.300064 A    
C29   H30   1.082216 S    
C25   C33   1.401533 A    
O16   C8    1.301388 A    
C62   H9    1.085852 S    
C93   H57   1.110781 S    
Cu1   N2    2.024672 S    
O1    Cu1   1.980922 S    
C92   H55   1.110780 S    
C42   C50   1.398654 A    
O12   C4    1.300063 A    
C91   H52   1.110843 S    
C55   C96   1.508838 S    
C58   H13   1.085947 S    
C60   C63   1.339208 D    
C72   C76   1.396032 A    
C21   C29   1.385354 A    
C90   H50   1.109382 S    
C80   H40   1.081576 S    
O9    Cu2   1.973454 S    
O4    Cu1   1.978283 S    
C9    C49   1.417470 A    
C4    C9    1.459825 S    
C93   H58   1.109383 S    
C85   C106  1.511646 S    
O15   Cu3   1.968269 S    
C106  H93   1.111073 S    
C1    C12   1.462045 S    
C30   C38   1.401535 A    
C92   H54   1.110787 S    
C59   H16   1.085783 S    
C77   H37   1.081576 S    
C54   C93   1.508756 S    
C43   H19   1.084334 S    
C95   H64   1.109147 S    
C25   H26   1.082133 S    
C96   H68   1.110847 S    
C34   C42   1.396946 A    
C94   H61   1.110842 S    
Cu1   Cu2   2.695449 S    
C95   H63   1.110787 S    
C19   C27   1.386331 A    
C103  C104  1.521040 S    
C23   H7    1.083909 S    
O7    Cu4   1.978279 S    
O12   Cu2   1.968274 S    
C22   H6    1.083911 S    
C64   H11   1.085784 S    
C66   C70   1.390918 A    
C33   C57   1.465152 S    
C97   H69   1.115475 S    
C65   C69   1.390759 A    
C107  H95   1.111074 S    
C39   C63   1.462992 S    
C105  H89   1.110955 S    
C35   C59   1.466527 S    
C88   C107  1.511646 S    
C67   C71   1.390919 A    
C102  H81   1.109224 S    
C101  C102  1.521124 S    
O20   C103  1.413021 S    
C36   C60   1.463017 S    
C76   C80   1.402588 A    
C94   H62   1.109797 S    
C15   C55   1.418901 A    
C26   C34   1.401178 A    
C99   C100  1.521125 S    
C36   C44   1.397697 A    
C106  H92   1.110594 S    
O13   C5    1.300768 A    
C57   H14   1.085853 S    
O2    Cu2   1.980922 S    
C48   C56   1.399119 A    
C108  H99   1.108804 S    
C40   C48   1.397781 A    
C81   O18   1.390834 S    
C22   C30   1.385495 A    
C73   C77   1.402588 A    
O10   Cu1   1.973452 S    
C13   C53   1.418798 A    
C104  H86   1.108814 S    
C43   C51   1.399120 A    
C98   H71   1.110776 S    
C91   H53   1.110680 S    
C60   H15   1.085587 S    
C107  H96   1.110594 S    
C100  H78   1.109225 S    
C65   H33   1.081396 S    
C16   C24   1.400272 A    
C82   O17   1.389509 S    
C47   C55   1.399309 A    
C17   C25   1.385496 A    
C56   C95   1.508865 S    
C12   C20   1.401832 A    
C75   C87   1.487212 S    
C69   H42   1.082988 S    
C50   C89   1.509161 S    
C27   C35   1.401897 A    
C32   H31   1.082053 S    
O9    C1    1.299266 A    
C20   C28   1.382094 A    
O19   C101  1.412835 S    
C102  H82   1.110394 S    
C7    C14   1.459827 S    
C97   H70   1.111423 S    
C95   H65   1.110779 S    
C78   H38   1.081549 S    
C101  H79   1.111612 S    
O3    Cu2   1.978279 S    
N1    C81   1.364067 A    
C8    C13   1.461412 S    
C37   C45   1.396946 A    
Cu4   N3    2.024670 S    
C24   H8    1.083882 S    
C71   H44   1.082767 S    
C78   C82   1.417171 A    
C93   H59   1.110775 S    
N3    C67   1.360899 A    
C89   H47   1.110841 S    
O1    C1    1.298203 A    
C31   H32   1.081921 S    
C104  H87   1.110393 S    
C52   C91   1.508831 S    
C30   H29   1.082130 S    
C13   C21   1.400736 A    
O14   C6    1.299281 A    
C67   H35   1.081441 S    
C103  H85   1.115474 S    
N3    C83   1.363905 A    
C105  H90   1.110587 S    
C85   C86   1.365321 D    
C98   H73   1.108818 S    
C61   H10   1.085947 S    
C40   C64   1.466529 S    
C58   C61   1.339002 D    
C47   H23   1.084379 S    
C96   H66   1.109969 S    
C46   H22   1.084327 S    
C57   C62   1.339599 D    
C83   O20   1.389510 S    
O7    C7    1.296314 A    
C63   H12   1.085574 S    
C103  H84   1.111423 S    
C11   C51   1.417700 A    
O8    C8    1.295818 A    
C11   C19   1.400270 A    
C37   C61   1.464274 S    
C44   C52   1.399308 A    
O17   C97   1.413025 S    
C74   C86   1.487213 S    
C108  H100  1.110589 S    
C71   C75   1.396691 A    
C18   C26   1.385355 A    
N4    C68   1.361002 A    
C107  H97   1.108417 S    
O4    C4    1.296313 A    
C70   H41   1.082766 S    
C69   C73   1.396031 A    
C91   H51   1.109953 S    
C16   C56   1.417700 A    
C28   H27   1.081902 S    
C31   C39   1.399742 A    
C28   C36   1.399762 A    
C89   H46   1.109797 S    
C94   H60   1.110766 S    
O5    C5    1.296231 A    
C26   H25   1.082217 S    
C9    C17   1.400065 A    
Cu3   Cu4   2.695449 S    
O8    Cu3   1.978283 S    
C70   C74   1.396690 A    
C87   C108  1.511838 S    
C99   H75   1.111613 S    
C2    C11   1.461159 S    
C48   H24   1.084334 S    
C34   C58   1.464275 S    
N2    C82   1.363905 A    
C3    C10   1.461411 S    
C20   H4    1.083904 S    
C87   C88   1.365321 D    
C42   H18   1.084397 S    
C46   C54   1.398885 A    
