data_mof_unit_13212.cif
_audit_creation_date              2012-12-10T17:04:30-0500
_audit_creation_method            fapswitch 2.2
_symmetry_space_group_name_H-M    P1
_symmetry_Int_Tables_number       1
_space_group_crystal_system       triclinic
_cell_length_a                    14.928834
_cell_length_b                    10.636581
_cell_length_c                    10.034599
_cell_angle_alpha                 88.250142
_cell_angle_beta                  89.978552
_cell_angle_gamma                 90.277758
_cell_volume                      1592.64956326

loop_
_atom_site_label
_atom_site_type_symbol
_atom_type_description
_atom_site_fract_x
_atom_site_fract_y
_atom_site_fract_z
_atom_type_partial_charge
C1    C     C_R   0.494986 0.262430 0.502316 0.948089
C2    C     C_R   0.907005 0.575148 0.591946 0.043287
C3    C     C_R   0.953168 0.349106 0.323003 -0.216439
C4    C     C_R   0.046162 0.347683 0.324460 -0.236175
C5    C     C_R   0.093064 0.423513 0.412426 0.159435
C6    C     C_R   0.046793 0.499386 0.502668 -0.004317
C7    C     C_R   0.093785 0.575378 0.592686 -0.013831
C8    C     C_R   0.046871 0.650208 0.682736 0.484277
C9    C     C_R   0.953567 0.650654 0.680450 -0.306781
C10   C     C_R   0.185680 0.425434 0.411193 -0.260254
C11   C     C_R   0.231494 0.500296 0.500164 -0.072131
C12   C     C_R   0.326969 0.500093 0.499991 0.872793
C13   C     C_R   0.186729 0.574778 0.590229 -0.249012
C14   C     C_2   0.431409 0.934562 0.420300 0.140991
C15   C     C_2   0.494478 0.870354 0.490011 -0.341453
C16   C     C_2   0.442348 0.070462 0.408838 -0.191955
C17   C     C_2   0.476532 0.131243 0.511321 -0.377845
C18   C     C_2   0.554997 0.567329 0.922830 -0.122780
C19   C     C_2   0.551489 0.572630 0.072634 -0.130262
C20   C     C_R   0.497081 0.737458 0.497753 0.907227
C21   C     C_R   0.673098 0.500399 0.499985 0.885582
C22   C     C_R   0.814244 0.574005 0.591281 -0.228070
C23   C     C_R   0.768717 0.500778 0.500101 -0.062145
C24   C     C_R   0.814087 0.427354 0.409543 -0.263105
C25   C     C_R   0.906767 0.424995 0.410853 0.142125
C26   C     C_R   0.953578 0.499678 0.502063 0.052848
H1    H     H_    0.777302 0.631175 0.660003 0.143173
H2    H     H_    0.550963 0.916351 0.536567 0.123795
H3    H     H_    0.422581 0.119789 0.317108 0.166161
H4    H     H_    0.486150 0.084712 0.608236 0.159295
H5    H     H_    0.605404 0.624382 0.871428 0.156465
H6    H     H_    0.450167 0.452377 0.899416 0.158909
H7    H     H_    0.595462 0.639340 0.119998 0.161802
H8    H     H_    0.462641 0.433631 0.104371 0.160339
H9    H     H_    0.777077 0.370484 0.340213 0.152426
H10   H     H_    0.917575 0.291182 0.253301 0.147951
H11   H     H_    0.081429 0.288920 0.255590 0.144669
H12   H     H_    0.222291 0.367739 0.342584 0.144344
H13   H     H_    0.224911 0.633287 0.656397 0.179579
H14   H     H_    0.917626 0.710018 0.747983 0.159984
N1    N     N_2   0.500970 0.501330 0.852150 -0.192611
N2    N     N_2   0.500990 0.501360 0.147810 -0.194983
O1    O     O_R   0.499990 0.319060 0.613040 -0.613661
O2    O     O_R   0.500010 0.319100 0.386900 -0.612761
O3    O     O_R   0.367830 0.499950 0.613080 -0.621613
O4    O     O_R   0.367860 0.499990 0.386940 -0.629302
O5    O     O_R   0.499990 0.680900 0.613100 -0.609976
O6    O     O_R   0.500010 0.680940 0.386960 -0.612806
O7    O     O_R   0.632140 0.500010 0.613060 -0.615550
O8    O     O_R   0.632170 0.500050 0.386920 -0.612471
Zn1   Zn    Zn3+2 0.499980 0.499970 0.650990 0.939249
Zn2   Zn    Zn3+2 0.500020 0.500030 0.349010 0.932051
O9    O     O_3   0.091419 0.729208 0.767791 -0.648234
C27   C     C_3   0.117949 0.661068 0.884560 0.064970
H15   H     H_    0.186935 0.691931 0.909875 0.162422
H16   H     H_    0.121142 0.556945 0.872866 0.126247
C28   C     C_3   0.055778 0.691388 0.000335 -0.349948
H17   H     H_    0.057066 0.794323 0.016450 0.230596
H18   H     H_    0.986082 0.663129 0.975977 0.217649
C29   C     C_3   0.084550 0.621792 0.128182 -0.941018
H19   H     H_    0.080971 0.518774 0.114405 0.269785
H20   H     H_    0.039347 0.646459 0.211240 0.275892
H21   H     H_    0.154284 0.647839 0.154629 0.264541
C30   C     C_3   0.350493 0.875411 0.354162 -0.401972
C31   C     C_3   0.263516 0.916845 0.421183 -0.349574
C32   C     C_3   0.181576 0.857221 0.357204 -0.868530
H22   H     H_    0.177300 0.886163 0.250113 0.259106
H23   H     H_    0.185367 0.753189 0.366401 0.271739
H24   H     H_    0.119928 0.888179 0.408440 0.263129
H25   H     H_    0.265050 0.888421 0.528743 0.236952
H26   H     H_    0.257040 0.020869 0.412702 0.226875
H27   H     H_    0.349793 0.905001 0.246961 0.194111
H28   H     H_    0.352317 0.771301 0.358988 0.220702

loop_
_geom_bond_atom_site_label_1
_geom_bond_atom_site_label_2
_ccdc_geom_bond_type
C8    O9    S    
C2    C22   A    
C7    C13   A    
C32   H23   S    
C23   C24   A    
C6    C7    A    
N1    Zn1   S    
C24   H9    S    
C27   H15   S    
C1    O2    A    
O8    Zn2   S    
H8    N2    S    
C19   N2    D    
O6    Zn2   S    
C10   H12   S    
C14   C30   S    
C30   C31   S    
O2    Zn2   S    
C21   C23   S    
C32   H22   S    
C28   H17   S    
C7    C8    A    
C2    C26   A    
C6    C26   A    
O9    C27   S    
C24   C25   A    
C17   H4    S    
C11   C13   A    
O1    Zn1   S    
C15   H2    S    
C20   O6    A    
C3    H10   S    
C29   H19   S    
C29   H21   S    
C5    C6    A    
C5    C10   A    
C21   O8    A    
C27   C28   S    
C30   H28   S    
C31   C32   S    
C27   H16   S    
C22   H1    S    
C30   H27   S    
C15   C20   S    
C14   C16   S    
C13   H13   S    
C32   H24   S    
C28   H18   S    
C10   C11   A    
O3    Zn1   S    
H6    N1    S    
C31   H25   S    
C20   O5    A    
C16   C17   D    
O4    Zn2   S    
C3    C25   A    
C4    H11   S    
C16   H3    S    
C8    C9    A    
C29   H20   S    
C18   C19   S    
C19   H7    S    
C18   N1    D    
C22   C23   A    
C4    C5    A    
C28   C29   S    
O5    Zn1   S    
C18   H5    S    
C21   O7    A    
C25   C26   A    
C31   H26   S    
C2    C9    A    
C1    C17   S    
C1    O1    A    
C9    H14   S    
C3    C4    A    
C14   C15   D    
C11   C12   S    
N2    Zn2   S    
C12   O3    A    
O7    Zn1   S    
C12   O4    A    
