data_mof_unit_21705.cif
_audit_creation_date              2012-12-10T21:26:48-0500
_audit_creation_method            fapswitch 2.2
_symmetry_space_group_name_H-M    P1
_symmetry_Int_Tables_number       1
_space_group_crystal_system       triclinic
_cell_length_a                    10.659732
_cell_length_b                    16.178156
_cell_length_c                    16.815396
_cell_angle_alpha                 87.049823
_cell_angle_beta                  91.208611
_cell_angle_gamma                 93.385952
_cell_volume                      2890.52297915

loop_
_atom_site_label
_atom_site_type_symbol
_atom_type_description
_atom_site_fract_x
_atom_site_fract_y
_atom_site_fract_z
_atom_type_partial_charge
C1    C     C_R   0.496629 0.488426 0.652615 0.896211
C2    C     C_R   0.511866 0.516176 0.259164 -0.338592
C3    C     C_R   0.496968 0.591278 0.214570 0.265203
C4    C     C_R   0.737849 0.500977 0.499602 0.836967
C5    C     C_R   0.482828 0.589881 0.131082 0.297108
C6    C     C_R   0.418484 0.759778 0.475160 0.420923
C7    C     C_R   0.417378 0.847549 0.480087 0.189268
C8    C     C_R   0.523719 0.892244 0.510503 -0.019627
C9    C     C_R   0.621856 0.847076 0.544011 0.305071
C10   C     C_R   0.615095 0.759736 0.544685 0.329669
C11   C     C_R   0.583650 0.152585 0.512155 0.267262
C12   C     C_R   0.380263 0.519797 0.772500 0.287529
C13   C     C_R   0.577074 0.237043 0.525912 0.405360
C14   C     C_R   0.483792 0.110366 0.470873 0.037272
C15   C     C_R   0.394465 0.245925 0.443177 0.388789
C16   C     C_R   0.505343 0.511200 0.346611 0.975026
C17   C     C_R   0.388371 0.157842 0.436307 0.199604
C18   C     C_R   0.263186 0.498130 0.509617 0.832523
C19   C     C_2   0.072079 0.559406 0.548099 0.312295
C20   C     C_2   0.135071 0.491394 0.538215 0.246918
C21   C     C_2   0.935516 0.548229 0.553932 0.345380
C22   C     C_2   0.871823 0.506034 0.497371 0.305445
C23   C     C_R   0.360616 0.508076 0.853879 0.401596
C24   C     C_R   0.478124 0.478849 0.737690 -0.387106
C25   C     C_3   0.157926 0.502249 0.893361 0.140229
C26   C     C_3   0.056512 0.551692 0.927496 -0.821306
C27   C     C_3   0.335877 0.671133 0.074251 0.102708
C28   C     C_3   0.315630 0.744297 0.015946 -0.737772
C29   C     C_3   0.710190 0.899516 0.656197 0.157794
C30   C     C_3   0.826325 0.945380 0.690051 -0.757426
C31   C     C_3   0.230218 0.885954 0.523134 0.118232
C32   C     C_3   0.110061 0.927267 0.498190 -0.724490
C33   C     C_3   0.285654 0.741333 0.365559 0.198227
C34   C     C_R   0.436566 0.455930 0.900024 -0.083724
C35   C     C_3   0.214982 0.670093 0.325032 -0.766937
C36   C     C_3   0.696515 0.368805 0.260799 0.137869
C37   C     C_3   0.735978 0.298401 0.317558 -0.785697
C38   C     C_3   0.422020 0.312781 0.112776 0.160018
C39   C     C_3   0.428521 0.240834 0.058563 -0.764406
C40   C     C_3   0.716189 0.402448 0.934887 0.204577
C41   C     C_3   0.795469 0.343283 0.984654 -0.800101
C42   C     C_R   0.530980 0.413554 0.865956 0.395410
C43   C     C_R   0.552687 0.424681 0.784570 0.278508
C44   C     C_R   0.511255 0.440967 0.137632 0.295714
C45   C     C_R   0.530486 0.442898 0.219585 0.267161
C46   C     C_R   0.488279 0.515054 0.093236 0.000023
H1    H     H_    0.065551 0.678855 0.549324 0.344978
H2    H     H_    0.213390 0.751985 0.006923 0.201539
H3    H     H_    0.360364 0.801947 0.039629 0.243445
H4    H     H_    0.294200 0.554041 0.673956 0.338432
H5    H     H_    0.637265 0.321374 0.595335 0.380493
H6    H     H_    0.711819 0.075354 0.499230 0.354613
H7    H     H_    0.696547 0.838646 0.689917 0.155941
H8    H     H_    0.627717 0.937015 0.665135 0.145826
H9    H     H_    0.842089 0.006727 0.657932 0.285335
H10   H     H_    0.813372 0.954928 0.754217 0.205162
H11   H     H_    0.910043 0.908703 0.683554 0.245623
H12   H     H_    0.169388 0.445663 0.932862 0.123636
H13   H     H_    0.673790 0.665790 0.604469 0.395972
H14   H     H_    0.284162 0.269045 0.352626 0.326756
H15   H     H_    0.275079 0.919866 0.573326 0.144815
H16   H     H_    0.204190 0.820825 0.543998 0.172189
H17   H     H_    0.062759 0.894415 0.448410 0.253363
H18   H     H_    0.045304 0.925073 0.549226 0.219058
H19   H     H_    0.132087 0.993029 0.478654 0.280525
H20   H     H_    0.214834 0.149230 0.398761 0.338766
H21   H     H_    0.132972 0.369385 0.550084 0.370719
H22   H     H_    0.370794 0.761236 0.330699 0.153037
H23   H     H_    0.125677 0.483621 0.833007 0.165679
H24   H     H_    0.221777 0.793080 0.364747 0.179734
H25   H     H_    0.127203 0.651497 0.357446 0.262615
H26   H     H_    0.190151 0.689744 0.262762 0.182415
H27   H     H_    0.273799 0.615812 0.324612 0.270822
H28   H     H_    0.937684 0.604666 0.652949 0.351687
H29   H     H_    0.868772 0.448907 0.398350 0.325228
H30   H     H_    0.743596 0.427705 0.280803 0.107159
H31   H     H_    0.728877 0.357268 0.200058 0.164322
H32   H     H_    0.839672 0.294896 0.317034 0.216515
H33   H     H_    0.707161 0.309357 0.379012 0.273205
H34   H     H_    0.044068 0.609169 0.889839 0.273624
H35   H     H_    0.690971 0.238552 0.299102 0.248974
H36   H     H_    0.332353 0.343272 0.099108 0.116513
H37   H     H_    0.420649 0.287061 0.175342 0.183851
H38   H     H_    0.348253 0.195209 0.070241 0.195303
H39   H     H_    0.423718 0.263704 0.995252 0.282924
H40   H     H_    0.517737 0.209660 0.069803 0.260066
H41   H     H_    0.699030 0.456106 0.971200 0.141472
H42   H     H_    0.771064 0.424932 0.881640 0.151871
H43   H     H_    0.816869 0.289912 0.949275 0.264780
H44   H     H_    0.885144 0.375939 0.003031 0.184183
H45   H     H_    0.966064 0.514055 0.929043 0.193756
H46   H     H_    0.744226 0.319910 0.038830 0.280784
H47   H     H_    0.681788 0.414418 0.705955 0.343202
H48   H     H_    0.493957 0.712066 0.214359 0.364466
H49   H     H_    0.083018 0.568535 0.989028 0.235894
H50   H     H_    0.291907 0.683115 0.131661 0.125096
H51   H     H_    0.287819 0.614974 0.049142 0.174382
H52   H     H_    0.357380 0.733359 0.957705 0.280572
N1    N     N_2   0.429179 0.453463 0.982788 -0.083800
N2    N     N_2   0.479974 0.517691 0.009421 -0.082410
N3    N     N_R   0.515110 0.716920 0.509720 -0.206533
N4    N     N_2   0.530720 0.980717 0.516805 -0.104247
N5    N     N_2   0.474242 0.021682 0.463437 -0.012342
N6    N     N_R   0.484890 0.283060 0.490290 -0.205522
O1    O     O_R   0.494590 0.422540 0.612660 -0.639333
O2    O     O_3   0.271296 0.551875 0.889401 -0.557376
O3    O     O_3   0.466164 0.662160 0.085448 -0.587970
O4    O     O_3   0.300764 0.570681 0.729641 -0.704240
O5    O     O_3   0.670458 0.272466 0.572810 -0.657565
O6    O     O_3   0.689472 0.114239 0.539609 -0.676024
O7    O     O_3   0.727837 0.888602 0.574516 -0.553993
O8    O     O_3   0.710644 0.719252 0.582654 -0.696413
O9    O     O_3   0.312758 0.296058 0.401869 -0.699065
O10   O     O_3   0.311286 0.888704 0.457573 -0.571685
O11   O     O_3   0.290128 0.116331 0.397534 -0.723513
O12   O     O_R   0.504290 0.561850 0.618900 -0.622455
O13   O     O_3   0.075156 0.414114 0.556393 -0.746548
O14   O     O_3   0.315120 0.715061 0.444837 -0.527926
O15   O     O_3   0.873787 0.579240 0.616516 -0.791244
O16   O     O_3   0.932519 0.476001 0.433693 -0.785699
O17   O     O_3   0.564421 0.371314 0.261170 -0.569112
O18   O     O_3   0.527981 0.368370 0.099854 -0.575372
O19   O     O_3   0.601779 0.360302 0.912927 -0.543463
O20   O     O_3   0.648835 0.383018 0.753860 -0.706275
O21   O     O_3   0.497569 0.664421 0.253520 -0.751844
O22   O     O_R   0.676080 0.430360 0.496880 -0.633001
O23   O     O_R   0.685780 0.569670 0.503120 -0.595326
O24   O     O_R   0.495710 0.438150 0.381100 -0.532790
O25   O     O_R   0.505410 0.577460 0.387340 -0.555225
O26   O     O_R   0.314220 0.430330 0.496880 -0.583563
O27   O     O_R   0.323920 0.569640 0.503120 -0.514141
O28   O     O_3   0.130821 0.637961 0.546314 -0.742465
Zn1   Zn    Zn3+2 0.493520 0.406980 0.495830 1.006346
Zn2   Zn    Zn3+2 0.506480 0.593020 0.504170 1.036115

loop_
_geom_bond_atom_site_label_1
_geom_bond_atom_site_label_2
_ccdc_geom_bond_type
C9    O7    S    
C41   H43   S    
C38   H37   S    
C31   H15   S    
C19   C20   D    
C31   H16   S    
H47   O20   S    
O27   Zn2   S    
C27   H50   S    
C7    C8    A    
N3    Zn2   S    
C22   O16   S    
H28   O15   S    
C37   H33   S    
C12   C23   A    
C7    O10   S    
C36   C37   S    
C19   C21   S    
C39   H38   S    
C36   H31   S    
C38   C39   S    
C11   C14   A    
O12   Zn2   S    
C29   H8    S    
C30   H11   S    
C26   H49   S    
C4    C22   S    
C6    N3    A    
C13   O5    S    
C36   H30   S    
C35   H27   S    
C31   C32   S    
O22   Zn1   S    
C8    C9    A    
C34   C42   A    
C25   O2    S    
C40   H41   S    
C15   O9    S    
C10   O8    S    
C1    O12   A    
C27   O3    S    
C15   N6    A    
C2    C16   S    
C9    C10   A    
C31   O10   S    
C41   H44   S    
C35   H25   S    
C33   O14   S    
H5    O5    S    
C21   C22   D    
C38   H36   S    
C11   O6    S    
H4    O4    S    
C14   C17   A    
C37   H35   S    
C18   O27   A    
C20   O13   S    
C44   C46   A    
C42   O19   S    
H13   O8    S    
C2    C45   A    
N6    Zn1   S    
C32   H18   S    
H20   O11   S    
C12   O4    S    
C45   O17   S    
C26   H45   S    
C23   O2    S    
C30   H10   S    
C26   H34   S    
C29   C30   S    
C16   O24   A    
C28   H3    S    
N1    N2    D    
H6    O6    S    
C23   C34   A    
H14   O9    S    
C34   N1    S    
C13   N6    A    
C16   O25   A    
H21   O13   S    
C38   O18   S    
C5    C46   A    
C33   H24   S    
C40   C41   S    
C35   H26   S    
C18   O26   A    
O26   Zn1   S    
C25   H23   S    
C42   C43   A    
C39   H39   S    
C44   C45   A    
C17   O11   S    
O1    Zn1   S    
C5    O3    S    
H48   O21   S    
C28   H52   S    
C19   O28   S    
C15   C17   A    
C40   O19   S    
C46   N2    S    
C27   H51   S    
O23   Zn2   S    
C4    O23   A    
C29   O7    S    
C10   N3    A    
H29   O16   S    
C32   H17   S    
C3    C5    A    
C3    O21   S    
C6    C7    A    
C30   H9    S    
C12   C24   A    
C4    O22   A    
H1    O28   S    
C40   H42   S    
C36   O17   S    
C25   C26   S    
C21   O15   S    
O24   Zn1   S    
C11   C13   A    
C14   N5    S    
C29   H7    S    
C44   O18   S    
C33   C35   S    
C28   H2    S    
C2    C3    A    
C18   C20   S    
N4    N5    D    
O25   Zn2   S    
C41   H46   S    
C1    C24   S    
C25   H12   S    
C27   C28   S    
C24   C43   A    
C39   H40   S    
C37   H32   S    
C8    N4    S    
C43   O20   S    
C6    O14   S    
C33   H22   S    
C1    O1    A    
C32   H19   S    
