data_mof_unit_39204.cif
_audit_creation_date              2013-03-05T15:39:43-0500
_audit_creation_method            fapswitch 2.2
_symmetry_space_group_name_H-M    P1
_symmetry_Int_Tables_number       1
_space_group_crystal_system       triclinic
_cell_length_a                    19.681699
_cell_length_b                    17.062103
_cell_length_c                    15.63433
_cell_angle_alpha                 89.999774
_cell_angle_beta                  52.784305
_cell_angle_gamma                 90.00006
_cell_volume                      4181.0579455

loop_
_atom_site_label
_atom_site_type_symbol
_atom_site_description
_atom_site_fract_x
_atom_site_fract_y
_atom_site_fract_z
_atom_type_partial_charge
C1    C     C_R   0.332651 0.166159 0.059165 -0.012848
C2    C     C_R   0.624960 0.802137 0.006805 -0.036818
C3    C     C_R   0.667349 0.166162 0.940836 -0.012832
C4    C     C_R   0.375056 0.802134 0.993176 -0.037017
C5    C     C_R   0.832642 0.666144 0.059184 -0.012784
C6    C     C_R   0.124948 0.302135 0.006821 -0.037002
C7    C     C_R   0.167341 0.666175 0.940850 -0.012875
C8    C     C_R   0.875055 0.302134 0.993176 -0.036997
H1    H     H_    0.311906 0.204489 0.125108 0.154399
H2    H     H_    0.614533 0.746242 0.985136 0.179912
H3    H     H_    0.688092 0.204494 0.874896 0.154389
H4    H     H_    0.385501 0.746237 0.014822 0.180008
H5    H     H_    0.811885 0.704449 0.125155 0.154478
H6    H     H_    0.114505 0.246238 0.985172 0.179983
H7    H     H_    0.188069 0.704529 0.874934 0.154374
H8    H     H_    0.885500 0.246237 0.014821 0.179997
N1    N     N_R   0.408680 0.130810 0.995780 -0.053828
N2    N     N_R   0.591320 0.869190 0.004220 -0.064192
N3    N     N_R   0.591320 0.130810 0.004220 -0.053828
N4    N     N_R   0.408680 0.869190 0.995780 -0.064227
N5    N     N_R   0.908680 0.630810 0.995780 -0.053832
N6    N     N_R   0.091320 0.369190 0.004220 -0.064214
N7    N     N_R   0.091320 0.630810 0.004220 -0.053843
N8    N     N_R   0.908680 0.369190 0.995780 -0.064220
C9    C     C_R   0.353528 0.822676 0.220061 0.296035
C10   C     C_R   0.602576 0.199622 0.789283 0.316443
C11   C     C_R   0.646440 0.822644 0.779927 0.296512
C12   C     C_R   0.397429 0.199623 0.210714 0.316456
C13   C     C_R   0.853523 0.322680 0.220061 0.296056
C14   C     C_R   0.102580 0.699620 0.789283 0.316435
C15   C     C_R   0.146469 0.322673 0.779938 0.296089
C16   C     C_R   0.897485 0.699635 0.210686 0.316606
N9    N     N_R   0.421410 0.867210 0.153620 -0.094304
N10   N     N_R   0.578590 0.132790 0.846380 -0.096042
N11   N     N_R   0.578590 0.867210 0.846380 -0.094370
N12   N     N_R   0.421410 0.132790 0.153620 -0.096056
N13   N     N_R   0.921410 0.367210 0.153620 -0.094296
N14   N     N_R   0.078590 0.632790 0.846380 -0.096047
N15   N     N_R   0.078590 0.367210 0.846380 -0.094300
N16   N     N_R   0.921410 0.632790 0.153620 -0.096081
C17   C     C_R   0.364865 0.889578 0.897877 -0.105014
C18   C     C_R   0.671226 0.084437 0.047406 -0.095486
C19   C     C_R   0.635145 0.889580 0.102110 -0.104938
C20   C     C_R   0.328774 0.084436 0.952594 -0.095559
C21   C     C_R   0.864863 0.389579 0.897880 -0.104989
C22   C     C_R   0.171226 0.584439 0.047406 -0.095505
C23   C     C_R   0.135138 0.389579 0.102118 -0.104988
C24   C     C_R   0.828772 0.584433 0.952598 -0.095576
H9    H     H_    0.361117 0.915744 0.837815 0.135494
H10   H     H_    0.689897 0.051889 0.089499 0.139602
H11   H     H_    0.638896 0.915746 0.162171 0.135487
H12   H     H_    0.310103 0.051889 0.910501 0.139608
H13   H     H_    0.861113 0.415745 0.837819 0.135501
H14   H     H_    0.189899 0.551888 0.089494 0.139603
H15   H     H_    0.138889 0.415745 0.162179 0.135503
H16   H     H_    0.810104 0.551889 0.910500 0.139604
N17   N     N_R   0.403840 0.921910 0.935760 -0.058119
N18   N     N_R   0.596160 0.078090 0.064240 -0.064458
N19   N     N_R   0.596160 0.921910 0.064240 -0.058108
N20   N     N_R   0.403840 0.078090 0.935760 -0.064457
N21   N     N_R   0.903840 0.421910 0.935760 -0.058118
N22   N     N_R   0.096160 0.578090 0.064240 -0.064451
N23   N     N_R   0.096160 0.421910 0.064240 -0.058118
N24   N     N_R   0.903840 0.578090 0.935760 -0.064452
C25   C     C_R   0.403099 0.106262 0.305761 -0.135703
C26   C     C_R   0.641688 0.918014 0.684406 -0.158042
C27   C     C_R   0.596909 0.106260 0.694234 -0.135617
C28   C     C_R   0.358278 0.918046 0.315581 -0.157837
C29   C     C_R   0.903149 0.606275 0.305733 -0.135721
C30   C     C_R   0.141719 0.418042 0.684417 -0.157839
C31   C     C_R   0.096912 0.606260 0.694233 -0.135690
C32   C     C_R   0.858273 0.418050 0.315580 -0.157843
H17   H     H_    0.408777 0.076841 0.362410 0.131277
H18   H     H_    0.653298 0.952911 0.619144 0.140982
H19   H     H_    0.591233 0.076839 0.637583 0.131256
H20   H     H_    0.346658 0.952948 0.380843 0.140981
H21   H     H_    0.908827 0.576848 0.362378 0.131313
H22   H     H_    0.153338 0.452943 0.619154 0.140982
H23   H     H_    0.091235 0.576840 0.637582 0.131282
H24   H     H_    0.846651 0.452956 0.380841 0.140994
N25   N     N_R   0.426250 0.076100 0.213650 -0.064870
N26   N     N_R   0.573750 0.923900 0.786350 -0.069711
N27   N     N_R   0.573750 0.076100 0.786350 -0.064846
N28   N     N_R   0.426250 0.923900 0.213650 -0.069715
N29   N     N_R   0.926250 0.576100 0.213650 -0.064865
N30   N     N_R   0.073750 0.423900 0.786350 -0.069704
N31   N     N_R   0.073750 0.576100 0.786350 -0.064865
N32   N     N_R   0.926250 0.423900 0.213650 -0.069707
C33   C     C_R   0.282546 0.141069 0.030328 0.090394
C34   C     C_R   0.653376 0.813229 0.067295 0.091321
C35   C     C_R   0.717454 0.141071 0.969673 0.090425
C36   C     C_R   0.346644 0.813224 0.932681 0.091317
C37   C     C_R   0.782540 0.641059 0.030341 0.090404
C38   C     C_R   0.153363 0.313225 0.067311 0.091309
C39   C     C_R   0.217449 0.641079 0.969680 0.090405
C40   C     C_R   0.846640 0.313225 0.932685 0.091302
C41   C     C_R   0.311370 0.855060 0.321700 0.007414
C42   C     C_R   0.615629 0.183265 0.693880 -0.020619
C43   C     C_R   0.688575 0.855011 0.678285 0.007972
C44   C     C_R   0.384383 0.183268 0.306113 -0.020592
C45   C     C_R   0.811363 0.355066 0.321700 0.007433
C46   C     C_R   0.115636 0.683264 0.693878 -0.020568
C47   C     C_R   0.188626 0.355055 0.678298 0.007458
C48   C     C_R   0.884477 0.683291 0.306063 -0.020637
Ni1   Ni    Ni4+2 0.500000 0.131570 0.000000 0.333979
Ni2   Ni    Ni4+2 0.500000 0.868430 0.000000 0.298113
Ni3   Ni    Ni4+2 1.000000 0.631570 0.000000 0.333968
Ni4   Ni    Ni4+2 0.000000 0.368430 0.000000 0.298081
Ni5   Ni    Ni4+2 0.488900 1.000000 0.862310 0.223799
Ni6   Ni    Ni4+2 0.511100 0.000000 0.137690 0.223800
Ni7   Ni    Ni4+2 0.988900 0.500000 0.862310 0.223788
Ni8   Ni    Ni4+2 0.011100 0.500000 0.137690 0.223794
C49   C     C_3   0.306729 0.199815 0.512754 -0.150792
C50   C     C_3   0.786575 0.847818 0.465990 -0.126745
C51   C     C_3   0.693273 0.199819 0.487241 -0.150802
C52   C     C_3   0.213451 0.847816 0.534002 -0.126618
C53   C     C_3   0.806733 0.699803 0.512717 -0.150783
C54   C     C_3   0.286559 0.347817 0.465997 -0.126679
C55   C     C_3   0.193279 0.699816 0.487239 -0.150766
C56   C     C_3   0.713435 0.347823 0.534003 -0.126664
C57   C     C_3   0.720875 0.738830 0.554609 -0.279032
C58   C     C_3   0.373003 0.308248 0.422766 -0.256578
C59   C     C_3   0.279145 0.738857 0.445288 -0.278995
C60   C     C_3   0.626992 0.308246 0.577239 -0.256569
C61   C     C_3   0.220864 0.238855 0.554698 -0.278966
C62   C     C_3   0.873013 0.808264 0.422820 -0.256702
C63   C     C_3   0.779136 0.238865 0.445293 -0.278973
C64   C     C_3   0.127005 0.808243 0.577241 -0.256504
H25   H     H_    0.314904 0.140098 0.533464 0.194977
H26   H     H_    0.778422 0.907983 0.446446 0.203605
H27   H     H_    0.685102 0.140101 0.466529 0.194976
H28   H     H_    0.221604 0.907974 0.553565 0.203615
H29   H     H_    0.814904 0.640082 0.533422 0.194965
H30   H     H_    0.278406 0.407976 0.446435 0.203618
H31   H     H_    0.185103 0.640099 0.466527 0.194986
H32   H     H_    0.721584 0.407982 0.553567 0.203626
C65   C     C_3   0.749153 0.814426 0.578540 -0.094671
C66   C     C_3   0.343769 0.232817 0.400019 -0.088939
C67   C     C_3   0.250807 0.814468 0.421452 -0.094777
C68   C     C_3   0.656236 0.232817 0.599976 -0.088946
C69   C     C_3   0.249194 0.314464 0.578547 -0.094754
C70   C     C_3   0.843833 0.732837 0.399979 -0.088671
C71   C     C_3   0.750797 0.314473 0.421452 -0.094764
C72   C     C_3   0.156247 0.732812 0.599973 -0.088945
C73   C     C_3   0.334788 0.276607 0.535331 0.401452
C74   C     C_3   0.758291 0.771266 0.443832 0.358960
C75   C     C_3   0.665205 0.276609 0.464672 0.401450
C76   C     C_3   0.241791 0.771254 0.556061 0.359061
C77   C     C_3   0.834740 0.776585 0.535382 0.401400
C78   C     C_3   0.258225 0.271257 0.443925 0.359047
C79   C     C_3   0.165214 0.776608 0.464674 0.401470
C80   C     C_3   0.741777 0.271264 0.556067 0.359059
C81   C     C_2   0.291258 0.682432 0.947312 -0.107297
C82   C     C_2   0.809791 0.254584 0.904446 -0.145492
C83   C     C_2   0.708740 0.682426 0.052699 -0.107322
C84   C     C_2   0.190212 0.254585 0.095550 -0.145472
C85   C     C_2   0.791259 0.182429 0.947308 -0.107290
C86   C     C_2   0.309800 0.754583 0.904438 -0.145499
C87   C     C_2   0.208741 0.182428 0.052692 -0.107317
C88   C     C_2   0.690232 0.754591 0.095528 -0.145459
H33   H     H_    0.316904 0.660871 0.987704 0.166940
H34   H     H_    0.784957 0.276181 0.863128 0.175809
H35   H     H_    0.683072 0.660859 0.012336 0.166921
H36   H     H_    0.215049 0.276182 0.136865 0.175813
H37   H     H_    0.816912 0.160866 0.987691 0.166939
H38   H     H_    0.284976 0.776177 0.863107 0.175794
H39   H     H_    0.183086 0.160866 0.012311 0.166936
H40   H     H_    0.715086 0.776194 0.136822 0.175853
N33   N     N_R   0.348399 0.742725 0.197000 0.207253
O1    O     O_R   0.417890 0.701590 0.136301 -0.374165
O2    O     O_R   0.275271 0.710402 0.235917 -0.365671
N34   N     N_R   0.595274 0.277018 0.831447 0.242467
O3    O     O_R   0.577949 0.286760 0.924982 -0.346387
O4    O     O_R   0.605131 0.339268 0.777260 -0.343389
N35   N     N_R   0.651559 0.742693 0.803001 0.207249
O5    O     O_R   0.582061 0.701571 0.863728 -0.374186
O6    O     O_R   0.724690 0.710346 0.764026 -0.365700
N36   N     N_R   0.404731 0.277019 0.168549 0.242474
O7    O     O_R   0.422043 0.286761 0.075021 -0.346382
O8    O     O_R   0.394886 0.339269 0.222729 -0.343392
N37   N     N_R   0.848388 0.242730 0.197003 0.207251
O9    O     O_R   0.917874 0.201588 0.136310 -0.374168
O10   O     O_R   0.775256 0.210413 0.235922 -0.365714
N38   N     N_R   0.095275 0.777013 0.831453 0.242424
O11   O     O_R   0.077870 0.786745 0.925033 -0.346386
O12   O     O_R   0.105200 0.839267 0.777235 -0.343332
N39   N     N_R   0.151599 0.242723 0.803002 0.207251
O13   O     O_R   0.082108 0.201588 0.863706 -0.374174
O14   O     O_R   0.224730 0.210394 0.764061 -0.365710
N40   N     N_R   0.904819 0.777033 0.168507 0.242595
O15   O     O_R   0.921954 0.786786 0.075077 -0.346372
O16   O     O_R   0.895184 0.839276 0.222582 -0.343346
C89   C     C_2   0.634870 0.700577 0.623870 0.788404
H41   H     H_    0.578217 0.734231 0.651562 -0.024858
O17   O     O_2   0.628258 0.631767 0.649064 -0.487824
C90   C     C_2   0.460171 0.343491 0.350040 0.816668
H42   H     H_    0.515878 0.307270 0.318803 0.032877
O18   O     O_2   0.468875 0.412626 0.325524 -0.483442
C91   C     C_2   0.365153 0.700614 0.375974 0.788600
H43   H     H_    0.421812 0.734277 0.348230 -0.024949
O19   O     O_2   0.371759 0.631799 0.350801 -0.487793
C92   C     C_2   0.539822 0.343482 0.649974 0.816688
H44   H     H_    0.484117 0.307258 0.681207 0.032865
O20   O     O_2   0.531113 0.412615 0.674498 -0.483427
C93   C     C_2   0.134857 0.200609 0.624006 0.788574
H45   H     H_    0.078198 0.234270 0.651742 -0.024921
O21   O     O_2   0.128250 0.131794 0.649182 -0.487793
C94   C     C_2   0.960173 0.843533 0.350199 0.816026
H46   H     H_    0.015882 0.807314 0.318962 0.033183
O22   O     O_2   0.968871 0.912685 0.325762 -0.483440
C95   C     C_2   0.865146 0.200625 0.375982 0.788592
H47   H     H_    0.921802 0.234291 0.348241 -0.024936
O23   O     O_2   0.871756 0.131810 0.350809 -0.487792
C96   C     C_2   0.039836 0.843481 0.649977 0.816242
H48   H     H_    0.984132 0.807263 0.681184 0.033053
O24   O     O_2   0.031127 0.912608 0.674528 -0.483358
N41   N     N_R   0.377561 0.283047 0.585129 0.252105
O25   O     O_R   0.405806 0.220663 0.602114 -0.360578
O26   O     O_R   0.392332 0.351803 0.606544 -0.370632
N42   N     N_R   0.715068 0.767037 0.394216 0.230853
O27   O     O_R   0.696515 0.830851 0.366852 -0.364078
O28   O     O_R   0.692487 0.699480 0.380234 -0.395471
N43   N     N_R   0.622422 0.283048 0.414887 0.252095
O29   O     O_R   0.594217 0.220661 0.397851 -0.360548
O30   O     O_R   0.607570 0.351806 0.393577 -0.370670
N44   N     N_R   0.285081 0.766999 0.605590 0.230898
O31   O     O_R   0.303684 0.830801 0.632916 -0.364064
O32   O     O_R   0.307663 0.699431 0.619541 -0.395310
N45   N     N_R   0.877407 0.782984 0.585318 0.252186
O33   O     O_R   0.906147 0.720621 0.601636 -0.360784
O34   O     O_R   0.891166 0.851717 0.608099 -0.370627
N46   N     N_R   0.214943 0.267007 0.394385 0.230892
O35   O     O_R   0.196351 0.330812 0.367049 -0.364040
O36   O     O_R   0.192359 0.199440 0.380433 -0.395331
N47   N     N_R   0.122428 0.783058 0.414894 0.251975
O37   O     O_R   0.094289 0.720669 0.397762 -0.360425
O38   O     O_R   0.107475 0.851819 0.393729 -0.371169
N48   N     N_R   0.785064 0.267016 0.605599 0.230895
O39   O     O_R   0.803654 0.330822 0.632937 -0.364039
O40   O     O_R   0.807654 0.199451 0.619547 -0.395287

loop_
_geom_bond_atom_site_label_1
_geom_bond_atom_site_label_2
_geom_bond_distance
_ccdc_geom_bond_type
N16   N29   1.390548 A    
N25   Ni6   1.867121 S    
C27   N27   1.323857 A    
N8    N21   1.344197 A    
C51   C75   1.543388 S    
C2    N2    1.334628 A    
N33   O2    1.298679 A    
N33   O1    1.301447 A    
C70   C74   1.529125 S    
N13   N32   1.390552 A    
C29   H21   1.081026 S    
N43   O29   1.300388 A    
C8    C40   1.372141 A    
C3    H3    1.071507 S    
C2    H2    1.072625 S    
C72   C76   1.529062 S    
N29   Ni8   1.867121 S    
C53   H29   1.109916 S    
C55   C59   1.545686 S    
C18   N18   1.339190 A    
C31   H23   1.081027 S    
N36   O7    1.295842 A    
C25   H17   1.081027 S    
N35   O6    1.298733 A    
C51   H27   1.109916 S    
N37   O9    1.301444 A    
C66   C78   1.529070 S    
C88   H40   1.083474 S    
C71   C75   1.528033 S    
C11   C43   1.387025 A    
N40   O15   1.295856 A    
C92   O20   1.219945 D    
C22   N22   1.339186 A    
C85   H37   1.083732 S    
C36   C86   1.452324 S    
C30   H22   1.079696 S    
C20   N20   1.339189 A    
C23   N23   1.339069 A    
C50   C62   1.554447 S    
C62   C77   1.533955 S    
C96   O24   1.219944 D    
C24   N24   1.339191 A    
N31   Ni7   1.867111 S    
C32   C45   1.381888 A    
C57   C65   1.537951 S    
C6    N6    1.334624 A    
C59   C67   1.538071 S    
N14   Ni3   1.915094 S    
N19   Ni6   1.889748 S    
C51   C63   1.545688 S    
N38   O11   1.295851 A    
C14   N14   1.345421 A    
C3    C35   1.377259 A    
C18   C35   1.378753 A    
C54   C58   1.554456 S    
C50   C65   1.547796 S    
C49   C73   1.543387 S    
C81   C86   1.342413 D    
C54   C78   1.539216 S    
C53   C57   1.545688 S    
C28   C41   1.381876 A    
N5    N24   1.344202 A    
C57   C74   1.518334 S    
N20   Ni5   1.889748 S    
C27   C42   1.363653 A    
N6    N23   1.344200 A    
C78   N46   1.459070 S    
C10   N10   1.345448 A    
N7    N22   1.344196 A    
C40   C82   1.452335 S    
C22   C39   1.378761 A    
C95   H47   1.084656 S    
C62   C94   1.495992 S    
C94   H46   1.083902 S    
C6    C38   1.372140 A    
N47   O38   1.300123 A    
C1    C33   1.377259 A    
N47   O37   1.300391 A    
C16   C48   1.380234 A    
C3    N3    1.338372 A    
N8    Ni4   1.838035 S    
C4    H4    1.072623 S    
C80   N48   1.459069 S    
C68   C80   1.529064 S    
C5    H5    1.071527 S    
C54   H30   1.110052 S    
C38   C84   1.452337 S    
C19   N19   1.339067 A    
C52   C67   1.547803 S    
C74   N42   1.459069 S    
C5    C37   1.377258 A    
C54   C69   1.547807 S    
N22   Ni8   1.889738 S    
C7    H7    1.071508 S    
C83   C88   1.342427 D    
C21   H13   1.081827 S    
C91   H43   1.084656 S    
C8    H8    1.072622 S    
N18   Ni6   1.889738 S    
C55   C72   1.549435 S    
C50   H26   1.110050 S    
C65   C77   1.528005 S    
C56   C71   1.547806 S    
C46   C72   1.445516 S    
N7    Ni3   1.838033 S    
C47   C69   1.443625 S    
N42   O28   1.300561 A    
N42   O27   1.300319 A    
C32   N32   1.326826 A    
N11   N26   1.390551 A    
N34   O4    1.297922 A    
C33   C87   1.454622 S    
N4    Ni2   1.838035 S    
C93   O21   1.220033 D    
N3    N18   1.344196 A    
C55   C79   1.543385 S    
N15   Ni4   1.915094 S    
C60   C75   1.534017 S    
N48   O40   1.300564 A    
C56   C80   1.539217 S    
C19   C34   1.373269 A    
N39   O14   1.298706 A    
C24   C37   1.378752 A    
N9    Ni2   1.915094 S    
C13   C45   1.387081 A    
C28   N28   1.326815 A    
N26   Ni5   1.867121 S    
C37   C83   1.454627 S    
C12   N12   1.345451 A    
C76   N44   1.459070 S    
C50   C74   1.539220 S    
N13   Ni4   1.915094 S    
C90   O18   1.219944 D    
C92   H44   1.083908 S    
N37   O10   1.298693 A    
C61   C69   1.538061 S    
C52   C76   1.539218 S    
C96   H48   1.083905 S    
C44   C66   1.445542 S    
N24   Ni7   1.889748 S    
C83   H35   1.083734 S    
N41   O25   1.300409 A    
C93   H45   1.084659 S    
C62   C70   1.536775 S    
C55   H31   1.109915 S    
C60   C68   1.536687 S    
C60   C92   1.496027 S    
C56   H32   1.110051 S    
C5    N5    1.338381 A    
C4    N4    1.334619 A    
C26   C43   1.381849 A    
C15   C47   1.387072 A    
N2    Ni2   1.838033 S    
N45   O33   1.300700 A    
C29   N29   1.323868 A    
N1    Ni1   1.838035 S    
C63   C80   1.518306 S    
C26   N26   1.326794 A    
N17   Ni5   1.889740 S    
C64   C79   1.534017 S    
C25   N25   1.323862 A    
N35   O5    1.301444 A    
C52   H28   1.110050 S    
N12   N25   1.390548 A    
C1    H1    1.071508 S    
C22   H14   1.081227 S    
C89   O17   1.220030 D    
C16   N40   1.443771 S    
C63   C71   1.538072 S    
C30   N30   1.326823 A    
C51   C68   1.549433 S    
C64   C72   1.536674 S    
C58   C66   1.536692 S    
N5    Ni3   1.838035 S    
C13   N37   1.430054 S    
C14   C46   1.380262 A    
C82   C85   1.342421 D    
N16   Ni3   1.915095 S    
C31   N31   1.323854 A    
N3    Ni1   1.838033 S    
C63   C95   1.498889 S    
C95   O23   1.220034 D    
C31   C46   1.363649 A    
C10   C42   1.380266 A    
C89   H41   1.084656 S    
N44   O32   1.300559 A    
C4    C36   1.372139 A    
C13   N13   1.327643 A    
C48   C70   1.445575 S    
C27   H19   1.081027 S    
N10   N27   1.390555 A    
C11   N35   1.430069 S    
C57   C89   1.498877 S    
C82   H34   1.083471 S    
C91   O19   1.220033 D    
C75   N43   1.455939 S    
N34   O3    1.295839 A    
C86   H38   1.083467 S    
C23   H15   1.081829 S    
C29   C48   1.363638 A    
C9    N33   1.430057 S    
C24   H16   1.081226 S    
N48   O39   1.300337 A    
N40   O16   1.297922 A    
C2    C34   1.372155 A    
C18   H10   1.081228 S    
N12   Ni1   1.915095 S    
N23   Ni8   1.889748 S    
N10   Ni1   1.915094 S    
C14   N38   1.443743 S    
C58   C73   1.534010 S    
C84   C87   1.342424 D    
C9    C41   1.387080 A    
C25   C44   1.363650 A    
C58   C90   1.496025 S    
C90   H42   1.083909 S    
C61   C93   1.498888 S    
N46   O36   1.300568 A    
C20   H12   1.081227 S    
C59   C91   1.498891 S    
N36   O8    1.297924 A    
N43   O30   1.300201 A    
C79   N47   1.455932 S    
C69   C73   1.528031 S    
C28   H20   1.079697 S    
C17   H9    1.081829 S    
C7    C39   1.377266 A    
N27   Ni5   1.867112 S    
C10   N34   1.443764 S    
C1    N1    1.338373 A    
N38   O12   1.297924 A    
N14   N31   1.390556 A    
C11   N11   1.327651 A    
C53   C70   1.549428 S    
C77   N45   1.455919 S    
C6    H6    1.072621 S    
N45   O34   1.300827 A    
N11   Ni2   1.915094 S    
C45   C71   1.443636 S    
C12   C44   1.380261 A    
C67   C79   1.528019 S    
C7    N7    1.338358 A    
C39   C81   1.454608 S    
C19   H11   1.081828 S    
N21   Ni7   1.889740 S    
N6    Ni4   1.838033 S    
C49   C61   1.545691 S    
C21   N21   1.339065 A    
N46   O35   1.300348 A    
C8    N8    1.334623 A    
C23   C38   1.373263 A    
C87   H39   1.083733 S    
N30   Ni7   1.867122 S    
C16   N16   1.345487 A    
C34   C88   1.452341 S    
N41   O26   1.300227 A    
N9    N28   1.390553 A    
N28   Ni6   1.867113 S    
C35   C85   1.454619 S    
C32   H24   1.079702 S    
C9    N9    1.327634 A    
C61   C78   1.518308 S    
N1    N20   1.344202 A    
C17   N17   1.339061 A    
N32   Ni8   1.867114 S    
N2    N19   1.344200 A    
N39   O13   1.301447 A    
C17   C36   1.373254 A    
C73   N41   1.455939 S    
C59   C76   1.518305 S    
C84   H36   1.083469 S    
C94   O22   1.219944 D    
N44   O31   1.300334 A    
C52   C64   1.554454 S    
C81   H33   1.083733 S    
C15   N15   1.327642 A    
C42   C68   1.445545 S    
C49   C66   1.549434 S    
C43   C65   1.443553 S    
C53   C77   1.543359 S    
N15   N30   1.390550 A    
C15   N39   1.430058 S    
N4    N17   1.344197 A    
C49   H25   1.109916 S    
C21   C40   1.373259 A    
C12   N36   1.443765 S    
C41   C67   1.443613 S    
C20   C33   1.378753 A    
C56   C60   1.554456 S    
C64   C96   1.496029 S    
C30   C47   1.381882 A    
C26   H18   1.079700 S    
