data_mof_unit_13170.cif
_audit_creation_date              2012-12-11T14:52:30-0500
_audit_creation_method            fapswitch 2.2
_symmetry_space_group_name_H-M    P1
_symmetry_Int_Tables_number       1
_space_group_crystal_system       triclinic
_cell_length_a                    18.823884
_cell_length_b                    10.934517
_cell_length_c                    18.819647
_cell_angle_alpha                 89.932633
_cell_angle_beta                  91.328161
_cell_angle_gamma                 89.924593
_cell_volume                      3872.60256356

loop_
_atom_site_label
_atom_site_type_symbol
_atom_type_description
_atom_site_fract_x
_atom_site_fract_y
_atom_site_fract_z
_atom_type_partial_charge
C1    C     C_R   0.271697 0.044829 0.852890 0.522562
C2    C     C_R   0.724871 0.037961 0.144146 0.531073
C3    C     C_R   0.771662 0.543932 0.853081 0.520767
C4    C     C_R   0.228300 0.545022 0.147119 0.521511
C5    C     C_3   0.536476 0.736415 0.971682 -0.107216
C6    C     C_3   0.477485 0.720688 0.026617 -0.099402
C7    C     C_3   0.033056 0.231431 0.972183 -0.114579
C8    C     C_3   0.973245 0.226089 0.026842 -0.113573
C9    C     C_R   0.306980 0.544952 0.966546 -0.156949
C10   C     C_R   0.700358 0.528508 0.036458 -0.138432
C11   C     C_R   0.808630 0.052865 0.965807 -0.138038
C12   C     C_R   0.193694 0.043779 0.033775 -0.153366
C13   C     C_R   0.302038 0.531369 0.039912 -0.154635
C14   C     C_R   0.704572 0.513716 0.963178 -0.147083
C15   C     C_R   0.800296 0.037140 0.038461 -0.156871
C16   C     C_R   0.198748 0.029364 0.960502 -0.155674
C17   C     C_R   0.247119 0.589599 0.076502 -0.018319
C18   C     C_R   0.751490 0.586074 0.923638 -0.024399
C19   C     C_R   0.735692 0.067833 0.069577 -0.003908
C20   C     C_R   0.252643 0.089373 0.923400 -0.017596
C21   C     C_R   0.199825 0.668859 0.038995 0.002393
C22   C     C_R   0.790869 0.679752 0.957892 0.000453
C23   C     C_R   0.678345 0.113641 0.026032 -0.007632
C24   C     C_R   0.298833 0.170923 0.960307 0.003419
C25   C     C_R   0.201547 0.671702 0.965662 -0.109331
C26   C     C_R   0.788199 0.689818 0.031079 -0.104938
C27   C     C_R   0.685992 0.117219 0.953546 -0.120923
C28   C     C_R   0.296859 0.175400 0.033614 -0.109422
C29   C     C_R   0.254761 0.610579 0.928692 -0.019241
C30   C     C_R   0.744186 0.613709 0.070954 -0.012679
C31   C     C_R   0.750982 0.091553 0.923150 -0.013998
C32   C     C_R   0.244870 0.112149 0.071074 -0.016771
C33   C     C_R   0.500467 0.723521 0.536712 -0.157413
C34   C     C_R   0.502011 0.723349 0.464145 -0.157520
C35   C     C_R   0.000503 0.223524 0.536723 -0.157375
C36   C     C_R   0.002048 0.223348 0.464157 -0.157064
C37   C     C_R   0.503803 0.833088 0.425951 -0.013074
C38   C     C_R   0.497147 0.833375 0.574472 -0.012673
C39   C     C_R   0.003821 0.333084 0.425959 -0.012259
C40   C     C_R   0.997161 0.333379 0.574479 -0.012557
C41   C     C_R   0.499514 0.946506 0.462398 0.021092
C42   C     C_R   0.500609 0.946694 0.537686 0.021358
C43   C     C_R   0.999525 0.446504 0.462403 0.021044
C44   C     C_R   0.000613 0.446697 0.537691 0.021206
C45   C     C_R   0.470528 0.821533 0.855618 0.544279
C46   C     C_R   0.529186 0.821753 0.144409 0.542728
C47   C     C_R   0.971165 0.321792 0.855346 0.544952
C48   C     C_R   0.029209 0.321867 0.144411 0.548212
C49   C     C_R   0.208914 0.688206 0.525226 -0.088628
C50   C     C_R   0.790693 0.688749 0.474806 -0.088225
C51   C     C_R   0.708895 0.188163 0.525236 -0.088722
C52   C     C_R   0.290705 0.188725 0.474801 -0.087858
C53   C     C_R   0.209794 0.681566 0.452668 -0.109451
C54   C     C_R   0.789742 0.682129 0.547368 -0.109270
C55   C     C_R   0.709777 0.181532 0.452680 -0.109159
C56   C     C_R   0.289753 0.182111 0.547363 -0.109136
C57   C     C_R   0.253031 0.595088 0.420760 0.027347
C58   C     C_R   0.746770 0.595399 0.579309 0.027222
C59   C     C_R   0.753022 0.095070 0.420768 0.026879
C60   C     C_R   0.246774 0.095393 0.579306 0.027304
C61   C     C_R   0.304376 0.530467 0.461004 -0.138962
C62   C     C_R   0.695603 0.530658 0.539106 -0.139213
C63   C     C_R   0.804371 0.030454 0.461010 -0.139608
C64   C     C_R   0.195603 0.030660 0.539104 -0.139176
C65   C     C_R   0.305556 0.540721 0.534284 -0.144888
C66   C     C_R   0.694478 0.540895 0.465828 -0.144987
C67   C     C_R   0.805550 0.040701 0.534291 -0.144839
C68   C     C_R   0.194479 0.040891 0.465825 -0.145308
C69   C     C_R   0.255653 0.615964 0.566650 0.041805
C70   C     C_R   0.744237 0.616258 0.433432 0.042157
C71   C     C_R   0.755642 0.115934 0.566658 0.042292
C72   C     C_R   0.244243 0.116242 0.433427 0.042185
C73   C     C_R   0.261954 0.640834 0.853631 0.542178
C74   C     C_R   0.737892 0.641573 0.146262 0.547326
C75   C     C_R   0.760955 0.136126 0.851568 0.541617
C76   C     C_R   0.237903 0.141554 0.146216 0.542887
C77   C     C_R   0.269769 0.048753 0.647472 0.543170
C78   C     C_R   0.730200 0.048681 0.352557 0.550246
C79   C     C_R   0.769768 0.548756 0.647474 0.542263
C80   C     C_R   0.230202 0.548687 0.352554 0.543373
C81   C     C_R   0.470667 0.824097 0.647037 0.560840
C82   C     C_R   0.529547 0.824044 0.353106 0.562800
C83   C     C_R   0.970669 0.324098 0.647038 0.560897
C84   C     C_R   0.029552 0.324043 0.353109 0.562623
C85   C     C_R   0.261085 0.641862 0.641452 0.562701
C86   C     C_R   0.738896 0.641960 0.358583 0.564475
C87   C     C_R   0.761081 0.141848 0.641457 0.560563
C88   C     C_R   0.238899 0.141951 0.358580 0.562944
C89   C     C_3   0.461198 0.920421 0.028665 -0.121108
C90   C     C_3   0.519987 0.936059 0.973033 -0.122220
C91   C     C_3   0.967714 0.427644 0.027764 -0.100537
C92   C     C_3   0.027445 0.433014 0.972427 -0.099778
C93   C     C_3   0.429767 0.812454 0.985280 -0.107123
C94   C     C_3   0.567915 0.844411 0.014670 -0.132516
C95   C     C_3   0.930830 0.324192 0.984783 -0.116534
C96   C     C_3   0.069932 0.334858 0.014875 -0.113126
C97   C     C_3   0.489292 0.827986 0.931182 0.052227
C98   C     C_3   0.508557 0.828519 0.069011 0.038420
C99   C     C_3   0.991125 0.329231 0.930801 0.042525
C100  C     C_3   0.009616 0.329223 0.068830 0.046733
Cr1   Cr    Cr6+3 0.229630 0.835900 0.747350 1.039223
Cr2   Cr    Cr6+3 0.770370 0.835900 0.252650 1.041599
Cr3   Cr    Cr6+3 0.729630 0.335900 0.747350 1.041219
Cr4   Cr    Cr6+3 0.270370 0.335900 0.252650 1.037678
Cr5   Cr    Cr6+3 0.387410 0.989850 0.750850 1.069121
Cr6   Cr    Cr6+3 0.612590 0.989850 0.249150 1.055213
Cr7   Cr    Cr6+3 0.887410 0.489850 0.750850 1.072800
Cr8   Cr    Cr6+3 0.112590 0.489850 0.249150 1.071334
Cr9   Cr    Cr6+3 0.385800 0.677120 0.749340 1.024939
Cr10  Cr    Cr6+3 0.614200 0.677120 0.250660 1.030307
Cr11  Cr    Cr6+3 0.885800 0.177120 0.749340 1.026139
Cr12  Cr    Cr6+3 0.114200 0.177120 0.250660 1.024401
H1    H     H_    0.372579 0.799686 0.971463 0.125431
H2    H     H_    0.625158 0.857085 0.028277 0.113194
H3    H     H_    0.873203 0.319857 0.970845 0.127651
H4    H     H_    0.127560 0.339320 0.028824 0.125348
H5    H     H_    0.171803 0.751288 0.548564 0.156916
H6    H     H_    0.827670 0.751928 0.451421 0.156791
H7    H     H_    0.671778 0.251237 0.548574 0.157035
H8    H     H_    0.327686 0.251897 0.451415 0.156902
H9    H     H_    0.171984 0.736014 0.421980 0.152775
H10   H     H_    0.827353 0.736702 0.578045 0.152016
H11   H     H_    0.671963 0.235977 0.421994 0.153971
H12   H     H_    0.327368 0.236680 0.578037 0.152013
H13   H     H_    0.340044 0.466249 0.436461 0.128689
H14   H     H_    0.660111 0.466232 0.563672 0.128783
H15   H     H_    0.840045 0.966250 0.436465 0.128660
H16   H     H_    0.160104 0.966247 0.563673 0.128806
H17   H     H_    0.344393 0.489182 0.565430 0.121105
H18   H     H_    0.655834 0.489186 0.434710 0.121609
H19   H     H_    0.844391 0.989172 0.565435 0.121254
H20   H     H_    0.155831 0.989189 0.434709 0.120937
H21   H     H_    0.430113 0.994924 0.053247 0.140010
H22   H     H_    0.536439 0.022929 0.947955 0.145185
H23   H     H_    0.940352 0.506989 0.051776 0.152239
H24   H     H_    0.050334 0.516861 0.948812 0.154462
H25   H     H_    0.567657 0.662053 0.947098 0.136582
H26   H     H_    0.459237 0.632872 0.049515 0.142045
H27   H     H_    0.060049 0.151856 0.948112 0.137543
H28   H     H_    0.950740 0.141926 0.050340 0.134620
H29   H     H_    0.351295 0.504812 0.939463 0.174256
H30   H     H_    0.664210 0.472213 0.066182 0.180796
H31   H     H_    0.860467 0.038787 0.943465 0.184107
H32   H     H_    0.150268 0.001726 0.061267 0.170996
H33   H     H_    0.339840 0.472546 0.067606 0.154982
H34   H     H_    0.673780 0.441341 0.938145 0.177543
H35   H     H_    0.844609 0.003095 0.070489 0.146434
H36   H     H_    0.161894 0.968432 0.933312 0.156499
H37   H     H_    0.163235 0.729341 0.937744 0.181862
H38   H     H_    0.819100 0.761541 0.056684 0.180691
H39   H     H_    0.641317 0.148221 0.920743 0.168792
H40   H     H_    0.334145 0.235257 0.061104 0.180188
H41   H     H_    0.498655 0.635347 0.562957 0.149032
H42   H     H_    0.504863 0.635071 0.438248 0.149220
H43   H     H_    0.998703 0.135351 0.562973 0.149071
H44   H     H_    0.004915 0.135068 0.438263 0.149384
O1    O     O_R   0.214270 0.709000 0.827470 -0.517843
O2    O     O_R   0.785730 0.709000 0.172530 -0.516446
O3    O     O_R   0.714270 0.209000 0.827470 -0.514203
O4    O     O_R   0.285730 0.209000 0.172530 -0.518931
O5    O     O_R   0.445950 0.919440 0.676520 -0.467957
O6    O     O_R   0.554050 0.919440 0.323480 -0.466592
O7    O     O_R   0.945950 0.419440 0.676520 -0.468035
O8    O     O_R   0.054050 0.419440 0.323480 -0.467978
O9    O     O_R   0.456730 0.717630 0.669840 -0.531447
O10   O     O_R   0.543270 0.717630 0.330160 -0.531154
O11   O     O_R   0.956730 0.217630 0.669840 -0.531367
O12   O     O_R   0.043270 0.217630 0.330160 -0.531274
O13   O     O_R   0.320620 0.625640 0.672920 -0.512334
O14   O     O_R   0.679380 0.625640 0.327080 -0.511043
O15   O     O_R   0.820620 0.125640 0.672920 -0.513095
O16   O     O_R   0.179380 0.125640 0.327080 -0.512661
O17   O     O_3   0.334280 0.834290 0.749180 -0.261296
O18   O     O_3   0.665720 0.834290 0.250820 -0.264593
O19   O     O_3   0.834280 0.334290 0.749180 -0.261186
O20   O     O_3   0.165720 0.334290 0.250820 -0.261973
O21   O     O_R   0.236160 0.958490 0.823130 -0.507948
O22   O     O_R   0.763840 0.958490 0.176870 -0.508299
O23   O     O_R   0.736160 0.458490 0.823130 -0.506062
O24   O     O_R   0.263840 0.458490 0.176870 -0.507994
O25   O     O_R   0.332080 0.075470 0.831280 -0.521658
O26   O     O_R   0.667920 0.075470 0.168720 -0.538692
O27   O     O_R   0.832080 0.575470 0.831280 -0.516308
O28   O     O_R   0.167920 0.575470 0.168720 -0.522959
O29   O     O_R   0.446300 0.918110 0.826620 -0.490431
O30   O     O_R   0.553700 0.918110 0.173380 -0.518379
O31   O     O_R   0.946300 0.418110 0.826620 -0.488831
O32   O     O_R   0.053700 0.418110 0.173380 -0.488036
O33   O     O_R   0.457110 0.716200 0.831760 -0.516596
O34   O     O_R   0.542890 0.716200 0.168240 -0.511819
O35   O     O_R   0.957110 0.216200 0.831760 -0.517055
O36   O     O_R   0.042890 0.216200 0.168240 -0.517065
O37   O     O_R   0.320980 0.624310 0.823030 -0.504077
O38   O     O_R   0.679020 0.624310 0.176970 -0.497076
O39   O     O_R   0.820980 0.124310 0.823030 -0.505211
O40   O     O_R   0.179020 0.124310 0.176970 -0.503466
O41   O     O_R   0.213890 0.710430 0.665540 -0.497160
O42   O     O_R   0.786110 0.710430 0.334460 -0.496767
O43   O     O_R   0.713890 0.210430 0.665540 -0.498921
O44   O     O_R   0.286110 0.210430 0.334460 -0.496917
O45   O     O_R   0.235810 0.959820 0.673020 -0.515233
O46   O     O_R   0.764190 0.959820 0.326980 -0.513542
O47   O     O_R   0.735810 0.459820 0.673020 -0.515451
O48   O     O_R   0.264190 0.459820 0.326980 -0.515212
O49   O     O_R   0.331700 0.076900 0.669350 -0.507064
O50   O     O_R   0.668300 0.076900 0.330650 -0.501749
O51   O     O_R   0.831700 0.576900 0.669350 -0.507215
O52   O     O_R   0.168300 0.576900 0.330650 -0.507404
C101  C     C_2   0.148420 0.750738 0.074427 0.232898
H45   H     H_    0.160247 0.785917 0.127295 0.122377
O53   O     O_2   0.092528 0.780199 0.044827 -0.514989
C102  C     C_2   0.836023 0.767181 0.918988 0.243912
H46   H     H_    0.821201 0.795448 0.865355 0.117844
O54   O     O_2   0.890877 0.806734 0.946144 -0.511172
C103  C     C_2   0.608807 0.158695 0.051591 0.230877
H47   H     H_    0.576448 0.103750 0.086052 0.161543
O55   O     O_2   0.585260 0.257008 0.031027 -0.509732
C104  C     C_2   0.349592 0.253049 0.924286 0.233452
H48   H     H_    0.337283 0.287765 0.871357 0.121213
O56   O     O_2   0.405635 0.282735 0.953378 -0.509513
C105  C     C_2   0.492907 0.063213 0.422174 0.630104
O57   O     O_2   0.447528 0.073329 0.374951 -0.512610
O58   O     O_R   0.538569 0.160696 0.437723 -0.690379
H49   H     H_    0.528570 0.234775 0.406611 0.324110
C106  C     C_2   0.506431 0.063676 0.577572 0.629812
O59   O     O_2   0.551522 0.074464 0.624988 -0.513956
O60   O     O_R   0.460404 0.160674 0.561468 -0.690220
H50   H     H_    0.469916 0.235011 0.592375 0.323480
C107  C     C_2   0.992918 0.563210 0.422179 0.630035
O61   O     O_2   0.947532 0.573334 0.374964 -0.511099
O62   O     O_R   0.038590 0.660684 0.437719 -0.690515
H51   H     H_    0.028592 0.734763 0.406607 0.323734
C108  C     C_2   0.006420 0.563685 0.577571 0.629869
O63   O     O_2   0.051506 0.574493 0.624992 -0.512668
O64   O     O_R   0.960388 0.660671 0.561455 -0.690219
H52   H     H_    0.969891 0.735016 0.592359 0.323650

loop_
_geom_bond_atom_site_label_1
_geom_bond_atom_site_label_2
_ccdc_geom_bond_type
C8    H28   S    
C58   C62   A    
C7    H27   S    
C74   O38   A    
Cr11  O35   S    
C43   C107  S    
C88   O16   A    
C73   O37   A    
Cr3   O47   S    
C34   C37   A    
C41   C42   A    
C14   C18   A    
Cr1   O17   S    
C35   C36   A    
C40   C83   S    
Cr6   O6    S    
C87   O43   A    
Cr8   O52   S    
Cr3   O3    S    
Cr2   O2    S    
C3    O27   A    
C5    C94   S    
C94   H2    S    
C7    C8    S    
Cr4   O20   S    
Cr12  O16   S    
C56   H12   S    
C15   C19   A    
C7    C96   S    
Cr8   O8    S    
C91   C95   S    
C50   C54   A    
C7    C99   S    
Cr11  O19   S    
C64   C68   A    
Cr4   O4    S    
C39   C84   S    
C48   O32   A    
C55   C59   A    
C103  O55   D    
C2    O26   A    
C5    C6    S    
C30   C74   S    
C33   H41   S    
C67   C71   A    
C29   C73   S    
C94   C98   S    
C95   C99   S    
Cr12  O12   S    
C73   O1    A    
C92   C96   S    
C47   C99   S    
C102  H46   S    
C3    C18   S    
C25   H37   S    
C10   H30   S    
Cr1   O41   S    
Cr5   O29   S    
C68   H20   S    
C9    C13   A    
Cr6   O26   S    
C3    O23   A    
C27   H39   S    
C76   O40   A    
C106  O60   S    
C11   C15   A    
C8    C100  S    
Cr12  O40   S    
O58   H49   S    
Cr9   O33   S    
C64   H16   S    
C22   C102  S    
Cr10  O38   S    
C51   H7    S    
O64   H52   S    
Cr9   O37   S    
C23   C27   A    
C91   C100  S    
C18   C22   A    
C24   C28   A    
C108  O63   D    
C90   C97   S    
Cr7   O51   S    
C84   O8    A    
C9    C29   A    
Cr1   O45   S    
C63   H15   S    
C34   H42   S    
C46   C98   S    
C11   C31   A    
C49   C69   A    
C12   C32   A    
C89   C93   S    
Cr4   O44   S    
C57   C80   S    
C92   H24   S    
C8    C95   S    
C1    O21   A    
C46   O34   A    
C59   C78   S    
C72   C88   S    
C107  O61   D    
Cr9   O13   S    
C90   C94   S    
C63   C67   A    
Cr10  O18   S    
C25   C29   A    
C48   C100  S    
C55   H11   S    
C60   C77   S    
C89   H21   S    
Cr8   O28   S    
C27   C31   A    
C12   C16   A    
C28   C32   A    
C62   C66   A    
Cr10  O14   S    
Cr6   O30   S    
C101  H45   S    
C10   C14   A    
C95   H3    S    
C91   C92   S    
C62   H14   S    
C1    O25   A    
C23   C103  S    
C82   O6    A    
C51   C55   A    
C39   C43   A    
Cr3   O23   S    
C83   O11   A    
Cr10  O34   S    
C17   C21   A    
C12   H32   S    
Cr7   O27   S    
C68   C72   A    
C16   H36   S    
C53   H9    S    
C6    H26   S    
C19   C23   A    
C43   C44   A    
C78   O50   A    
Cr6   O50   S    
C105  O57   D    
C52   C72   A    
C77   O49   A    
Cr12  O36   S    
C10   C30   A    
C93   C97   S    
C31   C75   S    
O60   H50   S    
C61   C65   A    
C26   H38   S    
C16   C20   A    
C6    C93   S    
C87   O15   A    
Cr3   O19   S    
C106  O59   D    
Cr6   O18   S    
C75   O39   A    
Cr3   O43   S    
C4    O28   A    
C74   O2    A    
C5    H25   S    
C108  O64   S    
Cr9   O9    S    
C58   C79   S    
C86   O42   A    
C71   C87   S    
C4    C17   S    
C52   H8    S    
Cr4   O48   S    
C45   O33   A    
Cr12  O20   S    
C102  O54   D    
C28   H40   S    
C83   O7    A    
C79   O47   A    
C50   H6    S    
C38   C81   S    
C22   C26   A    
C13   H33   S    
Cr2   O22   S    
Cr5   O5    S    
C37   C82   S    
Cr7   O19   S    
Cr11  O11   S    
C47   O31   A    
C70   C86   S    
C6    C98   S    
C69   C85   S    
C36   H44   S    
C54   C58   A    
C42   C106  S    
C75   O3    A    
C65   C69   A    
C21   C25   A    
C61   H13   S    
C76   O4    A    
C1    C20   S    
C53   C57   A    
C80   O52   A    
C2    C19   S    
C86   O14   A    
C81   O5    A    
Cr8   O32   S    
C36   C39   A    
C67   H19   S    
Cr4   O24   S    
C78   O46   A    
C35   H43   S    
C77   O45   A    
C32   C76   S    
C65   H17   S    
Cr11  O15   S    
C51   C71   A    
C47   O35   A    
C57   C61   A    
Cr5   O49   S    
Cr2   O18   S    
C54   H10   S    
C14   H34   S    
C59   C63   A    
C33   C38   A    
C13   C17   A    
C104  O56   D    
C60   C64   A    
C82   O10   A    
C88   O44   A    
Cr2   O42   S    
C35   C40   A    
C4    O24   A    
C105  O58   S    
C45   C97   S    
C44   C108  S    
C15   H35   S    
Cr10  O10   S    
C45   O29   A    
C104  H48   S    
C66   C70   A    
C89   C98   S    
C90   H22   S    
C96   C100  S    
C101  O53   D    
C33   C34   A    
C93   H1    S    
Cr9   O17   S    
C79   O51   A    
C103  H47   S    
C37   C41   A    
C85   O13   A    
C50   C70   A    
C48   O36   A    
C49   C53   A    
C9    H29   S    
Cr1   O1    S    
C38   C42   A    
C56   C60   A    
C5    C97   S    
C40   C44   A    
C91   H23   S    
C84   O12   A    
C46   O30   A    
Cr2   O46   S    
C107  O62   S    
Cr8   O20   S    
C49   H5    S    
O62   H51   S    
C81   O9    A    
C85   O41   A    
C96   H4    S    
Cr7   O31   S    
Cr5   O17   S    
Cr7   O7    S    
C2    O22   A    
C21   C101  S    
Cr5   O25   S    
C89   C90   S    
C80   O48   A    
C11   H31   S    
C20   C24   A    
Cr1   O21   S    
C41   C105  S    
C52   C56   A    
C92   C99   S    
Cr11  O39   S    
C66   H18   S    
C26   C30   A    
C24   C104  S    
