data_mof_unit_66441.cif
_audit_creation_date              2012-12-10T17:14:32-0500
_audit_creation_method            fapswitch 2.2
_symmetry_space_group_name_H-M    P1
_symmetry_Int_Tables_number       1
_space_group_crystal_system       triclinic
_cell_length_a                    21.671023
_cell_length_b                    21.661455
_cell_length_c                    47.085664
_cell_angle_alpha                 90.044548
_cell_angle_beta                  90.365549
_cell_angle_gamma                 89.893224
_cell_volume                      22102.7349947

loop_
_atom_site_label
_atom_site_type_symbol
_atom_type_description
_atom_site_fract_x
_atom_site_fract_y
_atom_site_fract_z
_atom_type_partial_charge
C1    C     C_R   0.620368 0.498170 0.000028 0.900729
C2    C     C_R   0.501977 0.620410 0.999963 0.899956
C3    C     C_R   0.379578 0.502057 0.999857 0.897615
C4    C     C_R   0.497975 0.379609 0.999931 0.899041
C5    C     C_R   0.120368 0.998170 0.500028 0.900731
C6    C     C_R   0.001977 0.120410 0.499963 0.899956
C7    C     C_R   0.879578 0.002057 0.499857 0.897615
C8    C     C_R   0.997975 0.879609 0.499931 0.899041
C9    C     C_R   0.526089 0.783558 0.023159 -0.011279
C10   C     C_R   0.216840 0.525930 0.022932 -0.010150
C11   C     C_R   0.473434 0.216562 0.022802 -0.009054
C12   C     C_R   0.783922 0.473329 0.022841 -0.009122
C13   C     C_R   0.026088 0.283558 0.523159 -0.011280
C14   C     C_R   0.716839 0.025930 0.522932 -0.010150
C15   C     C_R   0.973435 0.716562 0.522802 -0.009053
C16   C     C_R   0.283922 0.973329 0.522841 -0.009121
C17   C     C_R   0.538759 0.720301 0.020758 0.007999
C18   C     C_R   0.279863 0.539003 0.020354 0.008796
C19   C     C_R   0.460745 0.279782 0.020273 0.007672
C20   C     C_R   0.720665 0.461067 0.020382 0.006470
C21   C     C_R   0.038758 0.220301 0.520759 0.007999
C22   C     C_R   0.779863 0.039003 0.520354 0.008796
C23   C     C_R   0.960746 0.779782 0.520273 0.007673
C24   C     C_R   0.220665 0.961067 0.520382 0.006469
C25   C     C_R   0.506069 0.687038 0.999318 -0.229500
C26   C     C_R   0.312931 0.506391 0.998997 -0.230572
C27   C     C_R   0.493889 0.313009 0.999205 -0.229908
C28   C     C_R   0.686951 0.495052 0.999513 -0.226378
C29   C     C_R   0.006069 0.187038 0.499318 -0.229501
C30   C     C_R   0.812931 0.006391 0.498997 -0.230573
C31   C     C_R   0.993889 0.813009 0.499205 -0.229910
C32   C     C_R   0.186951 0.995052 0.499513 -0.226378
C33   C     C_R   0.471638 0.718352 0.978056 0.355610
C34   C     C_R   0.281430 0.472069 0.977775 0.355584
C35   C     C_R   0.528800 0.281699 0.978307 0.354476
C36   C     C_R   0.717498 0.531793 0.979049 0.344618
C37   C     C_R   0.971639 0.218352 0.478056 0.355610
C38   C     C_R   0.781430 0.972068 0.477775 0.355584
C39   C     C_R   0.028800 0.781698 0.478307 0.354476
C40   C     C_R   0.217498 0.031794 0.479049 0.344616
C41   C     C_R   0.474049 0.782445 0.976523 0.059714
C42   C     C_R   0.217264 0.474073 0.976382 0.059033
C43   C     C_R   0.526239 0.217619 0.976648 0.059299
C44   C     C_R   0.781671 0.530395 0.977596 0.068303
C45   C     C_R   0.974050 0.282445 0.476523 0.059714
C46   C     C_R   0.717264 0.974073 0.476382 0.059034
C47   C     C_R   0.026238 0.717619 0.476648 0.059298
C48   C     C_R   0.281670 0.030396 0.477596 0.068306
C49   C     C_R   0.499218 0.814399 0.999885 -0.145179
C50   C     C_R   0.185648 0.498941 0.999784 -0.147344
C51   C     C_R   0.500704 0.185653 0.999774 -0.145026
C52   C     C_R   0.814200 0.501711 0.000005 -0.138935
C53   C     C_R   0.999218 0.314399 0.499885 -0.145180
C54   C     C_R   0.685648 0.998941 0.499784 -0.147343
C55   C     C_R   0.000704 0.685653 0.499774 -0.145026
C56   C     C_R   0.314200 0.001711 0.500005 -0.138935
C57   C     C_R   0.500722 0.001059 0.086315 -0.247437
C58   C     C_R   0.997067 0.500812 0.086450 -0.245344
C59   C     C_R   0.000721 0.501060 0.586316 -0.247444
C60   C     C_R   0.497067 0.000812 0.586450 -0.245345
C61   C     C_R   0.500192 0.000158 0.055356 0.928435
C62   C     C_R   0.999656 0.500088 0.055413 0.929693
C63   C     C_R   0.000192 0.500158 0.555356 0.928428
C64   C     C_R   0.499655 0.000088 0.555413 0.929694
C65   C     C_R   0.499808 0.880205 0.999611 0.880492
C66   C     C_R   0.119812 0.499710 0.999572 0.880363
C67   C     C_R   0.500174 0.119811 0.999533 0.882516
C68   C     C_R   0.880128 0.500407 0.999425 0.887927
C69   C     C_R   0.999808 0.380205 0.499611 0.880489
C70   C     C_R   0.619812 0.999710 0.499572 0.880363
C71   C     C_R   0.000174 0.619811 0.499533 0.882514
C72   C     C_R   0.380128 0.000407 0.499425 0.887927
C73   C     C_R   0.977392 0.450437 0.897407 0.316143
C74   C     C_R   0.545084 0.975605 0.896849 0.310490
C75   C     C_R   0.031246 0.549591 0.898610 0.320402
C76   C     C_R   0.450658 0.037138 0.899205 0.320590
C77   C     C_R   0.477390 0.950437 0.397407 0.316141
C78   C     C_R   0.045084 0.475607 0.396849 0.310491
C79   C     C_R   0.531246 0.049590 0.398610 0.320398
C80   C     C_R   0.950658 0.537138 0.399205 0.320591
C81   C     C_R   0.539110 0.043005 0.101021 0.297110
C82   C     C_R   0.954532 0.539891 0.100275 0.297385
C83   C     C_R   0.462908 0.960058 0.101611 0.297096
C84   C     C_R   0.037555 0.463677 0.102715 0.295188
C85   C     C_R   0.039114 0.543002 0.601021 0.297116
C86   C     C_R   0.454532 0.039891 0.600275 0.297385
C87   C     C_R   0.962904 0.460063 0.601611 0.297102
C88   C     C_R   0.537555 0.963677 0.602715 0.295188
C89   C     C_R   0.499721 0.000659 0.944543 0.927002
C90   C     C_R   0.000778 0.499959 0.944555 0.921985
C91   C     C_R   0.999721 0.500659 0.444543 0.927000
C92   C     C_R   0.500777 0.999959 0.444555 0.921988
C93   C     C_R   0.003088 0.499953 0.913289 -0.256665
C94   C     C_R   0.498573 0.004329 0.913269 -0.245949
C95   C     C_R   0.503087 0.999953 0.413289 -0.256665
C96   C     C_R   0.998573 0.504330 0.413269 -0.245949
C97   C     C_R   0.953492 0.521226 0.809750 0.543043
C98   C     C_R   0.446501 0.986247 0.809419 0.542437
C99   C     C_R   0.057424 0.485757 0.809508 0.542790
C100  C     C_R   0.535725 0.050324 0.809431 0.543041
C101  C     C_R   0.453479 0.021192 0.309749 0.543039
C102  C     C_R   0.946501 0.486246 0.309420 0.542438
C103  C     C_R   0.557432 0.985786 0.309508 0.542787
C104  C     C_R   0.035723 0.550326 0.309431 0.543042
C105  C     C_R   0.060675 0.492434 0.779741 -0.091931
C106  C     C_R   0.532274 0.057716 0.779561 -0.092362
C107  C     C_R   0.949204 0.516089 0.779918 -0.091549
C108  C     C_R   0.438823 0.993012 0.779779 -0.094445
C109  C     C_R   0.560680 0.992464 0.279741 -0.091927
C110  C     C_R   0.032273 0.557717 0.279560 -0.092361
C111  C     C_R   0.449194 0.016052 0.279918 -0.091547
C112  C     C_R   0.938823 0.493011 0.279779 -0.094445
C113  C     C_R   0.004648 0.504422 0.764788 -0.062391
C114  C     C_R   0.485517 0.024784 0.764635 -0.064119
C115  C     C_R   0.504646 0.004418 0.264788 -0.062392
C116  C     C_R   0.985517 0.524784 0.264636 -0.064119
C117  C     C_R   0.117230 0.487372 0.764616 0.059258
C118  C     C_R   0.573460 0.096421 0.764152 0.058652
C119  C     C_R   0.892153 0.522168 0.764917 0.058256
C120  C     C_R   0.386587 0.969220 0.764843 0.062103
C121  C     C_R   0.617237 0.987434 0.264617 0.059257
C122  C     C_R   0.073457 0.596424 0.264152 0.058653
C123  C     C_R   0.392140 0.022094 0.264917 0.058259
C124  C     C_R   0.886588 0.469218 0.264843 0.062103
C125  C     C_R   0.615855 0.985082 0.234655 0.394606
C126  C     C_R   0.075425 0.591990 0.234204 0.396502
C127  C     C_R   0.392417 0.025033 0.234960 0.394410
C128  C     C_R   0.887837 0.466256 0.234888 0.398908
C129  C     C_R   0.115846 0.485022 0.734655 0.394609
C130  C     C_R   0.575428 0.091987 0.734204 0.396502
C131  C     C_R   0.892431 0.525105 0.734961 0.394411
C132  C     C_R   0.387836 0.966258 0.734888 0.398908
C133  C     C_R   0.559099 0.991514 0.219729 -0.121703
C134  C     C_R   0.033530 0.552903 0.219412 -0.120004
C135  C     C_R   0.448446 0.017637 0.219852 -0.121922
C136  C     C_R   0.939398 0.489377 0.219821 -0.120157
C137  C     C_R   0.059094 0.491488 0.719729 -0.121706
C138  C     C_R   0.533532 0.052902 0.719412 -0.120004
C139  C     C_R   0.948455 0.517672 0.719852 -0.121924
C140  C     C_R   0.439397 0.989378 0.719821 -0.120158
C141  C     C_R   0.504059 0.004554 0.234822 -0.122091
C142  C     C_R   0.985887 0.522791 0.234622 -0.123070
C143  C     C_R   0.004061 0.504559 0.734822 -0.122089
C144  C     C_R   0.485887 0.022791 0.734622 -0.123069
C145  C     C_R   0.555258 0.986588 0.189902 0.581886
C146  C     C_R   0.036092 0.544074 0.189659 0.585601
C147  C     C_R   0.450984 0.021427 0.189962 0.581690
C148  C     C_R   0.945537 0.481841 0.190180 0.583588
C149  C     C_R   0.055250 0.486565 0.689902 0.581893
C150  C     C_R   0.536093 0.044073 0.689659 0.585600
C151  C     C_R   0.950994 0.521457 0.689962 0.581695
C152  C     C_R   0.445536 0.981842 0.690180 0.583588
C153  C     C_R   0.502012 0.002789 0.145591 0.153780
C154  C     C_R   0.993783 0.505656 0.145769 0.167720
C155  C     C_R   0.002012 0.502791 0.645591 0.153805
C156  C     C_R   0.493783 0.005655 0.645769 0.167720
C157  C     C_R   0.005715 0.501431 0.853835 0.188116
C158  C     C_R   0.495641 0.012169 0.853727 0.180050
C159  C     C_R   0.505713 0.001430 0.353835 0.188113
C160  C     C_R   0.995641 0.512170 0.353727 0.180050
C161  C     C_R   0.978654 0.451984 0.867887 -0.142996
C162  C     C_R   0.543075 0.979614 0.867273 -0.122489
C163  C     C_R   0.032287 0.549712 0.869080 -0.148095
C164  C     C_R   0.449852 0.040817 0.869721 -0.162098
C165  C     C_R   0.478651 0.951983 0.367887 -0.142991
C166  C     C_R   0.043075 0.479615 0.367273 -0.122490
C167  C     C_R   0.532286 0.049711 0.369080 -0.148091
C168  C     C_R   0.949851 0.540817 0.369721 -0.162098
C169  C     C_R   0.539283 0.043678 0.130544 -0.138739
C170  C     C_R   0.953179 0.541869 0.129777 -0.152105
C171  C     C_R   0.464028 0.961083 0.131142 -0.139077
C172  C     C_R   0.035750 0.466515 0.132298 -0.137935
C173  C     C_R   0.039288 0.543676 0.630544 -0.138752
C174  C     C_R   0.453178 0.041868 0.629777 -0.152103
C175  C     C_R   0.964023 0.461090 0.631142 -0.139090
C176  C     C_R   0.535750 0.966515 0.632298 -0.137933
C177  C     C_R   0.581980 0.694173 0.040495 0.170257
C178  C     C_R   0.306048 0.582559 0.039841 0.172532
C179  C     C_R   0.417098 0.305938 0.039551 0.170636
C180  C     C_R   0.694971 0.416885 0.039551 0.170051
C181  C     C_R   0.081978 0.194174 0.540496 0.170258
C182  C     C_R   0.806048 0.082560 0.539841 0.172533
C183  C     C_R   0.917100 0.805938 0.539551 0.170637
C184  C     C_R   0.194971 0.916885 0.539551 0.170051
C185  C     C_R   0.593365 0.724931 0.066322 -0.183771
C186  C     C_R   0.275792 0.594049 0.065665 -0.181020
C187  C     C_R   0.405242 0.275300 0.065272 -0.182864
C188  C     C_R   0.726117 0.404332 0.065215 -0.177956
C189  C     C_R   0.093362 0.224932 0.566323 -0.183769
C190  C     C_R   0.775792 0.094050 0.565665 -0.181020
C191  C     C_R   0.905244 0.775299 0.565273 -0.182861
C192  C     C_R   0.226118 0.904331 0.565215 -0.177955
C193  C     C_R   0.571578 0.784810 0.070781 0.177727
C194  C     C_R   0.216371 0.571658 0.070393 0.161571
C195  C     C_R   0.427142 0.215521 0.069993 0.175491
C196  C     C_R   0.786043 0.425694 0.069872 0.159278
C197  C     C_R   0.071574 0.284810 0.570782 0.177717
C198  C     C_R   0.716371 0.071659 0.570393 0.161570
C199  C     C_R   0.927145 0.715521 0.569993 0.175478
C200  C     C_R   0.286043 0.925693 0.569872 0.159278
C201  C     C_R   0.540833 0.814891 0.048642 -0.110463
C202  C     C_R   0.186084 0.540420 0.048466 -0.112167
C203  C     C_R   0.458339 0.185366 0.048168 -0.108951
C204  C     C_R   0.815763 0.457116 0.048046 -0.105344
C205  C     C_R   0.040829 0.314891 0.548642 -0.110470
C206  C     C_R   0.686084 0.040421 0.548466 -0.112166
C207  C     C_R   0.958341 0.685366 0.548168 -0.108958
C208  C     C_R   0.315763 0.957115 0.548046 -0.105344
H1    H     H_    0.568179 0.076232 0.141927 0.193239
H2    H     H_    0.920613 0.571830 0.140437 0.188065
H3    H     H_    0.435629 0.929207 0.142991 0.192900
H4    H     H_    0.067238 0.438744 0.144891 0.187660
H5    H     H_    0.068189 0.576226 0.641927 0.193225
H6    H     H_    0.420613 0.071830 0.640437 0.188066
H7    H     H_    0.935620 0.429218 0.642992 0.192886
H8    H     H_    0.567239 0.938744 0.644891 0.187661
H9    H     H_    0.621822 0.703219 0.082479 0.149464
H10   H     H_    0.297566 0.622888 0.081629 0.150219
H11   H     H_    0.376395 0.297036 0.081123 0.149284
H12   H     H_    0.704669 0.375314 0.081057 0.150801
H13   H     H_    0.121817 0.203219 0.582480 0.149465
H14   H     H_    0.797566 0.122889 0.581629 0.150218
H15   H     H_    0.876397 0.797035 0.581124 0.149284
H16   H     H_    0.204669 0.875313 0.581056 0.150800
H17   H     H_    0.526917 0.862378 0.051813 0.158126
H18   H     H_    0.138924 0.525942 0.051833 0.157905
H19   H     H_    0.472314 0.137940 0.051509 0.158299
H20   H     H_    0.863280 0.470694 0.051336 0.158868
H21   H     H_    0.026913 0.362378 0.551814 0.158122
H22   H     H_    0.638924 0.025943 0.551833 0.157905
H23   H     H_    0.972317 0.637941 0.551510 0.158295
H24   H     H_    0.363280 0.970693 0.551336 0.158869
H25   H     H_    0.958321 0.414704 0.855683 0.182692
H26   H     H_    0.578190 0.957009 0.854698 0.192833
H27   H     H_    0.053643 0.587583 0.857813 0.183337
H28   H     H_    0.413403 0.066237 0.859035 0.184569
H29   H     H_    0.458317 0.914704 0.355683 0.182689
H30   H     H_    0.078191 0.457011 0.354698 0.192833
H31   H     H_    0.553643 0.087581 0.357813 0.183337
H32   H     H_    0.913403 0.566237 0.359035 0.184569
N1    N     N_R   0.005606 0.502908 0.823553 -0.331782
N2    N     N_R   0.493010 0.015890 0.823337 -0.329227
N3    N     N_R   0.505604 0.002906 0.323553 -0.331778
N4    N     N_R   0.993010 0.515891 0.323337 -0.329228
N5    N     N_R   0.502771 0.003622 0.175957 -0.353967
N6    N     N_R   0.992473 0.509654 0.176094 -0.354109
N7    N     N_R   0.002772 0.503625 0.675957 -0.353971
N8    N     N_R   0.492473 0.009654 0.676094 -0.354108
O1    O     O_R   0.591590 0.499950 0.976370 -0.535134
O2    O     O_R   0.500050 0.591590 0.976370 -0.535696
O3    O     O_R   0.408410 0.500050 0.976370 -0.537391
O4    O     O_R   0.499950 0.408410 0.976370 -0.538243
O5    O     O_R   0.091590 0.999950 0.476370 -0.535135
O6    O     O_R   0.000050 0.091590 0.476370 -0.535694
O7    O     O_R   0.908410 0.000050 0.476370 -0.537392
O8    O     O_R   0.999950 0.908410 0.476370 -0.538243
O9    O     O_R   0.591570 0.499930 0.023700 -0.661354
O10   O     O_R   0.500070 0.591570 0.023700 -0.661845
O11   O     O_R   0.408430 0.500070 0.023700 -0.660802
O12   O     O_R   0.499930 0.408430 0.023700 -0.660219
O13   O     O_R   0.091570 0.999930 0.523700 -0.661354
O14   O     O_R   0.000070 0.091570 0.523700 -0.661846
O15   O     O_R   0.908430 0.000070 0.523700 -0.660802
O16   O     O_R   0.999930 0.908430 0.523700 -0.660220
O17   O     O_R   0.448240 0.999940 0.041970 -0.587582
O18   O     O_R   0.000060 0.448240 0.041970 -0.588316
O19   O     O_R   0.551760 0.000060 0.041970 -0.587534
O20   O     O_R   0.999940 0.551760 0.041970 -0.587334
O21   O     O_R   0.948240 0.499940 0.541970 -0.587579
O22   O     O_R   0.500060 0.948240 0.541970 -0.588316
O23   O     O_R   0.051760 0.500060 0.541970 -0.587531
O24   O     O_R   0.499940 0.051760 0.541970 -0.587334
O25   O     O_R   0.448230 0.908340 0.000040 -0.612907
O26   O     O_R   0.091660 0.448230 0.000040 -0.614592
O27   O     O_R   0.551770 0.091660 0.000040 -0.613101
O28   O     O_R   0.908340 0.551770 0.000040 -0.611104
O29   O     O_R   0.948230 0.408340 0.500040 -0.612908
O30   O     O_R   0.591660 0.948230 0.500040 -0.614592
O31   O     O_R   0.051770 0.591660 0.500040 -0.613101
O32   O     O_R   0.408340 0.051770 0.500040 -0.611105
O33   O     O_R   0.551670 0.908330 0.000040 -0.605826
O34   O     O_R   0.091670 0.551670 0.000040 -0.603126
O35   O     O_R   0.448330 0.091670 0.000040 -0.602360
O36   O     O_R   0.908330 0.448330 0.000040 -0.612678
O37   O     O_R   0.051670 0.408330 0.500040 -0.605824
O38   O     O_R   0.591670 0.051670 0.500040 -0.603127
O39   O     O_R   0.948330 0.591670 0.500040 -0.602359
O40   O     O_R   0.408330 0.948330 0.500040 -0.612677
O41   O     O_R   0.448240 0.999980 0.958120 -0.576210
O42   O     O_R   0.000020 0.448240 0.958120 -0.578815
O43   O     O_R   0.551760 0.000020 0.958120 -0.577140
O44   O     O_R   0.999980 0.551760 0.958120 -0.569706
O45   O     O_R   0.948240 0.499980 0.458120 -0.576209
O46   O     O_R   0.500020 0.948240 0.458120 -0.578817
O47   O     O_R   0.051760 0.500020 0.458120 -0.577140
O48   O     O_R   0.499980 0.051760 0.458120 -0.569707
O49   O     O_2   0.907226 0.545656 0.825119 -0.560683
O50   O     O_2   0.410185 0.947901 0.824377 -0.559817
O51   O     O_2   0.104346 0.460811 0.824531 -0.562820
O52   O     O_2   0.582341 0.074934 0.824694 -0.566609
O53   O     O_2   0.407198 0.045595 0.325119 -0.560684
O54   O     O_2   0.910187 0.447900 0.324377 -0.559818
O55   O     O_2   0.604369 0.960869 0.324531 -0.562824
O56   O     O_2   0.082339 0.574937 0.324694 -0.566610
O57   O     O_2   0.602620 0.963939 0.174646 -0.477762
O58   O     O_2   0.081775 0.568681 0.174058 -0.485475
O59   O     O_2   0.402981 0.043423 0.174671 -0.476944
O60   O     O_2   0.906319 0.445867 0.175260 -0.481837
O61   O     O_2   0.102602 0.463895 0.674646 -0.477772
O62   O     O_2   0.581776 0.068679 0.674058 -0.485474
O63   O     O_2   0.903001 0.543473 0.674670 -0.476951
O64   O     O_2   0.406318 0.945868 0.675260 -0.481838
Zn1   Zn    Zn3+2 0.500000 0.500000 0.968430 1.171310
Zn2   Zn    Zn3+2 0.000000 0.000000 0.468430 1.171309
Zn3   Zn    Zn3+2 0.500000 0.500000 0.031640 0.909964
Zn4   Zn    Zn3+2 0.000000 0.000000 0.531640 0.909964
Zn5   Zn    Zn3+2 0.430890 0.999960 0.000050 1.075482
Zn6   Zn    Zn3+2 0.000040 0.430890 0.000050 1.068722
Zn7   Zn    Zn3+2 0.569110 0.000040 0.000050 1.072553
Zn8   Zn    Zn3+2 0.999960 0.569110 0.000050 1.073681
Zn9   Zn    Zn3+2 0.930890 0.499960 0.500050 1.075483
Zn10  Zn    Zn3+2 0.500040 0.930890 0.500050 1.068721
Zn11  Zn    Zn3+2 0.069110 0.500040 0.500050 1.072556
Zn12  Zn    Zn3+2 0.499960 0.069110 0.500050 1.073678
Cl1   Cl    Cl    0.941193 0.385939 0.912903 -0.568198
Cl2   Cl    Cl    0.605550 0.931951 0.912027 -0.574153
Cl3   Cl    Cl    0.068110 0.611986 0.915785 -0.573535
Cl4   Cl    Cl    0.391242 0.076540 0.917203 -0.577498
Cl5   Cl    Cl    0.441190 0.885939 0.412904 -0.568201
Cl6   Cl    Cl    0.105551 0.431952 0.412027 -0.574153
Cl7   Cl    Cl    0.568111 0.111985 0.415785 -0.573538
Cl8   Cl    Cl    0.891242 0.576539 0.417203 -0.577498
C209  C     C_3   0.179867 0.491195 0.779613 -0.312559
C210  C     C_3   0.208547 0.427320 0.784149 -0.669039
H33   H     H_    0.176517 0.396281 0.795569 0.281754
H34   H     H_    0.220138 0.405627 0.763510 0.273291
H35   H     H_    0.251654 0.431858 0.796842 0.242308
H36   H     H_    0.212324 0.520137 0.767297 0.230144
H37   H     H_    0.177199 0.516764 0.799951 0.231491
C211  C     C_3   0.611725 0.146658 0.778686 -0.307176
C212  C     C_3   0.678020 0.125503 0.784570 -0.668080
H38   H     H_    0.702465 0.161238 0.797242 0.242361
H39   H     H_    0.679034 0.081396 0.796509 0.281347
H40   H     H_    0.703345 0.118700 0.764410 0.271709
H41   H     H_    0.612817 0.189102 0.765516 0.228894
H42   H     H_    0.589580 0.163737 0.798324 0.234561
C213  C     C_3   0.829987 0.518748 0.779992 -0.313142
C214  C     C_3   0.802610 0.582891 0.785247 -0.663644
H43   H     H_    0.835632 0.612880 0.796875 0.281629
H44   H     H_    0.790566 0.605671 0.764858 0.272921
H45   H     H_    0.759943 0.578535 0.798013 0.243188
H46   H     H_    0.796541 0.490972 0.767455 0.230454
H47   H     H_    0.832901 0.492112 0.800027 0.232224
C215  C     C_3   0.326686 0.952774 0.779998 -0.313644
C216  C     C_3   0.320344 0.883123 0.784576 -0.664893
H48   H     H_    0.315055 0.858746 0.763986 0.273891
H49   H     H_    0.361348 0.863923 0.795699 0.282352
H50   H     H_    0.278827 0.873759 0.797567 0.240816
H51   H     H_    0.321813 0.977924 0.800359 0.232616
H52   H     H_    0.286146 0.969727 0.767751 0.227547
C217  C     C_3   0.679872 0.991295 0.279613 -0.312564
C218  C     C_3   0.708589 0.927437 0.284150 -0.669034
H53   H     H_    0.676578 0.896379 0.295570 0.281753
H54   H     H_    0.720194 0.905751 0.263511 0.273293
H55   H     H_    0.751694 0.932002 0.296843 0.242309
H56   H     H_    0.712312 0.020256 0.267296 0.230144
H57   H     H_    0.677189 0.016863 0.299951 0.231491
C219  C     C_3   0.111720 0.646663 0.278686 -0.307176
C220  C     C_3   0.178017 0.625509 0.284570 -0.668080
H58   H     H_    0.202461 0.661245 0.297242 0.242361
H59   H     H_    0.179033 0.581403 0.296509 0.281347
H60   H     H_    0.203342 0.618707 0.264410 0.271710
H61   H     H_    0.112811 0.689106 0.265516 0.228894
H62   H     H_    0.089576 0.663741 0.298324 0.234561
C221  C     C_3   0.329976 0.018635 0.279992 -0.313152
C222  C     C_3   0.302556 0.082759 0.285246 -0.663640
H63   H     H_    0.335557 0.112770 0.296873 0.281629
H64   H     H_    0.290499 0.105531 0.264856 0.272923
H65   H     H_    0.259891 0.078375 0.298011 0.243187
H66   H     H_    0.296549 0.990835 0.267455 0.230454
H67   H     H_    0.332907 0.992001 0.300027 0.232223
C223  C     C_3   0.826687 0.452771 0.279998 -0.313645
C224  C     C_3   0.820346 0.383119 0.284576 -0.664893
H68   H     H_    0.861352 0.363920 0.295699 0.282352
H69   H     H_    0.778830 0.373755 0.297567 0.240815
H70   H     H_    0.815058 0.358742 0.263987 0.273892
H71   H     H_    0.821813 0.477921 0.300359 0.232616
H72   H     H_    0.786147 0.469722 0.267751 0.227547
Cl9   Cl    Cl    0.687248 0.979335 0.216276 -0.532848
Cl10  Cl    Cl    0.129591 0.638707 0.215767 -0.543272
Cl11  Cl    Cl    0.320418 0.033233 0.216854 -0.530819
Cl12  Cl    Cl    0.821640 0.437217 0.216706 -0.552084
Cl13  Cl    Cl    0.187237 0.479233 0.716276 -0.532856
Cl14  Cl    Cl    0.629596 0.138702 0.715768 -0.543277
Cl15  Cl    Cl    0.820437 0.533354 0.716855 -0.530828
Cl16  Cl    Cl    0.321639 0.937221 0.716705 -0.552086
Cl17  Cl    Cl    0.585776 0.097280 0.083410 -0.607171
Cl18  Cl    Cl    0.900644 0.585792 0.081588 -0.612414
Cl19  Cl    Cl    0.415431 0.904933 0.084737 -0.607116
Cl20  Cl    Cl    0.093211 0.415410 0.086940 -0.613530
Cl21  Cl    Cl    0.085784 0.597274 0.583410 -0.607169
Cl22  Cl    Cl    0.400644 0.085791 0.581588 -0.612413
Cl23  Cl    Cl    0.915423 0.404940 0.584738 -0.607115
Cl24  Cl    Cl    0.593211 0.915411 0.586940 -0.613529
Cl25  Cl    Cl    0.420572 0.678780 0.954519 -0.600016
Cl26  Cl    Cl    0.320921 0.421602 0.954134 -0.600338
Cl27  Cl    Cl    0.580838 0.321262 0.955560 -0.603906
Cl28  Cl    Cl    0.676002 0.583017 0.956256 -0.597173
Cl29  Cl    Cl    0.920574 0.178780 0.454518 -0.600014
Cl30  Cl    Cl    0.820921 0.921600 0.454135 -0.600339
Cl31  Cl    Cl    0.080837 0.821262 0.455559 -0.603906
Cl32  Cl    Cl    0.176002 0.083019 0.456256 -0.597173
C225  C     C_3   0.623112 0.639609 0.033500 -0.390308
C226  C     C_3   0.691606 0.656784 0.034158 -0.779787
H73   H     H_    0.700507 0.695699 0.019394 0.280298
H74   H     H_    0.706801 0.669840 0.055889 0.259891
H75   H     H_    0.719703 0.616539 0.027409 0.257388
H76   H     H_    0.614796 0.602061 0.049035 0.232260
H77   H     H_    0.614224 0.622482 0.011772 0.227643
C227  C     C_3   0.360190 0.623767 0.032563 -0.391868
C228  C     C_3   0.342527 0.692217 0.032755 -0.782617
H78   H     H_    0.303150 0.700639 0.018029 0.280439
H79   H     H_    0.329958 0.707828 0.054412 0.260123
H80   H     H_    0.382365 0.720294 0.025671 0.257266
H81   H     H_    0.397992 0.615901 0.048169 0.232147
H82   H     H_    0.377128 0.614538 0.010897 0.226104
C229  C     C_3   0.376037 0.360380 0.032094 -0.390025
C230  C     C_3   0.307598 0.342985 0.031931 -0.785358
H83   H     H_    0.299259 0.303953 0.017084 0.280954
H84   H     H_    0.291829 0.329999 0.053484 0.259348
H85   H     H_    0.279580 0.383097 0.024814 0.256403
H86   H     H_    0.383790 0.397909 0.047770 0.232182
H87   H     H_    0.385477 0.377556 0.010485 0.226029
C231  C     C_3   0.640431 0.376086 0.032093 -0.392368
C232  C     C_3   0.657780 0.307532 0.031981 -0.778787
H88   H     H_    0.696532 0.299145 0.017125 0.280928
H89   H     H_    0.671110 0.291487 0.053538 0.259267
H90   H     H_    0.617556 0.279721 0.024912 0.257326
H91   H     H_    0.603112 0.383852 0.047739 0.232163
H92   H     H_    0.622979 0.385769 0.010474 0.228083
C233  C     C_3   0.123111 0.139609 0.533501 -0.390306
C234  C     C_3   0.191605 0.156785 0.534160 -0.779788
H93   H     H_    0.200506 0.195699 0.519396 0.280298
H94   H     H_    0.206798 0.169840 0.555891 0.259891
H95   H     H_    0.219702 0.116540 0.527411 0.257389
H96   H     H_    0.114794 0.102061 0.549036 0.232260
H97   H     H_    0.114223 0.122483 0.511774 0.227644
C235  C     C_3   0.860190 0.123767 0.532563 -0.391867
C236  C     C_3   0.842527 0.192218 0.532755 -0.782624
H98   H     H_    0.803150 0.200640 0.518029 0.280440
H99   H     H_    0.829957 0.207828 0.554412 0.260122
H100  H     H_    0.882365 0.220294 0.525671 0.257265
H101  H     H_    0.897992 0.115901 0.548168 0.232147
H102  H     H_    0.877128 0.114538 0.510897 0.226103
C237  C     C_3   0.876038 0.860379 0.532095 -0.390025
C238  C     C_3   0.807599 0.842985 0.531933 -0.785358
H103  H     H_    0.799260 0.803953 0.517085 0.280954
H104  H     H_    0.791831 0.829999 0.553486 0.259350
H105  H     H_    0.779581 0.883097 0.524815 0.256404
H106  H     H_    0.883791 0.897909 0.547771 0.232182
H107  H     H_    0.885477 0.877555 0.510485 0.226029
C239  C     C_3   0.140431 0.876086 0.532093 -0.392368
C240  C     C_3   0.157780 0.807532 0.531980 -0.778789
H108  H     H_    0.196532 0.799145 0.517125 0.280929
H109  H     H_    0.171110 0.791487 0.553537 0.259266
H110  H     H_    0.117556 0.779721 0.524912 0.257326
H111  H     H_    0.103112 0.883852 0.547739 0.232163
H112  H     H_    0.122979 0.885769 0.510473 0.228081
C241  C     C_3   0.582986 0.817536 0.098634 -0.434616
C242  C     C_3   0.627888 0.871247 0.095282 -0.742328
H113  H     H_    0.672612 0.854365 0.086855 0.265638
H114  H     H_    0.608667 0.906735 0.080693 0.257369
H115  H     H_    0.636150 0.893185 0.116285 0.286828
H116  H     H_    0.538453 0.835118 0.107004 0.239733
H117  H     H_    0.602224 0.785050 0.114687 0.219975
C243  C     C_3   0.184332 0.582876 0.098305 -0.403141
C244  C     C_3   0.129856 0.627143 0.094947 -0.740821
H118  H     H_    0.145748 0.671970 0.086222 0.263571
H119  H     H_    0.094173 0.607324 0.080606 0.253334
H120  H     H_    0.108545 0.635418 0.115999 0.288117
H121  H     H_    0.167682 0.538182 0.106906 0.247196
H122  H     H_    0.216991 0.602601 0.114181 0.227010
C245  C     C_3   0.415423 0.182976 0.097770 -0.433295
C246  C     C_3   0.370774 0.129072 0.094063 -0.740041
H123  H     H_    0.326144 0.145708 0.085180 0.265095
H124  H     H_    0.390383 0.093504 0.079714 0.257513
H125  H     H_    0.362214 0.107321 0.115017 0.287291
H126  H     H_    0.459892 0.165615 0.106560 0.238024
H127  H     H_    0.395825 0.215523 0.113614 0.220809
C247  C     C_3   0.819119 0.413304 0.097604 -0.396263
C248  C     C_3   0.872814 0.368380 0.093795 -0.754171
H128  H     H_    0.855898 0.323973 0.084897 0.264334
H129  H     H_    0.908105 0.388019 0.079419 0.257777
H130  H     H_    0.894971 0.359359 0.114717 0.280904
H131  H     H_    0.836747 0.457539 0.106422 0.246524
H132  H     H_    0.786874 0.393629 0.113467 0.230500
C249  C     C_3   0.082979 0.317536 0.598635 -0.434604
C250  C     C_3   0.127882 0.371247 0.595284 -0.742312
H133  H     H_    0.172607 0.354364 0.586858 0.265636
H134  H     H_    0.108663 0.406734 0.580694 0.257364
H135  H     H_    0.136142 0.393185 0.616287 0.286841
H136  H     H_    0.038446 0.335118 0.607005 0.239734
H137  H     H_    0.102216 0.285049 0.614689 0.219981
C251  C     C_3   0.684332 0.082877 0.598305 -0.403140
C252  C     C_3   0.629856 0.127144 0.594947 -0.740824
H138  H     H_    0.645748 0.171971 0.586221 0.263570
H139  H     H_    0.594172 0.107324 0.580606 0.253335
H140  H     H_    0.608545 0.135419 0.615998 0.288116
H141  H     H_    0.667682 0.038183 0.606906 0.247197
H142  H     H_    0.716991 0.102602 0.614181 0.227010
C253  C     C_3   0.915427 0.682976 0.597771 -0.433279
C254  C     C_3   0.870777 0.629073 0.594064 -0.740025
H143  H     H_    0.826148 0.645708 0.585182 0.265092
H144  H     H_    0.890386 0.593504 0.579715 0.257508
H145  H     H_    0.862219 0.607321 0.615018 0.287303
H146  H     H_    0.959897 0.665615 0.606560 0.238025
H147  H     H_    0.895830 0.715523 0.613615 0.220816
C255  C     C_3   0.319119 0.913303 0.597603 -0.396263
C256  C     C_3   0.372814 0.868379 0.593794 -0.754177
H148  H     H_    0.355898 0.823972 0.584896 0.264334
H149  H     H_    0.408105 0.888018 0.579419 0.257779
H150  H     H_    0.394971 0.859357 0.614717 0.280902
H151  H     H_    0.336748 0.957537 0.606422 0.246525
H152  H     H_    0.286874 0.893628 0.613467 0.230499
C257  C     C_3   0.450090 0.815477 0.949933 -0.372000
C258  C     C_3   0.492657 0.804081 0.924723 -0.708475
H153  H     H_    0.476447 0.831425 0.906166 0.253439
H154  H     H_    0.540415 0.818517 0.930173 0.285093
H155  H     H_    0.493088 0.754578 0.918678 0.294722
H156  H     H_    0.402535 0.800088 0.944677 0.259089
H157  H     H_    0.446638 0.866080 0.952514 0.208195
C259  C     C_3   0.183792 0.449879 0.949929 -0.368954
C260  C     C_3   0.194020 0.492489 0.924558 -0.714789
H158  H     H_    0.166196 0.476163 0.906145 0.255403
H159  H     H_    0.179426 0.540208 0.929932 0.284119
H160  H     H_    0.243286 0.493109 0.918324 0.295643
H161  H     H_    0.199544 0.402407 0.944769 0.259558
H162  H     H_    0.133336 0.446052 0.952650 0.208626
C261  C     C_3   0.550705 0.184664 0.950252 -0.361566
C262  C     C_3   0.510111 0.198043 0.924309 -0.719071
H163  H     H_    0.525383 0.169213 0.906133 0.249445
H164  H     H_    0.461279 0.186972 0.929042 0.287574
H165  H     H_    0.513109 0.247243 0.917994 0.295651
H166  H     H_    0.598986 0.198824 0.946009 0.257336
H167  H     H_    0.552316 0.133907 0.952522 0.206742
C263  C     C_3   0.815031 0.557453 0.951908 -0.388028
C264  C     C_3   0.833421 0.506506 0.931264 -0.743270
H168  H     H_    0.858894 0.526704 0.913122 0.255772
H169  H     H_    0.863547 0.472239 0.942007 0.271436
H170  H     H_    0.791639 0.482741 0.922983 0.289789
H171  H     H_    0.786802 0.591329 0.939983 0.271872
H172  H     H_    0.856270 0.584216 0.958301 0.227439
C265  C     C_3   0.950092 0.315477 0.449933 -0.372000
C266  C     C_3   0.992660 0.304082 0.424723 -0.708473
H173  H     H_    0.976451 0.331426 0.406166 0.253439
H174  H     H_    0.040418 0.318518 0.430174 0.285094
H175  H     H_    0.993092 0.254578 0.418678 0.294722
H176  H     H_    0.902538 0.300089 0.444676 0.259089
H177  H     H_    0.946640 0.366080 0.452514 0.208194
C267  C     C_3   0.683792 0.949878 0.449929 -0.368962
C268  C     C_3   0.694020 0.992488 0.424558 -0.714777
H178  H     H_    0.666197 0.976162 0.406145 0.255406
H179  H     H_    0.679428 0.040207 0.429931 0.284120
H180  H     H_    0.743287 0.993107 0.418324 0.295642
H181  H     H_    0.699544 0.902406 0.444769 0.259558
H182  H     H_    0.633336 0.946052 0.452650 0.208626
C269  C     C_3   0.050704 0.684664 0.450252 -0.361565
C270  C     C_3   0.010109 0.698043 0.424309 -0.719069
H183  H     H_    0.025381 0.669212 0.406133 0.249445
H184  H     H_    0.961277 0.686972 0.429042 0.287574
H185  H     H_    0.013107 0.747243 0.417994 0.295651
H186  H     H_    0.098985 0.698824 0.446009 0.257335
H187  H     H_    0.052315 0.633907 0.452522 0.206741
C271  C     C_3   0.315030 0.057456 0.451908 -0.388033
C272  C     C_3   0.333421 0.006509 0.431264 -0.743262
H188  H     H_    0.358894 0.026708 0.413123 0.255773
H189  H     H_    0.363547 0.972242 0.442007 0.271434
H190  H     H_    0.291639 0.982744 0.422983 0.289790
H191  H     H_    0.286801 0.091332 0.439984 0.271872
H192  H     H_    0.356270 0.084218 0.458302 0.227440

loop_
_geom_bond_atom_site_label_1
_geom_bond_atom_site_label_2
_ccdc_geom_bond_type
O3    Zn1   S    
C256  H150  S    
C229  C230  S    
C272  H189  S    
C75   Cl3   S    
C198  C206  A    
C265  C266  S    
C108  C120  A    
C34   C42   A    
C73   C93   A    
C269  C270  S    
C53   C69   S    
C115  C141  A    
C184  C239  S    
O21   Zn9   S    
C241  C242  S    
C119  C213  S    
C177  C225  S    
C225  C226  S    
C257  H156  S    
C253  H147  S    
C47   C269  S    
C227  C228  S    
C112  C124  A    
C58   C82   A    
C195  C203  A    
C102  N4    A    
C189  C197  A    
O42   Zn6   S    
C193  C201  A    
C270  H183  S    
C154  C170  A    
C124  C223  S    
C89   C94   S    
C66   O34   A    
O30   Zn10  S    
C73   C161  A    
C226  H75   S    
C76   C94   A    
C91   C96   S    
C102  C112  A    
C72   O40   A    
C154  N6    S    
C78   C96   A    
C56   C72   S    
C83   C171  A    
C57   C83   A    
C160  C166  A    
C196  C204  A    
C140  C152  A    
C222  H65   S    
C220  H60   S    
C100  C106  A    
C245  H126  S    
C104  O56   S    
C249  H137  S    
C269  H186  S    
C106  C118  A    
C5    O13   A    
C248  H129  S    
O18   Zn6   S    
C196  C247  S    
C41   C49   A    
C219  C220  S    
C117  C209  S    
C134  C146  A    
C240  H108  S    
O14   Zn4   S    
C211  C212  S    
C4    O4    A    
C67   O35   A    
C255  H151  S    
C60   C86   A    
C20   C28   A    
C27   C35   A    
C209  C210  S    
C21   C29   A    
C8    O8    A    
C122  C219  S    
C78   Cl6   S    
O5    Zn2   S    
C86   C174  A    
C266  H175  S    
C23   C31   A    
O28   Zn8   S    
C173  H5    S    
C24   C32   A    
C271  C272  S    
C102  O54   S    
C48   C271  S    
C216  H48   S    
C54   C70   S    
C82   Cl18  S    
C11   C19   A    
C254  H143  S    
C12   C20   A    
C250  H133  S    
O22   Zn10  S    
C13   C21   A    
C10   C202  A    
C103  O55   S    
C64   O22   A    
C208  H24   S    
O8    Zn2   S    
C221  H67   S    
C267  C268  S    
C242  H114  S    
C260  H159  S    
C180  C231  S    
C36   C44   A    
C132  C140  A    
C247  C248  S    
C37   C45   A    
C224  H68   S    
C130  C138  A    
C191  H15   S    
C32   C40   A    
C100  N2    A    
C251  C252  S    
C75   C93   A    
C90   C93   S    
C39   C47   A    
C17   C177  A    
C40   C48   A    
C92   O48   A    
C253  H146  S    
C261  H166  S    
C242  H113  S    
O47   Zn11  S    
C3    C26   S    
O36   Zn6   S    
C116  C142  A    
C221  C222  S    
C57   C61   S    
C255  C256  S    
C155  N7    S    
C166  H30   S    
C59   C63   S    
C81   C169  A    
C70   O30   A    
C270  H185  S    
C145  N5    A    
C60   C64   S    
C17   C25   A    
C235  C236  S    
O9    Zn3   S    
C244  H119  S    
O16   Zn4   S    
C104  C110  A    
C210  H35   S    
C109  C121  A    
C269  H187  S    
C10   C18   A    
C3    O11   A    
O12   Zn3   S    
C214  H43   S    
C228  H79   S    
C159  C167  A    
C243  H121  S    
C160  C168  A    
C59   C87   A    
C98   N2    A    
C99   O51   S    
O32   Zn12  S    
C178  C186  A    
C37   Cl29  S    
C129  C137  A    
C259  C260  S    
C126  C134  A    
C181  C233  S    
C194  C243  S    
C133  C141  A    
C182  C190  A    
C79   C167  A    
C80   C168  A    
C231  H92   S    
C232  H89   S    
C73   Cl1   S    
C219  H62   S    
C217  H56   S    
C151  O63   S    
C228  H78   S    
C152  O64   S    
C201  H17   S    
C205  H21   S    
C59   C85   A    
C60   C88   A    
C98   C108  A    
C233  H96   S    
C221  H66   S    
C147  N5    A    
C23   C183  A    
C186  H10   S    
C30   C38   A    
C271  H191  S    
C263  H172  S    
C105  C113  A    
C259  H162  S    
C3    O3    A    
C190  H14   S    
C251  H142  S    
C114  C144  A    
C218  H53   S    
C209  H37   S    
C108  C114  A    
C254  H145  S    
C75   C163  A    
C158  N2    S    
C125  Cl9   S    
O34   Zn8   S    
C64   O24   A    
C62   O20   A    
C213  H46   S    
C139  C143  A    
C239  H111  S    
C107  C113  A    
C238  H103  S    
C21   C181  A    
C119  C131  A    
C265  H176  S    
C7    O15   A    
O24   Zn12  S    
C235  H102  S    
C117  C129  A    
C225  H77   S    
C44   C52   A    
C192  C200  A    
C45   C53   A    
C150  O62   S    
C257  C258  S    
C227  H81   S    
C246  H123  S    
C222  H64   S    
C204  H20   S    
C210  H34   S    
C212  H39   S    
C265  H177  S    
C245  H127  S    
C252  H139  S    
C65   O25   A    
O46   Zn10  S    
C264  H170  S    
C9    C49   A    
C118  C211  S    
C90   O44   A    
C74   C162  A    
C210  H33   S    
C268  H179  S    
C185  H9    S    
C214  H45   S    
C71   O31   A    
C159  C165  A    
C254  H144  S    
C72   O32   A    
C15   C55   A    
C16   C56   A    
C121  C125  A    
C240  H110  S    
C123  C127  A    
C245  C246  S    
C170  H2    S    
C61   O17   A    
C179  C229  S    
C4    O12   A    
C161  H25   S    
C6    O14   A    
C51   C67   S    
C160  N4    S    
C123  C221  S    
C28   C36   A    
C268  H178  S    
C136  C148  A    
C42   C50   A    
C89   O41   A    
C216  H49   S    
C228  H80   S    
C135  C147  A    
C258  H154  S    
C132  Cl16  S    
C211  H41   S    
C29   C37   A    
C253  C254  S    
C112  C116  A    
O7    Zn2   S    
C230  H83   S    
C76   Cl4   S    
C145  O57   S    
O39   Zn9   S    
C22   C30   A    
C2    O10   A    
C8    C31   S    
C186  C194  A    
C229  H87   S    
C255  H152  S    
C84   C172  A    
C242  H115  S    
C65   O33   A    
C41   C257  S    
C24   C184  A    
C87   C175  A    
C88   C176  A    
C14   C22   A    
C81   Cl17  S    
C63   O21   A    
C224  H70   S    
C22   C182  A    
C138  C144  A    
C62   O18   A    
C182  C235  S    
C223  H71   S    
C238  H105  S    
C139  C151  A    
C270  H184  S    
C121  C217  S    
C247  H131  S    
C12   C204  A    
O35   Zn5   S    
C55   C71   S    
C38   C46   A    
C131  C139  A    
C8    O16   A    
C272  H188  S    
C135  C141  A    
C18   C178  A    
C200  C208  A    
C236  H98   S    
C261  C262  S    
C234  H93   S    
C246  H125  S    
C15   C207  A    
C25   C33   A    
C68   O36   A    
O11   Zn3   S    
C58   C62   S    
C69   O37   A    
C223  C224  S    
C164  H28   S    
C74   C94   A    
C200  C255  S    
C264  H168  S    
C18   C26   A    
C105  C117  A    
C4    C27   S    
C249  H136  S    
C231  C232  S    
C241  H117  S    
C168  H32   S    
C156  C174  A    
C80   Cl8   S    
C266  H174  S    
C43   C261  S    
O40   Zn10  S    
C262  H163  S    
C202  H18   S    
C127  C135  A    
C110  C116  A    
C128  C136  A    
C151  N7    A    
O20   Zn8   S    
C179  C187  A    
C259  H161  S    
C38   Cl30  S    
C178  C227  S    
C130  Cl14  S    
C92   O46   A    
C237  H107  S    
C177  C185  A    
C256  H149  S    
C263  C264  S    
O31   Zn11  S    
C136  C142  A    
C180  C188  A    
O25   Zn5   S    
C181  C189  A    
C89   O43   A    
O27   Zn7   S    
O45   Zn9   S    
C1    C28   S    
C250  H134  S    
C184  C192  A    
C13   C53   A    
C230  H85   S    
C124  C128  A    
C5    C32   S    
C187  C195  A    
C226  H73   S    
C272  H190  S    
C237  C238  S    
C7    C30   S    
C33   Cl25  S    
C260  H158  S    
C199  C253  S    
C61   O19   A    
C159  N3    S    
C243  C244  S    
C12   C52   A    
C1    O9    A    
C188  H12   S    
C78   C166  A    
C250  H135  S    
C257  H157  S    
C111  C123  A    
C120  C215  S    
C97   O49   S    
C126  Cl10  S    
C148  O60   S    
C197  C205  A    
C156  N8    S    
C1    O1    A    
C198  C251  S    
C213  C214  S    
C14   C206  A    
O10   Zn3   S    
C40   Cl32  S    
C172  H4    S    
C261  H167  S    
C113  C143  A    
C174  H6    S    
C175  H7    S    
C267  H182  S    
C79   C95   A    
C244  H118  S    
C118  C130  A    
C134  C142  A    
C268  H180  S    
O23   Zn11  S    
C46   C54   A    
C214  H44   S    
C150  N8    A    
C243  H122  S    
C11   C203  A    
C192  H16   S    
C44   C263  S    
C85   Cl21  S    
O4    Zn1   S    
C248  H130  S    
C13   C205  A    
C66   O26   A    
C266  H173  S    
C84   Cl20  S    
C10   C50   A    
C157  C161  A    
C99   N1    A    
C190  C198  A    
C155  C175  A    
C156  C176  A    
O13   Zn4   S    
C7    O7    A    
C239  C240  S    
C262  H165  S    
C140  C144  A    
C101  C111  A    
C229  H86   S    
C146  N6    A    
C165  H29   S    
C271  H192  S    
C103  C109  A    
C33   C41   A    
C129  Cl13  S    
C110  C122  A    
C153  N5    S    
C43   C51   A    
C218  H54   S    
C209  H36   S    
C90   O42   A    
C91   O47   A    
C2    C25   S    
C79   Cl7   S    
C67   O27   A    
C152  N8    A    
C97   N1    A    
C162  H26   S    
C239  H112  S    
C6    C29   S    
C91   O45   A    
C146  O58   S    
C238  H104  S    
C260  H160  S    
C153  C169  A    
C36   Cl28  S    
O43   Zn7   S    
O44   Zn8   S    
C77   C165  A    
C225  H76   S    
C74   Cl2   S    
C77   Cl5   S    
C218  H55   S    
C82   C170  A    
C206  H22   S    
C71   O39   A    
C227  H82   S    
C226  H74   S    
C207  H23   S    
C246  H124  S    
C88   Cl24  S    
C256  H148  S    
C20   C180  A    
C187  H11   S    
C212  H38   S    
C138  C150  A    
C149  O61   S    
C252  H138  S    
C49   C65   S    
C106  C114  A    
O17   Zn5   S    
C264  H169  S    
C191  C199  A    
C244  H120  S    
O19   Zn7   S    
C2    O2    A    
O33   Zn7   S    
C219  H61   S    
C189  H13   S    
C5    O5    A    
C215  H51   S    
C147  O59   S    
C6    O6    A    
C249  C250  S    
C157  N1    S    
C203  H19   S    
C63   O23   A    
O37   Zn11  S    
C26   C34   A    
C70   O38   A    
C103  N3    A    
C248  H128  S    
C176  H8    S    
C193  C241  S    
C97   C107  A    
C100  O52   S    
C19   C27   A    
C157  C163  A    
C101  O53   S    
C231  H91   S    
C52   C68   S    
C195  C245  S    
C232  H90   S    
C236  H100  S    
C15   C23   A    
C137  C143  A    
C16   C24   A    
C83   Cl19  S    
C258  H155  S    
C137  C149  A    
C211  H42   S    
C148  N6    A    
C230  H84   S    
C233  H97   S    
C19   C179  A    
C267  H181  S    
C99   C105  A    
C46   C267  S    
C131  Cl15  S    
C263  H171  S    
C9    C201  A    
C107  C119  A    
O6    Zn2   S    
C163  H27   S    
C109  C115  A    
C251  H141  S    
O26   Zn6   S    
O2    Zn1   S    
C236  H99   S    
C104  N4    A    
C77   C95   A    
C92   C95   S    
C122  C126  A    
C224  H69   S    
C58   C84   A    
C171  H3    S    
C85   C173  A    
C68   O28   A    
C223  H72   S    
C169  H1    S    
C153  C171  A    
C199  C207  A    
C34   Cl26  S    
C154  C172  A    
C247  H132  S    
C235  H101  S    
C213  H47   S    
C50   C66   S    
C197  C249  S    
C87   Cl23  S    
C9    C17   A    
C14   C54   A    
C127  Cl11  S    
C215  C216  S    
C128  Cl12  S    
C57   C81   A    
C76   C164  A    
C80   C96   A    
C234  H94   S    
C98   O50   S    
O41   Zn5   S    
O15   Zn4   S    
C35   C43   A    
C222  H63   S    
C47   C55   A    
C220  H58   S    
C212  H40   S    
C125  C133  A    
C48   C56   A    
C69   O29   A    
C252  H140  S    
C183  C237  S    
O29   Zn9   S    
C120  C132  A    
C185  C193  A    
C16   C208  A    
C183  C191  A    
C241  H116  S    
C158  C164  A    
C217  C218  S    
C42   C259  S    
C234  H95   S    
C262  H164  S    
C155  C173  A    
C233  C234  S    
C237  H106  S    
C35   Cl27  S    
C86   Cl22  S    
C167  H31   S    
C31   C39   A    
C215  H52   S    
C217  H57   S    
C101  N3    A    
C11   C51   A    
C158  C162  A    
O1    Zn1   S    
C232  H88   S    
C216  H50   S    
C133  C145  A    
C188  C196  A    
C194  C202  A    
C149  N7    A    
O48   Zn12  S    
C240  H109  S    
C258  H153  S    
C111  C115  A    
C220  H59   S    
O38   Zn12  S    
C39   Cl31  S    
C45   C265  S    
