data_mof_unit_24580.cif
_audit_creation_date              2012-12-11T15:50:33-0500
_audit_creation_method            fapswitch 2.2
_symmetry_space_group_name_H-M    P1
_symmetry_Int_Tables_number       1
_space_group_crystal_system       triclinic
_cell_length_a                    18.963756
_cell_length_b                    11.022338
_cell_length_c                    18.808158
_cell_angle_alpha                 90.117544
_cell_angle_beta                  91.324807
_cell_angle_gamma                 90.025019
_cell_volume                      3930.31426279

loop_
_atom_site_label
_atom_site_type_symbol
_atom_type_description
_atom_site_fract_x
_atom_site_fract_y
_atom_site_fract_z
_atom_type_partial_charge
C1    C     C_R   0.273901 0.041668 0.854316 0.535379
C2    C     C_R   0.759834 0.586300 0.925898 -0.017967
C3    C     C_R   0.229292 0.548544 0.352677 0.548756
C4    C     C_R   0.466601 0.823201 0.645080 0.544944
C5    C     C_R   0.529331 0.823238 0.352436 0.544243
C6    C     C_R   0.966601 0.323201 0.645080 0.544944
C7    C     C_R   0.029330 0.323238 0.352436 0.544246
C8    C     C_R   0.261696 0.643355 0.641138 0.547448
C9    C     C_R   0.739994 0.638805 0.356990 0.545384
C10   C     C_R   0.761694 0.143350 0.641139 0.547446
C11   C     C_R   0.239994 0.138805 0.356990 0.545384
C12   C     C_3   0.469361 0.926806 0.028775 -0.075652
C13   C     C_R   0.740377 0.086267 0.074138 -0.018789
C14   C     C_3   0.527532 0.930578 0.972137 -0.073569
C15   C     C_3   0.969299 0.426732 0.028783 -0.075701
C16   C     C_3   0.027467 0.430650 0.972146 -0.073523
C17   C     C_3   0.430659 0.825557 0.986350 -0.114019
C18   C     C_3   0.569624 0.832346 0.013495 -0.114466
C19   C     C_3   0.930669 0.325418 0.986346 -0.114013
C20   C     C_3   0.069629 0.332490 0.013491 -0.114468
C21   C     C_3   0.489479 0.829009 0.931211 0.037873
C22   C     C_3   0.510793 0.828292 0.068632 0.039487
C23   C     C_3   0.989486 0.329016 0.931207 0.037840
C24   C     C_R   0.259837 0.086297 0.925899 -0.017980
C25   C     C_3   0.010801 0.328289 0.068628 0.039524
C26   C     C_2   0.117932 0.689217 0.058193 0.230339
C27   C     C_2   0.883061 0.686595 0.942423 0.231051
C28   C     C_2   0.617929 0.189194 0.058192 0.230354
C29   C     C_2   0.383057 0.186615 0.942423 0.231045
C30   C     C_R   0.304305 0.561844 0.041532 -0.029315
C31   C     C_R   0.695675 0.562916 0.958222 -0.031714
C32   C     C_R   0.804307 0.061846 0.041533 -0.029276
C33   C     C_R   0.195678 0.062919 0.958223 -0.031759
C34   C     C_R   0.311483 0.575468 0.968621 0.003630
C35   C     C_R   0.688269 0.577245 0.031054 0.003540
C36   C     C_R   0.811486 0.075472 0.968622 0.003603
C37   C     C_R   0.726159 0.041634 0.145694 0.534029
C38   C     C_R   0.188270 0.077256 0.031053 0.003550
C39   C     C_R   0.188985 0.627736 0.957034 -0.153493
C40   C     C_R   0.811069 0.627425 0.043121 -0.154171
C41   C     C_R   0.688988 0.127740 0.957034 -0.153511
C42   C     C_R   0.311073 0.127411 0.043123 -0.154154
C43   C     C_R   0.183611 0.633109 0.030606 -0.026121
C44   C     C_R   0.816760 0.632305 0.969637 -0.025760
C45   C     C_R   0.683612 0.133104 0.030606 -0.026116
C46   C     C_R   0.316763 0.132301 0.969638 -0.025762
C47   C     C_3   0.348375 0.450172 0.043581 -0.232687
C48   C     C_R   0.773901 0.541669 0.854316 0.535389
C49   C     C_3   0.650966 0.451862 0.956048 -0.231704
C50   C     C_3   0.848383 0.950181 0.043582 -0.232696
C51   C     C_3   0.150961 0.951876 0.956048 -0.231687
C52   C     C_3   0.357421 0.467081 0.964393 -0.239194
C53   C     C_3   0.641429 0.470019 0.035122 -0.235633
C54   C     C_3   0.857436 0.967100 0.964396 -0.239209
C55   C     C_3   0.141420 0.970044 0.035122 -0.235589
C56   C     C_R   0.252567 0.599224 0.925102 -0.017465
C57   C     C_R   0.747245 0.599770 0.074758 -0.016971
C58   C     C_R   0.752570 0.099225 0.925103 -0.017469
C59   C     C_R   0.226159 0.541634 0.145694 0.534016
C60   C     C_R   0.247247 0.099767 0.074759 -0.016966
C61   C     C_R   0.494441 0.829488 0.420747 0.018221
C62   C     C_R   0.482109 0.829607 0.569682 0.020226
C63   C     C_R   0.994440 0.329491 0.420746 0.018218
C64   C     C_R   0.982110 0.329609 0.569682 0.020226
C65   C     C_R   0.470048 0.821727 0.855673 0.543949
C66   C     C_R   0.530174 0.821468 0.144198 0.543830
C67   C     C_R   0.970051 0.321728 0.855671 0.543940
C68   C     C_R   0.030180 0.321467 0.144194 0.543845
C69   C     C_R   0.481738 0.721834 0.457911 0.027486
C70   C     C_3   0.530942 0.731058 0.971436 -0.127423
C71   C     C_R   0.476348 0.722609 0.530495 0.041071
C72   C     C_R   0.981733 0.221836 0.457910 0.027487
C73   C     C_R   0.976344 0.222611 0.530495 0.041079
C74   C     C_R   0.482499 0.939978 0.532058 -0.163261
C75   C     C_R   0.487449 0.939873 0.457544 -0.169038
C76   C     C_R   0.982506 0.439981 0.532059 -0.163263
C77   C     C_R   0.987452 0.439876 0.457545 -0.169041
C78   C     C_3   0.520719 0.603467 0.459953 -0.268706
C79   C     C_3   0.515273 0.606133 0.539970 -0.278220
C80   C     C_3   0.020708 0.103465 0.459951 -0.268707
C81   C     C_3   0.472699 0.727257 0.027293 -0.124803
C82   C     C_3   0.015265 0.106130 0.539968 -0.278216
C83   C     C_R   0.251650 0.605784 0.418404 0.019224
C84   C     C_R   0.747353 0.591406 0.578493 0.016429
C85   C     C_R   0.751651 0.105785 0.418404 0.019224
C86   C     C_R   0.247352 0.091406 0.578494 0.016432
C87   C     C_R   0.203328 0.678272 0.454606 0.021852
C88   C     C_R   0.783127 0.686531 0.546392 0.016166
C89   C     C_R   0.703331 0.178277 0.454605 0.021854
C90   C     C_R   0.283125 0.186530 0.546392 0.016164
C91   C     C_R   0.206731 0.684792 0.527031 0.036856
C92   C     C_3   0.031018 0.231137 0.971418 -0.127483
C93   C     C_R   0.783037 0.694128 0.473885 0.049045
C94   C     C_R   0.706731 0.184788 0.527031 0.036860
C95   C     C_R   0.283036 0.194127 0.473886 0.049043
C96   C     C_R   0.315421 0.572646 0.529127 -0.152772
C97   C     C_R   0.702265 0.526275 0.462785 -0.175296
C98   C     C_R   0.815418 0.072634 0.529129 -0.152768
C99   C     C_R   0.202262 0.026279 0.462786 -0.175293
C100  C     C_R   0.312600 0.566235 0.454909 -0.155741
C101  C     C_R   0.701377 0.518668 0.536585 -0.165818
C102  C     C_R   0.812599 0.066230 0.454910 -0.155736
C103  C     C_3   0.972778 0.227189 0.027275 -0.124756
C104  C     C_R   0.201374 0.018671 0.536586 -0.165818
C105  C     C_3   0.123985 0.676783 0.455354 -0.269015
C106  C     C_3   0.858339 0.728804 0.552304 -0.271362
C107  C     C_3   0.623986 0.176807 0.455351 -0.269015
C108  C     C_3   0.358336 0.228808 0.552305 -0.271367
C109  C     C_3   0.128841 0.683675 0.535310 -0.278519
C110  C     C_3   0.858255 0.733155 0.472083 -0.266099
C111  C     C_3   0.628840 0.183683 0.535308 -0.278517
C112  C     C_3   0.358254 0.233157 0.472083 -0.266101
C113  C     C_R   0.261237 0.637819 0.852029 0.539664
C114  C     C_R   0.240376 0.586269 0.074138 -0.018801
C115  C     C_R   0.738711 0.637862 0.147929 0.538742
C116  C     C_R   0.761238 0.137820 0.852029 0.539660
C117  C     C_R   0.238712 0.137861 0.147929 0.538742
C118  C     C_R   0.258264 0.622215 0.565711 0.022834
C119  C     C_R   0.746963 0.609958 0.431034 0.025732
C120  C     C_R   0.758261 0.122206 0.565712 0.022832
C121  C     C_R   0.246962 0.109959 0.431034 0.025733
C122  C     C_R   0.270834 0.046016 0.646487 0.553311
C123  C     C_R   0.729293 0.048544 0.352677 0.548757
C124  C     C_R   0.770835 0.546016 0.646487 0.553311
Cr1   Cr    Cr6+3 0.229640 0.835880 0.747370 1.010296
Cr2   Cr    Cr6+3 0.614230 0.677220 0.250660 1.008776
Cr3   Cr    Cr6+3 0.885770 0.177220 0.749340 1.011101
Cr4   Cr    Cr6+3 0.114230 0.177220 0.250660 1.008774
Cr5   Cr    Cr6+3 0.770360 0.835880 0.252630 1.011442
Cr6   Cr    Cr6+3 0.729640 0.335880 0.747370 1.010298
Cr7   Cr    Cr6+3 0.270360 0.335880 0.252630 1.011438
Cr8   Cr    Cr6+3 0.387390 0.989720 0.750850 1.011432
Cr9   Cr    Cr6+3 0.612610 0.989720 0.249150 1.010940
Cr10  Cr    Cr6+3 0.887390 0.489720 0.750850 1.011428
Cr11  Cr    Cr6+3 0.112610 0.489720 0.249150 1.010943
Cr12  Cr    Cr6+3 0.385770 0.677220 0.749340 1.011100
H1    H     H_    0.373223 0.823636 0.973409 0.121662
H2    H     H_    0.982064 0.032045 0.560938 0.131057
H3    H     H_    0.575627 0.612556 0.442272 0.175226
H4    H     H_    0.482072 0.532048 0.560940 0.131059
H5    H     H_    0.490008 0.528560 0.434474 0.123860
H6    H     H_    0.566855 0.618650 0.568299 0.142516
H7    H     H_    0.989993 0.028560 0.434472 0.123856
H8    H     H_    0.066849 0.118642 0.568294 0.142513
H9    H     H_    0.360439 0.535496 0.557662 0.127259
H10   H     H_    0.669342 0.465992 0.430823 0.122718
H11   H     H_    0.860434 0.035478 0.557664 0.127254
H12   H     H_    0.627054 0.835525 0.026426 0.121579
H13   H     H_    0.169338 0.965997 0.430824 0.122719
H14   H     H_    0.354270 0.521079 0.426979 0.118038
H15   H     H_    0.670299 0.447867 0.560098 0.140474
H16   H     H_    0.854269 0.021074 0.426980 0.118035
H17   H     H_    0.170296 0.947870 0.560099 0.140471
H18   H     H_    0.101526 0.589316 0.437060 0.173140
H19   H     H_    0.895903 0.660741 0.573654 0.163479
H20   H     H_    0.601518 0.089350 0.437050 0.173141
H21   H     H_    0.395901 0.160750 0.573656 0.163478
H22   H     H_    0.100204 0.758962 0.430420 0.125408
H23   H     H_    0.873233 0.323392 0.973405 0.121669
H24   H     H_    0.862910 0.819641 0.577607 0.125995
H25   H     H_    0.600214 0.258997 0.430421 0.125400
H26   H     H_    0.362903 0.319646 0.577607 0.126000
H27   H     H_    0.107907 0.769788 0.556977 0.133639
H28   H     H_    0.864708 0.825511 0.450653 0.140280
H29   H     H_    0.607910 0.269796 0.556979 0.133640
H30   H     H_    0.364704 0.325513 0.450652 0.140285
H31   H     H_    0.110093 0.600150 0.562035 0.138694
H32   H     H_    0.892654 0.663491 0.447941 0.134288
H33   H     H_    0.610086 0.100156 0.562025 0.138692
H34   H     H_    0.127058 0.335777 0.026422 0.121574
H35   H     H_    0.392653 0.163493 0.447942 0.134287
H36   H     H_    0.444807 0.004174 0.056345 0.167100
H37   H     H_    0.549413 0.011146 0.945470 0.174859
H38   H     H_    0.944688 0.504037 0.056360 0.166960
H39   H     H_    0.049291 0.511276 0.945488 0.175011
H40   H     H_    0.555244 0.652448 0.945056 0.125833
H41   H     H_    0.451067 0.645068 0.052293 0.125004
H42   H     H_    0.055376 0.152599 0.945019 0.125845
H43   H     H_    0.951205 0.144936 0.052257 0.124982
H44   H     H_    0.144205 0.655279 0.924080 0.178778
H45   H     H_    0.481856 0.025368 0.560186 0.118227
H46   H     H_    0.855856 0.654678 0.076241 0.178798
H47   H     H_    0.644210 0.155290 0.924081 0.178777
H48   H     H_    0.355861 0.154653 0.076244 0.178790
H49   H     H_    0.816969 0.868841 0.056624 0.171197
H50   H     H_    0.182004 0.869840 0.943437 0.171720
H51   H     H_    0.316958 0.368838 0.056629 0.171214
H52   H     H_    0.682013 0.369833 0.943432 0.171707
H53   H     H_    0.397978 0.461274 0.075420 0.144399
H54   H     H_    0.601625 0.463176 0.923847 0.143934
H55   H     H_    0.897982 0.961286 0.075427 0.144384
H56   H     H_    0.491076 0.025159 0.429678 0.114141
H57   H     H_    0.101624 0.963200 0.923842 0.143944
H58   H     H_    0.412171 0.490587 0.949585 0.158438
H59   H     H_    0.586761 0.494972 0.049466 0.158673
H60   H     H_    0.912184 0.990628 0.949594 0.158427
H61   H     H_    0.086754 0.995014 0.049461 0.158669
H62   H     H_    0.330906 0.397476 0.930811 0.121667
H63   H     H_    0.667180 0.400615 0.069165 0.122849
H64   H     H_    0.830934 0.897489 0.930807 0.121666
H65   H     H_    0.167163 0.900639 0.069170 0.122866
H66   H     H_    0.115889 0.728994 0.110747 0.140452
H67   H     H_    0.981868 0.525373 0.560187 0.118222
H68   H     H_    0.885403 0.727669 0.890319 0.139652
H69   H     H_    0.615888 0.228997 0.110739 0.140429
H70   H     H_    0.385400 0.227667 0.890313 0.139673
H71   H     H_    0.991080 0.525163 0.429680 0.114143
H72   H     H_    0.075617 0.112544 0.442269 0.175223
O1    O     O_R   0.214300 0.709080 0.827500 -0.534045
O2    O     O_R   0.543340 0.717710 0.330180 -0.525106
O3    O     O_R   0.956660 0.217710 0.669820 -0.521052
O4    O     O_R   0.043340 0.217710 0.330180 -0.525104
O5    O     O_R   0.320590 0.625770 0.672930 -0.512012
O6    O     O_R   0.679410 0.625770 0.327070 -0.513200
O7    O     O_R   0.820590 0.125770 0.672930 -0.512009
O8    O     O_R   0.179410 0.125770 0.327070 -0.513200
O9    O     O_3   0.334270 0.834280 0.749190 -0.252306
O10   O     O_3   0.665730 0.834280 0.250810 -0.249904
O11   O     O_3   0.834270 0.334280 0.749190 -0.252303
O12   O     O_R   0.785700 0.709080 0.172500 -0.534875
O13   O     O_3   0.165730 0.334280 0.250810 -0.249906
O14   O     O_R   0.236190 0.958390 0.823150 -0.499893
O15   O     O_R   0.763810 0.958390 0.176850 -0.500259
O16   O     O_R   0.736190 0.458390 0.823150 -0.499894
O17   O     O_R   0.263810 0.458390 0.176850 -0.500259
O18   O     O_R   0.332090 0.075280 0.831290 -0.545688
O19   O     O_R   0.667910 0.075280 0.168710 -0.545736
O20   O     O_R   0.832090 0.575280 0.831290 -0.545678
O21   O     O_R   0.167910 0.575280 0.168710 -0.545746
O22   O     O_R   0.446280 0.918040 0.826620 -0.497393
O23   O     O_R   0.714300 0.209080 0.827500 -0.534047
O24   O     O_R   0.553720 0.918040 0.173380 -0.497178
O25   O     O_R   0.946280 0.418040 0.826620 -0.497405
O26   O     O_R   0.053720 0.418040 0.173380 -0.497169
O27   O     O_R   0.457080 0.716270 0.831760 -0.521881
O28   O     O_R   0.542920 0.716270 0.168240 -0.522568
O29   O     O_R   0.957080 0.216270 0.831760 -0.521871
O30   O     O_R   0.042920 0.216270 0.168240 -0.522583
O31   O     O_R   0.320980 0.624440 0.823040 -0.496704
O32   O     O_R   0.679020 0.624440 0.176960 -0.497249
O33   O     O_R   0.820980 0.124440 0.823040 -0.496705
O34   O     O_R   0.285700 0.209080 0.172500 -0.534874
O35   O     O_R   0.179020 0.124440 0.176960 -0.497252
O36   O     O_R   0.213880 0.710510 0.665560 -0.520148
O37   O     O_R   0.786120 0.710510 0.334440 -0.519127
O38   O     O_R   0.713880 0.210510 0.665560 -0.520146
O39   O     O_R   0.286120 0.210510 0.334440 -0.519129
O40   O     O_R   0.235800 0.959720 0.673040 -0.511452
O41   O     O_R   0.764200 0.959720 0.326960 -0.505656
O42   O     O_R   0.735800 0.459720 0.673040 -0.511451
O43   O     O_R   0.264200 0.459720 0.326960 -0.505657
O44   O     O_R   0.331670 0.076720 0.669350 -0.527788
O45   O     O_R   0.445900 0.919370 0.676500 -0.509806
O46   O     O_R   0.668330 0.076720 0.330650 -0.529020
O47   O     O_R   0.831670 0.576720 0.669350 -0.527787
O48   O     O_R   0.168330 0.576720 0.330650 -0.529019
O49   O     O_2   0.065778 0.701517 0.020076 -0.492317
O50   O     O_2   0.935624 0.695118 0.980347 -0.491929
O51   O     O_2   0.565765 0.201431 0.020083 -0.492292
O52   O     O_2   0.435611 0.195202 0.980355 -0.491932
O53   O     O_R   0.554100 0.919370 0.323500 -0.510700
O54   O     O_R   0.945900 0.419370 0.676500 -0.509806
O55   O     O_R   0.054100 0.419370 0.323500 -0.510699
O56   O     O_R   0.456660 0.717710 0.669820 -0.521053

loop_
_geom_bond_atom_site_label_1
_geom_bond_atom_site_label_2
_ccdc_geom_bond_type
C1    O18   A    
C18   C70   S    
C83   C87   A    
C108  H21   S    
C34   C56   A    
C28   H69   S    
C87   C91   A    
C35   C53   S    
C30   C114  A    
C97   H10   S    
C14   C18   S    
C13   C32   A    
C19   C23   S    
Cr3   O33   S    
Cr5   O15   S    
C86   C104  A    
C78   H3    S    
C71   C79   S    
C39   H44   S    
Cr6   O38   S    
C76   H67   S    
C8    C118  S    
C90   C95   A    
C57   C115  S    
C74   H45   S    
Cr5   O37   S    
Cr1   O14   S    
C61   C75   A    
C15   C19   S    
C5    O2    A    
C99   H13   S    
C50   C54   S    
C65   O22   A    
C32   C36   A    
C14   C21   S    
C96   C118  A    
C26   H66   S    
C3    O43   A    
C41   C58   A    
C123  O41   A    
C14   H37   S    
C18   H12   S    
C95   C112  S    
C77   H71   S    
C43   C114  A    
C63   C77   A    
C115  O32   A    
C48   O20   A    
C49   H52   S    
C49   C53   S    
C10   O7    A    
C15   C25   S    
C112  H35   S    
Cr12  O56   S    
C20   C25   S    
C8    O36   A    
Cr4   O30   S    
Cr10  O11   S    
C55   H65   S    
Cr12  O27   S    
C4    C62   S    
C94   C111  S    
C54   H64   S    
Cr1   O36   S    
Cr8   O9    S    
C42   C46   A    
C3    C83   S    
C6    C64   S    
C89   C94   A    
C69   C71   A    
C70   C81   S    
C3    O48   A    
C22   C66   S    
C123  O46   A    
C124  O42   A    
C34   C52   S    
Cr2   O6    S    
C92   C103  S    
C97   C119  A    
C88   C93   A    
C94   C120  A    
C27   C44   S    
C38   C55   S    
C107  H25   S    
C2    C44   A    
C12   C17   S    
C86   C122  S    
C29   C46   S    
C62   C74   A    
C56   C113  S    
C7    O55   A    
Cr2   O28   S    
C111  H29   S    
C70   H40   S    
C104  H17   S    
C122  O44   A    
C109  H31   S    
C13   C37   S    
C107  H20   S    
C5    O53   A    
C16   C20   S    
C93   C110  S    
C99   C121  A    
C117  O34   A    
C80   H7    S    
C42   H48   S    
C99   C104  A    
Cr2   O32   S    
Cr10  O54   S    
C58   C116  S    
C84   C101  A    
Cr1   O1    S    
C69   C78   S    
C11   C121  S    
C25   C68   S    
C110  H32   S    
C4    O45   A    
C31   C49   S    
C124  O47   A    
C59   O17   A    
C90   C108  S    
C53   H59   S    
Cr7   O43   S    
C26   C43   S    
C7    O4    A    
C40   H46   S    
Cr6   O42   S    
C41   H47   S    
Cr11  O13   S    
Cr5   O41   S    
C28   C45   S    
C91   C118  A    
C29   O52   D    
C54   H60   S    
C74   C75   A    
C30   C34   A    
C21   C70   S    
Cr3   O11   S    
C27   H68   S    
C53   H63   S    
C22   C81   S    
C84   C88   A    
C30   C47   S    
C52   H58   S    
C76   C77   A    
C37   O15   A    
C82   H8    S    
C8    O5    A    
Cr2   O2    S    
C78   H5    S    
C42   C60   A    
Cr9   O19   S    
C85   C89   A    
C78   C79   S    
C25   C103  S    
C39   C43   A    
C6    O3    A    
C48   O16   A    
C51   C55   S    
C100  H14   S    
C98   C102  A    
C103  H43   S    
C108  H26   S    
C101  H15   S    
C17   C21   S    
C29   H70   S    
C108  C112  S    
C66   O28   A    
C1    O14   A    
C111  H33   S    
Cr10  O20   S    
C47   H53   S    
Cr9   O53   S    
Cr5   O10   S    
C96   H9    S    
Cr8   O18   S    
C88   C106  S    
C95   C121  A    
Cr7   O17   S    
C97   C101  A    
Cr11  O21   S    
C39   C56   A    
C87   C105  S    
C80   C82   S    
C113  O31   A    
C64   C73   A    
C28   O51   D    
C112  H30   S    
C19   H23   S    
C89   C107  S    
C64   C76   A    
Cr11  O26   S    
C5    C61   S    
C60   C117  S    
C6    O54   A    
C50   H55   S    
C7    C63   S    
C68   O26   A    
Cr8   O45   S    
Cr4   O8    S    
C38   C60   A    
C92   H42   S    
C16   H39   S    
Cr3   O3    S    
C80   H72   S    
C12   C14   S    
Cr3   O29   S    
C16   C23   S    
C83   C100  A    
C116  O23   A    
C51   H57   S    
C9    C119  S    
C12   C22   S    
C31   C35   A    
C4    O56   A    
C20   C92   S    
C84   C124  S    
C47   H51   S    
C59   O21   A    
C117  O35   A    
C73   C82   S    
C9    O37   A    
Cr8   O44   S    
C122  O40   A    
Cr12  O5    S    
C106  C110  S    
C61   C69   A    
C27   O50   D    
C105  C109  S    
C116  O33   A    
C67   O25   A    
C110  H28   S    
C40   C57   A    
C15   H38   S    
C21   C65   S    
Cr9   O46   S    
C18   C22   S    
C55   H61   S    
C107  C111  S    
C65   O27   A    
C32   C50   S    
C24   C33   A    
C105  H18   S    
C72   C73   A    
Cr1   O40   S    
Cr7   O34   S    
Cr8   O22   S    
Cr4   O13   S    
Cr10  O47   S    
Cr11  O48   S    
C98   C120  A    
C47   C52   S    
C49   H54   S    
C11   O39   A    
C9    O6    A    
Cr5   O12   S    
C12   H36   S    
C11   O8    A    
C36   C58   A    
Cr9   O10   S    
Cr11  O55   S    
C10   O38   A    
C35   C57   A    
C2    C48   S    
C91   C109  S    
Cr6   O16   S    
C75   H56   S    
Cr9   O24   S    
C81   H41   S    
C72   C80   S    
C105  H22   S    
C68   O30   A    
Cr7   O39   S    
C66   O24   A    
C13   C45   A    
Cr3   O7    S    
C33   C51   S    
C26   O49   D    
C23   C67   S    
Cr6   O23   S    
C59   C114  S    
C106  H24   S    
C15   C16   S    
C96   C100  A    
C86   C90   A    
Cr10  O25   S    
C67   O29   A    
C62   C71   A    
C85   C123  S    
C109  H27   S    
C17   C81   S    
Cr7   O13   S    
Cr6   O11   S    
C115  O12   A    
C19   C103  S    
C36   C54   S    
C113  O1    A    
C79   H6    S    
C40   C44   A    
C52   H62   S    
C63   C72   A    
C79   H4    S    
C1    C24   S    
C82   H2    S    
C106  H19   S    
C98   H11   S    
Cr12  O31   S    
C51   H50   S    
Cr4   O35   S    
C41   C45   A    
C23   C92   S    
C2    C31   A    
C33   C38   A    
C17   H1    S    
C93   C119  A    
C50   H49   S    
C37   O19   A    
Cr12  O9    S    
C10   C120  S    
Cr4   O4    S    
C85   C102  A    
Cr2   O10   S    
C102  H16   S    
C24   C46   A    
C20   H34   S    
Cr1   O9    S    
