data_mof_unit_7998.cif
_audit_creation_date              2013-03-05T15:50:07-0500
_audit_creation_method            fapswitch 2.2
_symmetry_space_group_name_H-M    P1
_symmetry_Int_Tables_number       1
_space_group_crystal_system       triclinic
_cell_length_a                    11.995094
_cell_length_b                    12.895418
_cell_length_c                    15.318962
_cell_angle_alpha                 87.194189
_cell_angle_beta                  114.773839
_cell_angle_gamma                 93.214461
_cell_volume                      2147.25830158

loop_
_atom_site_label
_atom_site_type_symbol
_atom_site_description
_atom_site_fract_x
_atom_site_fract_y
_atom_site_fract_z
_atom_type_partial_charge
O1    O     O_R   0.580150 0.341050 0.504560 -0.636357
O2    O     O_R   0.419850 0.658950 0.495440 -0.629946
O3    O     O_R   0.388090 0.353760 0.493600 -0.626178
O4    O     O_R   0.611910 0.646240 0.506400 -0.623496
C1    C     C_R   0.477417 0.299496 0.498437 0.885087
C2    C     C_R   0.522678 0.700477 0.501770 0.909734
O5    O     O_R   0.650890 0.490020 0.640860 -0.611865
O6    O     O_R   0.349110 0.509980 0.359140 -0.609686
O7    O     O_R   0.458830 0.502730 0.629890 -0.610700
O8    O     O_R   0.541170 0.497270 0.370110 -0.585583
C3    C     C_R   0.575761 0.495939 0.680624 0.894779
C4    C     C_R   0.424613 0.506690 0.319101 0.890953
Zn1   Zn    Zn3+2 0.628240 0.491510 0.507320 0.982254
Zn2   Zn    Zn3+2 0.371760 0.508490 0.492680 0.972422
C5    C     C_R   0.624946 0.504873 0.784773 -0.088987
C6    C     C_R   0.383161 0.530898 0.215991 -0.080630
C7    C     C_R   0.792332 0.490251 0.943789 0.037831
C8    C     C_R   0.244374 0.616694 0.068084 0.021483
C9    C     C_R   0.746841 0.482627 0.843967 -0.243986
C10   C     C_R   0.271507 0.577667 0.161731 -0.270925
C11   C     C_R   0.549341 0.539978 0.824333 -0.155377
C12   C     C_R   0.466694 0.521614 0.176158 -0.149332
C13   C     C_R   0.594686 0.559684 0.922077 0.094627
C14   C     C_R   0.452064 0.573933 0.090457 0.086491
C15   C     C_R   0.715687 0.529669 0.983637 0.066830
C16   C     C_R   0.336812 0.616939 0.032299 0.072613
C17   C     C_R   0.517037 0.598344 0.960865 -0.078734
C18   C     C_R   0.547970 0.578516 0.059165 -0.079581
C19   C     C_R   0.673377 0.562775 0.121224 0.303254
C20   C     C_R   0.408270 0.652758 0.905728 0.274795
C21   C     C_R   0.755889 0.541445 0.082524 -0.232963
C22   C     C_R   0.320690 0.662387 0.942802 -0.227677
H1    H     H_    0.851235 0.534074 0.131315 0.225037
H2    H     H_    0.241716 0.707673 0.901326 0.236621
H3    H     H_    0.545738 0.475099 0.214649 0.184495
H4    H     H_    0.453352 0.549763 0.778194 0.183353
H5    H     H_    0.205399 0.583705 0.192298 0.165767
H6    H     H_    0.804912 0.454206 0.812626 0.160650
C23   C     C_R   0.536021 0.811707 0.502622 -0.060338
C24   C     C_R   0.464469 0.188201 0.498341 -0.053905
C25   C     C_R   0.356309 0.029626 0.511137 -0.185820
C26   C     C_R   0.644604 0.970265 0.490543 -0.199136
C27   C     C_R   0.363517 0.137107 0.507307 -0.189431
C28   C     C_R   0.637081 0.862800 0.493841 -0.168891
C29   C     C_R   0.557172 0.132588 0.491806 -0.266561
C30   C     C_R   0.443680 0.867275 0.509770 -0.237043
C31   C     C_R   0.551035 0.025847 0.495947 0.177429
C32   C     C_R   0.449948 0.974027 0.505858 0.177206
H7    H     H_    0.365950 0.827739 0.517570 0.172738
H8    H     H_    0.634928 0.172084 0.484024 0.160768
H9    H     H_    0.708886 0.819983 0.488263 0.168000
H10   H     H_    0.291495 0.179944 0.512524 0.161047
H11   H     H_    0.278395 0.990168 0.518553 0.153000
H12   H     H_    0.722540 0.009725 0.483165 0.146888
N1    N     N_R   0.799120 0.480200 0.517090 -0.109044
N2    N     N_R   0.200880 0.519800 0.482910 -0.099120
C33   C     C_R   0.026367 0.625390 0.446744 -0.224187
C34   C     C_R   0.976536 0.376741 0.557920 -0.306095
C35   C     C_R   0.140937 0.609492 0.445995 0.041094
C36   C     C_R   0.859532 0.390868 0.554808 0.022538
C37   C     C_R   0.149043 0.443062 0.520615 -0.021824
C38   C     C_R   0.853878 0.559069 0.484117 0.067086
C39   C     C_R   0.032765 0.455000 0.521507 0.089247
C40   C     C_R   0.971122 0.547788 0.484685 0.127559
H13   H     H_    0.804910 0.629539 0.454872 0.150655
H14   H     H_    0.198687 0.373070 0.550826 0.120111
H15   H     H_    0.816581 0.329411 0.581986 0.135039
H16   H     H_    0.182716 0.670040 0.416899 0.127137
H17   H     H_    0.980985 0.697434 0.417177 0.159136
H18   H     H_    0.021799 0.304633 0.587406 0.148421
C41   C     C_2   0.917036 0.450655 0.001232 0.364581
H19   H     H_    0.982714 0.451585 0.969425 0.106366
O9    O     O_2   0.945512 0.410263 0.080993 -0.566050
C42   C     C_2   0.119384 0.656405 0.012866 0.350196
H20   H     H_    0.069848 0.685660 0.051177 0.079845
O10   O     O_2   0.066994 0.650874 0.925544 -0.577180
N3    N     N_R   0.721898 0.577306 0.222749 0.183356
O11   O     O_R   0.691384 0.656451 0.256449 -0.423327
O12   O     O_R   0.804823 0.515916 0.281134 -0.427669
N4    N     N_R   0.392453 0.709765 0.818411 0.196472
O13   O     O_R   0.485984 0.758652 0.810693 -0.377010
O14   O     O_R   0.282931 0.722623 0.750740 -0.400355

loop_
_geom_bond_atom_site_label_1
_geom_bond_atom_site_label_2
_geom_bond_distance
_ccdc_geom_bond_type
C15   C21   1.397294 A    
Zn2   N2    2.004825 S    
C16   C22   1.404409 A    
C8    C16   1.427878 A    
C11   H4    1.080162 S    
N3    O11   1.301520 A    
O5    C3    1.288921 A    
C12   H3    1.080304 S    
C30   H7    1.085185 S    
C42   O10   1.220316 D    
O1    C1    1.283922 A    
C18   C19   1.422910 A    
C14   C16   1.420512 A    
C27   H10   1.083324 S    
C33   C35   1.405650 A    
C34   C36   1.406038 A    
N1    C38   1.368868 A    
O4    Zn1   2.014595 S    
C37   C39   1.417573 A    
C38   C40   1.418315 A    
C3    C5    1.458891 S    
C37   H14   1.082524 S    
C24   C27   1.400145 A    
C4    C6    1.466470 S    
C36   H15   1.080980 S    
C6    C12   1.386965 A    
C21   H1    1.079137 S    
C13   C17   1.419161 A    
O6    C4    1.292527 A    
C20   N4    1.439538 S    
C29   C31   1.374088 A    
C8    C42   1.485394 S    
N1    C36   1.365126 A    
C17   C20   1.424446 A    
C25   C27   1.383754 A    
O2    C2    1.283858 A    
C26   C28   1.383497 A    
N3    O12   1.299790 A    
C24   C29   1.396635 A    
C30   C32   1.374183 A    
C42   H20   1.085771 S    
N4    O14   1.301638 A    
C41   O9    1.220162 D    
C34   H18   1.083240 S    
C22   H2    1.078613 S    
C5    C9    1.397430 A    
O7    Zn2   1.915195 S    
C9    H6    1.084518 S    
C35   H16   1.081058 S    
C31   C32   1.411866 A    
C5    C11   1.388567 A    
C6    C10   1.398894 A    
O7    C3    1.293259 A    
C25   H11   1.084096 S    
O3    Zn2   2.014593 S    
O8    C4    1.293923 A    
C23   C30   1.396659 A    
C28   H9    1.083360 S    
O4    C2    1.286592 A    
C7    C41   1.486979 S    
C11   C13   1.393426 A    
C12   C14   1.393938 A    
O1    Zn1   1.990266 S    
C33   C40   1.403514 A    
C34   C39   1.402999 A    
O6    Zn2   1.946789 S    
C38   H13   1.082112 S    
N2    C37   1.369491 A    
C14   C18   1.417201 A    
N4    O13   1.301785 A    
O3    C1    1.286744 A    
O8    Zn1   1.915197 S    
C23   C28   1.400040 A    
N2    C35   1.364923 A    
C7    C15   1.424553 A    
C41   H19   1.085477 S    
C19   C21   1.394612 A    
C26   H12   1.084079 S    
C20   C22   1.401125 A    
C10   H5    1.084347 S    
C29   H8    1.085126 S    
C7    C9    1.398282 A    
C25   C32   1.397955 A    
C8    C10   1.404839 A    
C26   C31   1.397928 A    
C13   C15   1.423346 A    
O2    Zn2   1.990266 S    
C39   C40   1.407191 A    
O5    Zn1   1.946790 S    
C19   N3    1.431919 S    
C1    C24   1.434899 S    
C17   C18   1.405464 A    
C2    C23   1.434409 S    
C33   H17   1.083272 S    
Zn1   N1    2.004823 S    
