data_mof_unit_14303.cif
_audit_creation_date              2012-12-11T15:49:19-0500
_audit_creation_method            fapswitch 2.2
_symmetry_space_group_name_H-M    P1
_symmetry_Int_Tables_number       1
_space_group_crystal_system       triclinic
_cell_length_a                    8.262278
_cell_length_b                    19.030544
_cell_length_c                    26.999302
_cell_angle_alpha                 95.461832
_cell_angle_beta                  92.435039
_cell_angle_gamma                 85.575534
_cell_volume                      4210.74235936

loop_
_atom_site_label
_atom_site_type_symbol
_atom_type_description
_atom_site_fract_x
_atom_site_fract_y
_atom_site_fract_z
_atom_type_partial_charge
Ba1   Ba    Ba6+2 0.854000 0.466860 0.523710 1.647881
Ba2   Ba    Ba6+2 0.335820 0.533080 0.476290 1.648092
C1    C     C_3   0.650131 0.211561 0.652228 -0.377697
C2    C     C_R   0.881766 0.556718 0.171448 0.582271
C3    C     C_2   0.755160 0.544830 0.271646 -0.137781
C4    C     C_3   0.186881 0.310845 0.658187 0.334410
C5    C     C_3   0.745490 0.572296 0.325584 -0.055884
C6    C     C_1   0.984233 0.489915 0.341988 -0.023163
C7    C     C_2   0.018164 0.483739 0.292942 0.342732
C8    C     C_2   0.893678 0.509917 0.254641 0.184902
C9    C     C_R   0.979904 0.485799 0.097266 -0.088730
C10   C     C_R   0.029937 0.430887 0.127072 -0.121682
C11   C     C_R   0.112248 0.369397 0.104731 -0.019365
C12   C     C_3   0.664019 0.284264 0.634521 0.335868
C13   C     C_R   0.900948 0.548269 0.119391 -0.012002
C14   C     C_2   0.856736 0.530095 0.359686 -0.339253
C15   C     C_2   0.347760 0.482434 0.642921 -0.287590
C16   C     C_3   0.202383 0.288341 0.711096 -0.237395
C17   C     C_R   0.164738 0.422613 0.975097 0.028695
C18   C     C_R   0.956624 0.518958 0.961789 0.012625
C19   C     C_R   0.082148 0.469794 0.943227 0.003213
C20   C     C_R   0.303953 0.382078 0.957128 -0.108718
C21   C     C_R   0.351463 0.383626 0.908174 -0.053521
C22   C     C_R   0.261550 0.425576 0.874989 -0.006820
C23   C     C_3   0.527586 0.641987 0.627250 0.307715
C24   C     C_R   0.125246 0.467739 0.892495 -0.087851
C25   C     C_R   0.028147 0.505494 0.858812 -0.070087
C26   C     C_R   0.069019 0.500498 0.808137 0.598779
C27   C     C_R   0.306966 0.426884 0.824964 0.580080
C28   C     C_3   0.175206 0.311137 0.414050 0.657567
C29   C     C_2   0.439083 0.465389 0.729341 -0.132818
C30   C     C_3   0.493165 0.481437 0.678650 -0.042800
C31   C     C_1   0.214421 0.518819 0.658651 0.032922
C32   C     C_2   0.186072 0.530831 0.707483 0.067655
C33   C     C_2   0.282887 0.484821 0.743534 0.157221
C34   C     C_3   0.549443 0.663292 0.682754 -0.388841
C35   C     C_R   0.109262 0.420174 0.024405 -0.054312
C36   C     C_R   0.009489 0.478573 0.045257 0.006358
C37   C     C_R   0.939685 0.530168 0.014439 0.058774
C38   C     C_R   0.149885 0.362817 0.054259 0.367543
C39   C     C_R   0.846059 0.601988 0.089151 -0.073875
C40   C     C_3   0.090059 0.242420 0.413541 -0.349143
C41   C     C_R   0.852864 0.553896 0.926965 0.366611
C42   C     C_R   0.889070 0.546042 0.876050 -0.114641
C43   C     C_R   0.862948 0.592771 0.037708 -0.048074
C44   C     C_R   0.396146 0.299078 0.521568 -0.247054
C45   C     C_3   0.057855 0.686413 0.338153 0.328518
C46   C     C_R   0.538664 0.276944 0.497205 0.148889
C47   C     C_R   0.590642 0.204839 0.491763 -0.109016
C48   C     C_R   0.499453 0.154353 0.510656 -0.019347
C49   C     C_R   0.353436 0.177758 0.534529 -0.143502
C50   C     C_R   0.301282 0.249941 0.539139 0.001118
C51   C     C_R   0.539981 0.033893 0.542413 -0.078644
C52   C     C_3   0.003811 0.679884 0.577293 0.309310
C53   C     C_R   0.590024 0.961724 0.536081 -0.075516
C54   C     C_R   0.654257 0.930930 0.490879 0.059426
C55   C     C_R   0.669695 0.974689 0.452486 -0.080367
C56   C     C_3   0.068749 0.707876 0.285476 0.217645
C57   C     C_R   0.620025 0.047034 0.458890 -0.074128
C58   C     C_R   0.553757 0.077501 0.503881 0.061773
C59   C     C_R   0.844381 0.826914 0.458917 -0.129935
C60   C     C_R   0.890260 0.753911 0.454862 0.015089
C61   C     C_R   0.655591 0.732780 0.500201 0.042482
C62   C     C_R   0.608545 0.805187 0.504556 -0.120985
C63   C     C_R   0.701679 0.853357 0.483773 -0.013580
C64   C     C_3   0.981616 0.759720 0.589374 -0.395229
C65   C     C_R   0.791420 0.707282 0.473529 -0.288375
C66   C     C_3   0.717985 0.355073 0.370466 0.291687
C67   C     C_3   0.528600 0.726887 0.365267 0.358631
C68   C     C_3   0.788073 0.308014 0.325985 -0.329046
C69   C     C_3   0.599740 0.411031 0.350614 -0.242295
C70   C     C_3   0.139175 0.606766 0.726799 -0.301445
C71   C     C_3   0.045323 0.305696 0.738959 -0.348086
C72   C     C_3   0.490894 0.799675 0.346931 -0.337257
C73   C     C_R   0.991381 0.437550 0.178178 0.679016
H1    H     H_    0.779686 0.283797 0.615189 0.113945
H2    H     H_    0.816942 0.380198 0.392540 0.031369
H3    H     H_    0.651692 0.171057 0.619769 0.079104
H4    H     H_    0.861446 0.261448 0.338329 0.118959
H5    H     H_    0.866043 0.338371 0.304602 0.108660
H6    H     H_    0.688779 0.287912 0.300717 0.117579
H7    H     H_    0.560837 0.294569 0.608109 -0.030658
H8    H     H_    0.534530 0.210587 0.671584 0.115879
H9    H     H_    0.398112 0.632428 0.618635 0.014804
H10   H     H_    0.605467 0.592615 0.618032 0.050714
H11   H     H_    0.473858 0.712895 0.693159 0.123390
H12   H     H_    0.109664 0.209231 0.377878 0.091423
H13   H     H_    0.512167 0.621261 0.704630 0.060100
H14   H     H_    0.679019 0.671946 0.692196 0.129843
H15   H     H_    0.753531 0.198342 0.678112 0.128548
H16   H     H_    0.300914 0.316491 0.731649 0.144261
H17   H     H_    0.125111 0.633802 0.340191 0.039314
H18   H     H_    0.927992 0.682689 0.345589 -0.037187
H19   H     H_    0.195986 0.717575 0.277741 0.085453
H20   H     H_    0.031876 0.663699 0.258680 0.102761
H21   H     H_    0.662776 0.716384 0.366605 -0.051409
H22   H     H_    0.482356 0.727760 0.403358 0.075242
H23   H     H_    0.139881 0.211751 0.444409 0.084889
H24   H     H_    0.549840 0.840036 0.372545 0.066892
H25   H     H_    0.357860 0.813296 0.345634 0.140151
H26   H     H_    0.131543 0.366080 0.659110 0.062263
H27   H     H_    0.538003 0.800393 0.309079 0.144949
H28   H     H_    0.145778 0.324993 0.126321 0.148606
H29   H     H_    0.533101 0.444431 0.753921 0.167496
H30   H     H_    0.459840 0.351762 0.896449 0.124625
H31   H     H_    0.381866 0.350949 0.981224 0.130771
H32   H     H_    0.658155 0.561546 0.246031 0.141207
H33   H     H_    0.788112 0.651492 0.105147 0.133172
H34   H     H_    0.958288 0.252948 0.417910 0.111678
H35   H     H_    0.311512 0.309333 0.644147 -0.061322
H36   H     H_    0.809142 0.573048 0.849938 0.107930
H37   H     H_    0.823725 0.637314 0.017101 0.138780
H38   H     H_    0.846472 0.543989 0.399395 0.099253
H39   H     H_    0.341427 0.442976 0.611202 0.058335
H40   H     H_    0.501715 0.823806 0.525221 0.079656
H41   H     H_    0.579815 0.930137 0.566942 0.063544
H42   H     H_    0.492325 0.055818 0.577802 0.063899
H43   H     H_    0.700555 0.188224 0.472056 0.074992
H44   H     H_    0.716954 0.952686 0.417068 0.068688
H45   H     H_    0.886385 0.659188 0.564894 0.007038
H46   H     H_    0.630469 0.078866 0.428169 0.068653
H47   H     H_    0.923200 0.862874 0.445006 0.075994
H48   H     H_    0.278196 0.140086 0.548073 0.078282
H49   H     H_    0.828327 0.651302 0.471299 0.058379
H50   H     H_    0.354829 0.354605 0.524658 0.062193
H51   H     H_    0.236809 0.230597 0.709939 0.122835
H52   H     H_    0.159773 0.340712 0.451213 0.036522
H53   H     H_    0.572358 0.452257 0.381395 0.139709
H54   H     H_    0.651970 0.434844 0.319657 0.028005
H55   H     H_    0.487310 0.386976 0.335760 0.141699
H56   H     H_    0.091444 0.668130 0.547165 0.081128
H57   H     H_    0.019163 0.809282 0.294557 0.316789
H58   H     H_    0.215495 0.421650 0.295762 0.321997
H59   H     H_    0.165324 0.288415 0.000613 0.303875
H60   H     H_    0.650715 0.610096 0.913361 0.301872
H61   H     H_    0.007373 0.619411 0.719499 0.152371
H62   H     H_    0.167131 0.616432 0.767337 0.106444
H63   H     H_    0.208403 0.643994 0.708310 0.079407
H64   H     H_    0.010957 0.363436 0.741209 0.165258
H65   H     H_    0.945568 0.276766 0.719840 0.168820
H66   H     H_    0.062975 0.289605 0.777394 0.120050
H67   H     H_    0.885957 0.772955 0.617135 0.131132
H68   H     H_    0.349589 0.270793 0.372045 0.313420
H69   H     H_    0.945904 0.786278 0.555506 0.066889
H70   H     H_    0.097484 0.780124 0.604833 0.125300
N1    N     N_R   0.922841 0.501043 0.200755 -0.411919
N2    N     N_R   0.220680 0.470956 0.792698 -0.418793
O1    O     O_2   0.913240 0.537010 0.617740 -0.459607
O2    O     O_2   0.226557 0.750160 0.465234 -0.487639
O3    O     O_3   0.127274 0.736853 0.372226 -0.609050
O4    O     O_3   0.145240 0.536960 0.557560 -0.484511
O5    O     O_3   0.557280 0.416300 0.475860 -0.474838
O6    O     O_2   0.376710 0.670070 0.522470 -0.457106
O7    O     O_3   0.572947 0.697357 0.601318 -0.642998
O8    O     O_2   0.411381 0.540950 0.321538 -0.448473
O9    O     O_3   0.452349 0.675960 0.333065 -0.589957
O10   O     O_2   0.016545 0.386298 0.202174 -0.575203
O11   O     O_2   0.419802 0.386387 0.810191 -0.614295
O12   O     O_3   0.633007 0.313187 0.398632 -0.589162
O13   O     O_2   0.829712 0.614298 0.190637 -0.589966
O14   O     O_2   0.966325 0.520581 0.777810 -0.596592
O15   O     O_3   0.669960 0.410470 0.588880 -0.497002
O16   O     O_2   0.831280 0.444152 0.673861 -0.450623
O17   O     O_3   0.061409 0.650069 0.620497 -0.642826
O18   O     O_3   0.659933 0.335674 0.675423 -0.606176
O19   O     O_2   0.812980 0.329910 0.477500 -0.495224
O20   O     O_3   0.078660 0.374870 0.564770 -0.485948
O21   O     O_2   0.961143 0.249643 0.537558 -0.500813
O22   O     O_3   0.964195 0.767989 0.278479 -0.697947
O23   O     O_3   0.091303 0.264575 0.627971 -0.605253
O24   O     O_3   0.170375 0.460359 0.276185 -0.671048
O25   O     O_3   0.211663 0.297070 0.034923 -0.725315
O26   O     O_3   0.709541 0.590175 0.942237 -0.743186
O27   O     O_3   0.338899 0.292746 0.406784 -0.758116
O28   O     O_2   0.276450 0.462960 0.382230 -0.457466
O29   O     O_3   0.044470 0.462980 0.442430 -0.494871
O30   O     O_3   0.519740 0.589470 0.411120 -0.481971
O31   O     O_3   0.112981 0.349921 0.374865 -0.672843
O32   O     O_3   0.632420 0.583650 0.524140 -0.479286
O33   O     O_3   0.111040 0.625070 0.435230 -0.486344
P1    P     P_3+3 0.082480 0.557670 0.610090 0.995515
P2    P     P_3+3 0.635220 0.340300 0.462910 1.041467
P3    P     P_3+3 0.106676 0.283139 0.566173 0.934439
P4    P     P_3+3 0.107220 0.442270 0.389900 0.983560
P5    P     P_3+3 0.089117 0.717163 0.432356 0.948041
P6    P     P_3+3 0.664240 0.419704 0.653954 0.977280
P7    P     P_3+3 0.561599 0.672334 0.537290 0.950359
P8    P     P_3+3 0.532363 0.592186 0.347172 0.965443

loop_
_geom_bond_atom_site_label_1
_geom_bond_atom_site_label_2
_ccdc_geom_bond_type
C34   H14   S    
C57   H46   S    
C46   P2    S    
C53   C54   A    
Ba1   O29   S    
O2    P5    D    
C39   H33   S    
C52   H45   S    
O23   P3    S    
C49   H48   S    
C45   H17   S    
C44   H50   S    
O19   P2    D    
C50   P3    S    
C19   C24   A    
C67   H21   S    
C14   H38   S    
O3    P5    S    
C43   H37   S    
C71   H66   S    
C34   H13   S    
C52   H56   S    
C24   C25   A    
O30   P8    S    
Ba2   O33   S    
C60   C65   A    
C1    H15   S    
C16   H16   S    
H60   O26   S    
C17   C19   A    
C40   H34   S    
C22   C24   A    
C32   C33   S    
C35   C38   A    
O8    P8    D    
C40   H23   S    
C4    O23   S    
C36   C37   A    
C51   H42   S    
C55   C57   A    
O32   P7    S    
C53   H41   S    
Ba1   O20   S    
C54   C63   S    
C21   H30   S    
C44   C50   A    
Ba2   O4    S    
C54   C55   A    
Ba1   O5    S    
Ba1   Ba2   S    
C4    H26   S    
C68   H6    S    
C22   C27   A    
C64   H70   S    
O17   P1    S    
C17   C35   A    
Ba2   O29   S    
C9    C13   A    
C25   C42   A    
O20   P3    S    
C29   C30   S    
O1    P1    D    
C11   C38   A    
C15   H39   S    
C23   H9    S    
C21   C22   A    
C2    O13   D    
Ba2   O30   S    
C11   H28   S    
C66   O12   S    
C7    C8    S    
C37   C43   A    
C6    P4    S    
C70   H63   S    
C23   O7    S    
C57   C58   A    
C6    C14   D    
C62   H40   S    
H59   O25   S    
C65   H49   S    
C4    H35   S    
C15   C31   D    
C51   C58   A    
C26   O14   D    
O4    P1    S    
C44   C46   A    
O9    P8    S    
C73   N1    Am   
Ba2   O5    S    
C4    C16   S    
C61   C65   A    
C67   O9    S    
C68   H5    S    
C49   C50   A    
C5    P8    S    
C56   O22   S    
C13   C39   A    
C3    C5    S    
C18   C37   A    
Ba1   P1    S    
C6    C7    D    
C72   H25   S    
C71   H64   S    
C34   H11   S    
C20   H31   S    
C59   H47   S    
C12   H1    S    
C9    C36   A    
C56   H20   S    
C35   C36   A    
Ba2   O28   S    
C69   H54   S    
C47   H43   S    
C45   O3    S    
C9    C10   A    
O21   P3    D    
C2    N1    Am   
C17   C20   A    
C23   H10   S    
C48   C49   A    
C28   O31   S    
C67   C72   S    
Ba2   P4    S    
C18   C19   A    
C12   O18   S    
C27   O11   D    
C1    C12   S    
C8    N1    S    
C60   P5    S    
C64   H67   S    
C70   H62   S    
Ba1   O15   S    
Ba2   O6    S    
C61   P7    S    
O16   P6    D    
C41   C42   A    
C1    H8    S    
C29   C33   D    
C69   H53   S    
C7    O24   S    
H57   O22   S    
C12   H7    S    
C51   C53   A    
O5    P2    S    
C32   C70   S    
C38   O25   S    
C18   C41   A    
O15   P6    S    
C3    H32   S    
C66   H2    S    
O29   P4    S    
C28   H52   S    
C46   C47   A    
C26   N2    Am   
C45   H18   S    
C68   H4    S    
C5    C14   S    
C27   N2    Am   
Ba1   P2    S    
C72   H24   S    
C52   C64   S    
C71   H65   S    
C30   P6    S    
C16   C71   S    
O6    P7    D    
O7    P7    S    
O18   P6    S    
C55   H44   S    
C72   H27   S    
C48   C58   S    
C62   C63   A    
C2    C13   A    
H58   O24   S    
C3    C8    D    
C16   H51   S    
C69   H55   S    
C31   P1    S    
Ba1   O32   S    
C73   O10   D    
C41   O26   S    
Ba1   O19   S    
C66   C69   S    
C31   C32   D    
Ba1   O4    S    
C33   N2    S    
O12   P2    S    
C56   H19   S    
C59   C60   A    
C70   H61   S    
O33   P5    S    
C23   C34   S    
C61   C62   A    
C42   H36   S    
C59   C63   A    
C29   H29   S    
C64   H69   S    
C10   C11   A    
C66   C68   S    
C47   C48   A    
Ba2   O32   S    
C10   C73   A    
C25   C26   A    
C15   C30   S    
C39   C43   A    
C20   C21   A    
C28   C40   S    
Ba1   O1    S    
C40   H12   S    
H68   O27   S    
C52   O17   S    
C1    H3    S    
C28   O27   S    
O31   P4    S    
O28   P4    D    
C45   C56   S    
C67   H22   S    
