data_mof_unit_31966.cif
_audit_creation_date              2012-12-11T15:50:33-0500
_audit_creation_method            fapswitch 2.2
_symmetry_space_group_name_H-M    P1
_symmetry_Int_Tables_number       1
_space_group_crystal_system       triclinic
_cell_length_a                    6.913122
_cell_length_b                    14.399936
_cell_length_c                    16.340863
_cell_angle_alpha                 90.119387
_cell_angle_beta                  90.026332
_cell_angle_gamma                 89.805372
_cell_volume                      1626.69555185

loop_
_atom_site_label
_atom_site_type_symbol
_atom_type_description
_atom_site_fract_x
_atom_site_fract_y
_atom_site_fract_z
_atom_type_partial_charge
O1    O     O_R   0.638140 0.833910 0.163320 -0.544319
O2    O     O_R   0.361860 0.166090 0.836680 -0.544318
O3    O     O_R   0.361860 0.166090 0.663320 -0.547955
O4    O     O_R   0.638140 0.833910 0.336680 -0.547955
O5    O     O_R   0.138140 0.666090 0.336680 -0.544262
O6    O     O_R   0.861860 0.333910 0.663320 -0.544262
O7    O     O_R   0.861860 0.333910 0.836680 -0.577139
O8    O     O_R   0.138140 0.666090 0.163320 -0.577138
O9    O     O_R   0.308390 0.844930 0.336080 -0.510077
O10   O     O_R   0.691610 0.155070 0.663920 -0.510077
O11   O     O_R   0.691610 0.155070 0.836080 -0.527288
O12   O     O_R   0.308390 0.844930 0.163920 -0.527288
O13   O     O_R   0.808390 0.655070 0.163920 -0.506621
O14   O     O_R   0.191610 0.344930 0.836080 -0.506621
O15   O     O_R   0.191610 0.344930 0.663920 -0.511840
O16   O     O_R   0.808390 0.655070 0.336080 -0.511840
C1    C     C_R   0.476181 0.866186 0.365744 0.837135
C2    C     C_R   0.523818 0.133813 0.634256 0.837135
C3    C     C_R   0.523455 0.134043 0.865924 0.757084
C4    C     C_R   0.476545 0.865957 0.134075 0.757085
C5    C     C_R   0.977304 0.634012 0.134205 0.763514
C6    C     C_R   0.022696 0.365988 0.865795 0.763514
C7    C     C_R   0.023307 0.365860 0.634034 0.847070
C8    C     C_R   0.976693 0.634140 0.365966 0.847070
O17   O     O_3   0.471620 0.691320 0.250000 -0.381543
O18   O     O_3   0.528380 0.308680 0.750000 -0.381543
O19   O     O_3   0.971620 0.808680 0.250000 -0.375531
O20   O     O_3   0.028380 0.191320 0.750000 -0.375531
V1    V     V_3+5 0.196770 0.760880 0.250000 1.475809
V2    V     V_3+5 0.803230 0.239120 0.750000 1.475809
V3    V     V_3+5 0.696770 0.739120 0.250000 1.505801
V4    V     V_3+5 0.303230 0.260880 0.750000 1.505801
C9    C     C_R   0.867500 0.486947 0.435133 0.169884
C10   C     C_R   0.132500 0.513053 0.564867 0.169884
C11   C     C_R   0.123441 0.516024 0.932617 0.259218
C12   C     C_R   0.876559 0.483976 0.067383 0.259219
C13   C     C_R   0.340643 0.001880 0.053815 0.194934
C14   C     C_R   0.659357 0.998121 0.946185 0.194934
C15   C     C_R   0.637445 0.987702 0.562935 0.173238
C16   C     C_R   0.362555 0.012297 0.437065 0.173238
C17   C     C_R   0.887940 0.417560 0.496350 -0.112031
C18   C     C_R   0.112060 0.582440 0.503650 -0.112031
C19   C     C_R   0.108528 0.583060 0.996174 -0.103659
C20   C     C_R   0.891472 0.416940 0.003826 -0.103659
C21   C     C_R   0.357393 0.070036 0.991953 -0.118054
C22   C     C_R   0.642607 0.929964 0.008047 -0.118055
C23   C     C_R   0.614425 0.918106 0.502090 -0.112132
C24   C     C_R   0.385575 0.081894 0.497909 -0.112131
C25   C     C_R   0.015572 0.432333 0.563416 -0.110707
C26   C     C_R   0.984428 0.567666 0.436584 -0.110707
C27   C     C_R   0.988215 0.566077 0.064878 -0.183430
C28   C     C_R   0.011785 0.433923 0.935122 -0.183430
C29   C     C_R   0.514384 0.067125 0.936111 -0.119183
C30   C     C_R   0.485616 0.932875 0.063889 -0.119183
C31   C     C_R   0.482777 0.932324 0.436645 -0.108998
C32   C     C_R   0.517223 0.067676 0.563355 -0.108998
N1    N     N_2   0.736233 0.473954 0.368626 -0.529207
H1    H     H_    0.747476 0.410705 0.339307 0.242951
C33   C     C_3   0.538291 0.501906 0.385135 -0.460284
H2    H     H_    0.469455 0.454636 0.429904 0.166847
H3    H     H_    0.453375 0.499901 0.327537 0.184992
H4    H     H_    0.532641 0.573738 0.409861 0.225353
N2    N     N_2   0.263767 0.526046 0.631374 -0.529207
H5    H     H_    0.252524 0.589295 0.660693 0.242951
C34   C     C_3   0.461709 0.498094 0.614865 -0.460284
H6    H     H_    0.530545 0.545364 0.570096 0.166847
H7    H     H_    0.467358 0.426262 0.590140 0.225353
H8    H     H_    0.546625 0.500099 0.672463 0.184993
N3    N     N_2   0.252089 0.530063 0.865552 -0.509310
H9    H     H_    0.229443 0.590530 0.833345 0.286786
C35   C     C_3   0.453970 0.512079 0.883482 -0.454861
H10   H     H_    0.539219 0.514813 0.826032 0.183684
H11   H     H_    0.511787 0.564937 0.926494 0.186166
H12   H     H_    0.472255 0.441958 0.910656 0.193093
N4    N     N_2   0.747911 0.469937 0.134447 -0.509310
H13   H     H_    0.770557 0.409470 0.166655 0.286786
C36   C     C_3   0.546030 0.487921 0.116518 -0.454859
H14   H     H_    0.460782 0.485187 0.173968 0.183684
H15   H     H_    0.527745 0.558041 0.089344 0.193092
H16   H     H_    0.488212 0.435063 0.073507 0.186167
N5    N     N_2   0.180523 0.004950 0.108550 -0.514348
H17   H     H_    0.047660 0.012308 0.080637 0.229828
C37   C     C_3   0.206384 0.066545 0.177437 -0.472170
H18   H     H_    0.224538 0.139424 0.156901 0.205176
H19   H     H_    0.335747 0.045156 0.213134 0.192519
H20   H     H_    0.076276 0.063461 0.216850 0.194633
N6    N     N_2   0.819477 0.995050 0.891450 -0.514348
H21   H     H_    0.952340 0.987691 0.919363 0.229829
C38   C     C_3   0.793615 0.933455 0.822563 -0.472170
H22   H     H_    0.775456 0.860577 0.843098 0.205177
H23   H     H_    0.923724 0.936539 0.783150 0.194633
H24   H     H_    0.664253 0.954845 0.786866 0.192519
N7    N     N_2   0.774191 0.975153 0.627311 -0.542143
H25   H     H_    0.772337 0.910022 0.653208 0.235618
C39   C     C_3   0.968077 0.007198 0.609320 -0.474212
H26   H     H_    0.041920 0.959001 0.566482 0.169839
H27   H     H_    0.054079 0.010275 0.666540 0.188269
H28   H     H_    0.964870 0.077865 0.582360 0.227134
N8    N     N_2   0.225809 0.024847 0.372689 -0.542143
H29   H     H_    0.227663 0.089977 0.346792 0.235618
C40   C     C_3   0.031923 0.992802 0.390680 -0.474213
H30   H     H_    0.958080 0.040999 0.433518 0.169839
H31   H     H_    0.035130 0.922134 0.417640 0.227134
H32   H     H_    0.945920 0.989725 0.333460 0.188269
C41   C     C_2   0.781398 0.328168 0.486238 0.343900
H33   H     H_    0.650628 0.324854 0.450124 0.108262
O21   O     O_2   0.842682 0.255657 0.514824 -0.550815
C42   C     C_2   0.218602 0.671832 0.513762 0.343900
H34   H     H_    0.349373 0.675146 0.549876 0.108262
O22   O     O_2   0.157318 0.744343 0.485176 -0.550815
C43   C     C_2   0.214068 0.672428 0.989057 0.389351
H35   H     H_    0.309512 0.695666 0.037429 0.069592
O23   O     O_2   0.193179 0.721660 0.928971 -0.535509
C44   C     C_2   0.785932 0.327572 0.010943 0.389351
H36   H     H_    0.690489 0.304333 0.962571 0.069592
O24   O     O_2   0.806820 0.278341 0.071029 -0.535509
C45   C     C_2   0.217279 0.148674 0.991543 0.404977
H37   H     H_    0.063059 0.136037 0.995432 0.064101
O25   O     O_2   0.274552 0.228792 0.990446 -0.539889
C46   C     C_2   0.782721 0.851326 0.008457 0.404979
H38   H     H_    0.936941 0.863963 0.004569 0.064101
O26   O     O_2   0.725447 0.771208 0.009553 -0.539889
C47   C     C_2   0.722442 0.828805 0.510781 0.342351
H39   H     H_    0.860975 0.826815 0.541354 0.106911
O27   O     O_2   0.653951 0.755423 0.487377 -0.548505
C48   C     C_2   0.277558 0.171194 0.489219 0.342351
H40   H     H_    0.139025 0.173184 0.458646 0.106911
O28   O     O_2   0.346050 0.244577 0.512623 -0.548505

loop_
_geom_bond_atom_site_label_1
_geom_bond_atom_site_label_2
_ccdc_geom_bond_type
O17   V3    S    
N6    H21   S    
N2    C34   S    
O18   V4    S    
N7    H25   S    
O12   V1    S    
O19   V1    S    
O16   C8    A    
C39   H26   S    
C10   C18   A    
C19   C27   A    
C16   N8    S    
C44   H36   S    
C39   H28   S    
C47   H39   S    
C36   H14   S    
O16   V3    S    
C41   O21   D    
O11   C3    A    
C48   H40   S    
C17   C41   S    
O12   C4    A    
O8    V1    S    
C23   C31   A    
C45   O25   D    
N1    C33   S    
O1    V3    S    
C42   H34   S    
O3    C2    A    
O2    V4    S    
N3    C35   S    
C16   C24   A    
C15   N7    S    
C37   H18   S    
O11   V2    S    
C34   H7    S    
C48   O28   D    
C38   H23   S    
C11   C19   A    
C1    C31   S    
C2    C32   S    
C16   C31   A    
C3    C29   S    
C24   C48   S    
O15   C7    A    
C21   C29   A    
C33   H2    S    
N7    C39   S    
O7    V2    S    
O17   V1    S    
C13   N5    S    
O3    V4    S    
C19   C43   S    
C17   C25   A    
N5    C37   S    
C46   O26   D    
N5    H17   S    
O5    V1    S    
C36   H15   S    
C8    C26   S    
C33   H3    S    
O13   C5    A    
C40   H30   S    
O20   V4    S    
C4    C30   S    
C35   H11   S    
C33   H4    S    
C9    C26   A    
O19   V3    S    
O6    V2    S    
N4    H13   S    
C12   N4    S    
O10   V2    S    
C23   C47   S    
N8    H29   S    
C34   H8    S    
C22   C30   A    
O8    C5    A    
C22   C46   S    
C43   O23   D    
C15   C32   A    
C38   H24   S    
N4    C36   S    
C14   C29   A    
C12   C27   A    
C18   C26   A    
O4    C1    A    
O9    C1    A    
C37   H19   S    
O18   V2    S    
C40   H32   S    
N6    C38   S    
C12   C20   A    
C13   C30   A    
C13   C21   A    
C5    C27   S    
C46   H38   S    
C15   C23   A    
C36   H16   S    
C21   C45   S    
C24   C32   A    
C10   C25   A    
C9    N1    S    
C43   H35   S    
N8    C40   S    
O2    C3    A    
O13   V3    S    
O14   V4    S    
O1    C4    A    
O15   V4    S    
C35   H12   S    
C44   O24   D    
C39   H27   S    
O9    V1    S    
O7    C6    A    
C41   H33   S    
C14   N6    S    
C9    C17   A    
O14   C6    A    
O20   V2    S    
C35   H10   S    
C45   H37   S    
C20   C28   A    
N1    H1    S    
O5    C8    A    
O10   C2    A    
O6    C7    A    
C10   N2    S    
C42   O22   D    
C6    C28   S    
N3    H9    S    
C14   C22   A    
O4    V3    S    
C47   O27   D    
C20   C44   S    
N2    H5    S    
C37   H20   S    
C7    C25   S    
C11   N3    S    
C40   H31   S    
C34   H6    S    
C11   C28   A    
C38   H22   S    
C18   C42   S    
