data_mof_unit_26987.cif
_audit_creation_date              2013-03-05T15:50:33-0500
_audit_creation_method            fapswitch 2.2
_symmetry_space_group_name_H-M    P1
_symmetry_Int_Tables_number       1
_space_group_crystal_system       triclinic
_cell_length_a                    9.600654
_cell_length_b                    10.862358
_cell_length_c                    13.444992
_cell_angle_alpha                 92.935344
_cell_angle_beta                  72.885487
_cell_angle_gamma                 90.727483
_cell_volume                      1338.27062038

loop_
_atom_site_label
_atom_site_type_symbol
_atom_site_description
_atom_site_fract_x
_atom_site_fract_y
_atom_site_fract_z
_atom_type_partial_charge
O1    O     O_R   0.381190 0.680360 0.500010 -0.543194
O2    O     O_R   0.618760 0.680340 0.500000 -0.579422
C1    C     C_R   0.503999 0.736546 0.491304 0.826746
O3    O     O_R   0.323240 0.499990 0.650990 -0.530914
O4    O     O_R   0.560820 0.499960 0.650980 -0.595380
C2    C     C_R   0.423729 0.484847 0.698237 0.826638
Cu1   Cu    Cu3+1 0.359340 0.500010 0.500010 0.979057
Cu2   Cu    Cu3+1 0.640660 0.499990 0.499990 0.941305
O5    O     O_R   0.381240 0.319660 0.500000 -0.623661
O6    O     O_R   0.618810 0.319640 0.499990 -0.604021
O7    O     O_R   0.439180 0.500040 0.349020 -0.615418
O8    O     O_R   0.676760 0.500010 0.349010 -0.596372
C3    C     C_R   0.496345 0.262096 0.503791 0.776729
C4    C     C_R   0.577858 0.499384 0.300210 0.783424
C5    C     C_R   0.807583 0.489290 0.020017 -0.155546
H1    H     H_    0.852362 0.520465 0.165942 0.156733
H2    H     H_    0.860118 0.430725 0.818742 0.164888
H3    H     H_    0.919769 0.502050 0.975255 0.145283
C6    C     C_R   0.622100 0.491870 0.186214 -0.030134
C7    C     C_R   0.237422 0.431030 0.862727 -0.156371
C8    C     C_R   0.196471 0.407709 0.968209 -0.117958
C9    C     C_R   0.297654 0.416436 0.023711 -0.155504
C10   C     C_R   0.446498 0.436788 0.972436 0.081232
C11   C     C_R   0.491648 0.436617 0.862055 0.088306
C12   C     C_R   0.552822 0.455086 0.026497 0.077751
C13   C     C_R   0.702270 0.461630 0.969344 0.170154
C14   C     C_R   0.745585 0.437347 0.862284 -0.206746
C15   C     C_R   0.642001 0.420047 0.809983 -0.194016
C16   C     C_R   0.515212 0.471998 0.135225 -0.247808
C17   C     C_R   0.768493 0.502175 0.128099 -0.150760
C18   C     C_R   0.384408 0.450245 0.808588 -0.114268
H4    H     H_    0.402947 0.471502 0.181839 0.155952
H5    H     H_    0.154241 0.431585 0.823153 0.176268
H6    H     H_    0.256844 0.402040 0.105848 0.139931
H7    H     H_    0.085108 0.384931 0.008631 0.160518
H8    H     H_    0.710699 0.892458 0.519322 0.169772
C19   C     C_R   0.296245 0.871337 0.409214 -0.103585
C20   C     C_R   0.165901 0.926812 0.410214 -0.083576
H9    H     H_    0.090888 0.878456 0.375702 0.144009
C21   C     C_R   0.129273 0.041846 0.460375 -0.113212
H10   H     H_    0.023761 0.081829 0.467651 0.138353
C22   C     C_R   0.229783 0.107010 0.499195 -0.155271
C23   C     C_R   0.370297 0.057778 0.487841 0.095921
C24   C     C_R   0.392462 0.931650 0.457921 0.119582
C25   C     C_R   0.508164 0.869803 0.479898 -0.117634
C26   C     C_R   0.619018 0.937673 0.504959 -0.180400
H11   H     H_    0.703689 0.114697 0.527718 0.160538
C27   C     C_R   0.612713 0.064934 0.512894 -0.172227
C28   C     C_R   0.489338 0.126990 0.505425 -0.100626
C29   C     C_R   0.912377 0.339948 0.357815 -0.232261
C30   C     C_R   0.012181 0.262135 0.286124 0.305964
C31   C     C_R   0.155880 0.262115 0.287966 -0.305347
C32   C     C_R   0.199407 0.338587 0.359058 -0.215535
H12   H     H_    0.310387 0.327375 0.355491 0.227862
C33   C     C_R   0.102261 0.420964 0.430397 0.134368
C34   C     C_R   0.953054 0.421247 0.430154 0.137486
N1    N     N_R   0.852480 0.498790 0.499000 -0.217174
C35   C     C_R   0.899026 0.574771 0.566376 -0.132909
C36   C     C_R   0.046569 0.575097 0.566904 0.400725
N2    N     N_R   0.148360 0.498710 0.498970 -0.259028
H13   H     H_    0.320804 0.781456 0.369765 0.143475
H14   H     H_    0.191375 0.192648 0.541764 0.171466
H15   H     H_    0.821387 0.635749 0.620779 0.176111
H16   H     H_    0.804029 0.332956 0.354331 0.237626
N3    N     N_R   0.967033 0.182541 0.212197 0.125530
O9    O     O_R   0.832642 0.182746 0.209419 -0.375505
O10   O     O_R   0.060522 0.110107 0.145916 -0.347764
H17   H     H_    0.235569 0.201509 0.234745 0.206046
N4    N     N_R   0.086977 0.656001 0.640671 0.148671
O11   O     O_R   0.059784 0.622929 0.736102 -0.391816
O12   O     O_R   0.103556 0.772605 0.622782 -0.357896
H18   H     H_    0.683415 0.388590 0.729435 0.184840

loop_
_geom_bond_atom_site_label_1
_geom_bond_atom_site_label_2
_geom_bond_distance
_ccdc_geom_bond_type
C5    H3    1.079215 S    
C19   H13   1.081351 S    
C23   C24   1.408802 A    
O6    C3    1.313371 A    
H8    C26   1.083506 S    
C19   C20   1.392009 A    
C8    H7    1.079225 S    
Cu2   N1    2.029936 S    
O4    Cu2   1.947537 S    
C29   H16   1.056556 S    
C22   H14   1.076488 S    
H11   C27   1.083611 S    
C31   H17   1.083078 S    
Cu2   O8    1.956191 S    
C19   C24   1.417061 A    
C21   C22   1.394937 A    
C29   C30   1.398268 A    
C13   C14   1.387814 A    
C11   C18   1.431468 A    
C36   N2    1.376726 A    
O1    Cu1   1.967577 S    
C32   H12   1.060654 S    
C7    C8    1.391455 A    
Cu1   O7    1.947537 S    
N1    C35   1.361538 A    
C15   H18   1.076941 S    
C36   N4    1.426528 S    
O3    Cu1   1.956192 S    
C3    C28   1.469244 S    
C7    H5    1.082329 S    
C23   C28   1.430481 A    
C8    C9    1.388021 A    
C27   C28   1.401666 A    
C20   C21   1.387476 A    
O8    C4    1.303144 A    
O2    C1    1.304044 A    
C16   H4    1.075702 S    
C29   C34   1.416032 A    
N4    O11   1.300436 A    
C32   C33   1.413262 A    
C12   C16   1.401664 A    
O4    C2    1.294578 A    
C9    H6    1.076556 S    
O7    C4    1.299558 A    
C26   C27   1.381736 A    
C33   C34   1.433492 A    
C35   C36   1.418577 A    
O3    C2    1.317870 A    
N4    O12   1.300388 A    
C22   C23   1.420533 A    
C10   C11   1.418269 A    
H1    C17   1.083238 S    
C30   C31   1.387097 A    
H2    C14   1.084349 S    
C25   C26   1.398355 A    
Cu1   N2    2.029571 S    
Cu1   Cu2   2.700779 S    
C10   C12   1.423567 A    
C20   H9    1.082579 S    
C34   N1    1.383243 A    
C5    C17   1.389833 A    
Cu2   O6    1.967576 S    
N3    O9    1.301749 A    
C30   N3    1.442000 S    
C35   H15   1.082306 S    
Cu1   O5    1.972918 S    
O5    C3    1.291798 A    
C9    C10   1.412063 A    
C21   H10   1.082970 S    
C5    C13   1.397666 A    
C2    C18   1.486240 S    
O1    C1    1.297751 A    
C12   C13   1.417128 A    
C33   N2    1.382029 A    
C6    C17   1.398931 A    
N3    O10   1.301599 A    
C4    C6    1.463237 S    
C1    C25   1.462183 S    
O2    Cu2   1.972919 S    
C24   C25   1.415984 A    
C11   C15   1.416007 A    
C31   C32   1.386800 A    
C14   C15   1.382777 A    
C7    C18   1.402955 A    
C6    C16   1.401038 A    
