data_mof_unit_63501.cif
_audit_creation_date              2012-12-10T19:06:49-0500
_audit_creation_method            fapswitch 2.2
_symmetry_space_group_name_H-M    P1
_symmetry_Int_Tables_number       1
_space_group_crystal_system       triclinic
_cell_length_a                    13.07159
_cell_length_b                    13.627414
_cell_length_c                    16.8322
_cell_angle_alpha                 89.305879
_cell_angle_beta                  93.096925
_cell_angle_gamma                 94.018443
_cell_volume                      2986.50909091

loop_
_atom_site_label
_atom_site_type_symbol
_atom_type_description
_atom_site_fract_x
_atom_site_fract_y
_atom_site_fract_z
_atom_type_partial_charge
Br1   Br    Br    0.714034 0.617529 0.737820 -0.392433
Br2   Br    Br    0.286449 0.381635 0.262304 -0.392522
Br3   Br    Br    0.604625 0.377998 0.053447 -0.458330
Br4   Br    Br    0.395289 0.621840 0.946583 -0.458345
C1    C     C_R   0.481504 0.314963 0.500788 0.895657
C2    C     C_2   0.963528 0.472898 0.476772 -0.115893
C3    C     C_1   0.852670 0.480268 0.483365 0.160218
C4    C     C_1   0.147330 0.519741 0.516628 0.160151
C5    C     C_R   0.484398 0.501486 0.347514 0.896646
C6    C     C_R   0.515599 0.498493 0.652492 0.896589
C7    C     C_R   0.473068 0.514877 0.262211 -0.106493
C8    C     C_R   0.526898 0.484998 0.737794 -0.106623
C9    C     C_R   0.547282 0.576408 0.225544 -0.216438
C10   C     C_R   0.452466 0.423689 0.774421 -0.216264
C11   C     C_R   0.541118 0.589605 0.143876 -0.093401
C12   C     C_R   0.518496 0.685037 0.499211 0.895585
C13   C     C_R   0.458556 0.410404 0.856079 -0.093600
C14   C     C_R   0.461232 0.540572 0.098701 0.114089
C15   C     C_R   0.538601 0.459142 0.901295 0.114111
C16   C     C_R   0.384055 0.482930 0.134864 -0.133973
C17   C     C_R   0.616010 0.516528 0.865168 -0.134007
C18   C     C_R   0.389252 0.469697 0.216942 0.261609
C19   C     C_R   0.610876 0.529839 0.783100 0.261553
C20   C     C_2   0.470063 0.533332 0.013956 0.147105
C21   C     C_2   0.529759 0.466406 0.986043 0.147116
C22   C     C_2   0.989937 0.401905 0.415687 0.435525
C23   C     C_1   0.532991 0.788133 0.498636 -0.137132
C24   C     C_2   0.010065 0.598127 0.584291 0.435602
C25   C     C_1   0.467008 0.211867 0.501359 -0.137034
C26   C     C_2   0.544190 0.979225 0.498227 -0.145300
C27   C     C_2   0.455808 0.020775 0.501760 -0.145277
C28   C     C_1   0.458146 0.124501 0.501693 0.040986
C29   C     C_1   0.541852 0.875499 0.498298 0.040951
C30   C     C_2   0.036472 0.527125 0.523210 -0.115903
H1    H     H_    0.610964 0.612936 0.260045 0.169779
H2    H     H_    0.071531 0.638015 0.619076 0.072803
H3    H     H_    0.388661 0.387397 0.739901 0.169894
H4    H     H_    0.323642 0.443640 0.098849 0.180488
H5    H     H_    0.676564 0.555583 0.901209 0.180584
H6    H     H_    0.397955 0.367025 0.884508 0.165459
H7    H     H_    0.601552 0.633180 0.115413 0.165492
H8    H     H_    0.382866 0.977663 0.504656 0.170728
H9    H     H_    0.617132 0.022338 0.495331 0.170723
H10   H     H_    0.928474 0.361947 0.380954 0.072825
N1    N     N_1   0.235630 0.515160 0.512550 -0.059506
N2    N     N_1   0.764370 0.484840 0.487450 -0.059471
O1    O     O_R   0.402910 0.365220 0.504590 -0.585656
O2    O     O_2   0.921540 0.613532 0.596915 -0.505402
O3    O     O_R   0.597090 0.634780 0.495410 -0.585673
O4    O     O_R   0.572660 0.355490 0.496530 -0.613703
O5    O     O_R   0.427340 0.644510 0.503470 -0.613683
O6    O     O_R   0.405090 0.505430 0.388710 -0.567976
O7    O     O_R   0.594910 0.494570 0.611290 -0.567905
O8    O     O_R   0.574840 0.495690 0.380650 -0.620860
O9    O     O_R   0.425160 0.504310 0.619350 -0.620941
O10   O     O_2   0.078461 0.386592 0.402995 -0.505452
Zn1   Zn    Zn3+2 0.386660 0.506500 0.505380 1.041434
Zn2   Zn    Zn3+2 0.613340 0.493500 0.494620 1.041497

loop_
_geom_bond_atom_site_label_1
_geom_bond_atom_site_label_2
_ccdc_geom_bond_type
Br2   C18   S    
C11   C14   A    
O7    Zn2   S    
C20   C21   D    
C9    H1    S    
C2    C3    S    
O5    Zn1   S    
C27   H8    S    
O1    Zn1   S    
C5    C7    S    
C7    C18   A    
C1    C25   S    
C27   C28   S    
C10   C13   A    
C12   O5    A    
C12   C23   S    
O9    Zn1   S    
C24   C30   S    
C4    C30   S    
C23   C29   T    
C10   H3    S    
C6    O9    A    
C7    C9    A    
C8    C19   A    
N1    Zn1   S    
C2    C22   S    
C5    O6    A    
C6    C8    S    
Br4   C20   S    
C22   O10   D    
C13   C15   A    
C8    C10   A    
Br1   C19   S    
C25   C28   T    
C14   C16   A    
C17   C19   A    
C9    C11   A    
C26   C27   D    
C15   C21   S    
C14   C20   S    
C26   H9    S    
O6    Zn1   S    
C11   H7    S    
C22   H10   S    
O4    Zn2   S    
C3    N2    T    
C1    O4    A    
Br3   C21   S    
C16   H4    S    
C12   O3    A    
C24   H2    S    
O8    Zn2   S    
C6    O7    A    
C4    N1    T    
C24   O2    D    
C5    O8    A    
C26   C29   S    
C15   C17   A    
C1    O1    A    
N2    Zn2   S    
O3    Zn2   S    
C2    C30   D    
C16   C18   A    
C13   H6    S    
C17   H5    S    
