data_mof_unit_19209.cif
_audit_creation_date              2012-10-26T19:03:01-0400
_audit_creation_method            fapswitch 2.2
_symmetry_space_group_name_H-M    P1
_symmetry_Int_Tables_number       1
_space_group_crystal_system       triclinic
_cell_length_a                    15.089452
_cell_length_b                    11.038416
_cell_length_c                    9.815561
_cell_angle_alpha                 111.013388
_cell_angle_beta                  98.081933
_cell_angle_gamma                 91.216932
_cell_volume                      1506.48260277

loop_
_atom_site_label
_atom_site_type_symbol
_atom_type_description
_atom_site_fract_x
_atom_site_fract_y
_atom_site_fract_z
_atom_type_partial_charge
C1    C     C_R   0.493568 0.254142 0.440698 0.548908
C2    C     C_2   0.492299 0.489679 0.918741 -0.002729
C3    C     C_R   0.328843 0.501544 0.501846 0.559266
C4    C     C_R   0.671157 0.498456 0.498154 0.559266
C5    C     C_R   0.826475 0.557513 0.627960 -0.182016
C6    C     C_R   0.173525 0.442486 0.372040 -0.182017
C7    C     C_R   0.767662 0.495449 0.495264 -0.009433
C8    C     C_R   0.232338 0.504551 0.504735 -0.009434
C9    C     C_R   0.801485 0.430312 0.363025 0.253205
C10   C     C_R   0.198515 0.569689 0.636974 0.253206
C11   C     C_R   0.894712 0.434727 0.363987 0.025630
C12   C     C_R   0.506432 0.745858 0.559302 0.548907
C13   C     C_R   0.105288 0.565273 0.636012 0.025629
C14   C     C_R   0.953316 0.498382 0.498671 0.020633
C15   C     C_R   0.046684 0.501617 0.501329 0.020633
C16   C     C_R   0.918782 0.558887 0.630828 -0.001556
C17   C     C_R   0.081218 0.441112 0.369172 -0.001556
C18   C     C_R   0.930534 0.376176 0.233168 -0.120507
C19   C     C_R   0.069466 0.623825 0.766831 -0.120507
C20   C     C_3   0.724461 0.237066 0.221268 -0.109003
C21   C     C_3   0.275538 0.762939 0.778718 -0.109003
C22   C     C_R   0.023015 0.379134 0.235936 -0.141649
C23   C     C_R   0.976985 0.620866 0.764064 -0.141650
C24   C     C_2   0.490204 0.114899 0.407248 -0.136258
C25   C     C_2   0.509796 0.885101 0.592752 -0.136259
C26   C     C_2   0.501643 0.069544 0.516658 -0.162520
C27   C     C_2   0.498358 0.930456 0.483342 -0.162520
C28   C     C_2   0.507701 0.510320 0.081259 -0.002729
Cu1   Cu    Cu3+1 0.515770 0.521810 0.644910 0.950734
Cu2   Cu    Cu3+1 0.484230 0.478190 0.355090 0.950733
H1    H     H_    0.800297 0.606487 0.729604 0.136239
H2    H     H_    0.478309 0.048963 0.292339 0.097113
H3    H     H_    0.439772 0.417733 0.845822 0.152786
H4    H     H_    0.560228 0.582267 0.154178 0.152788
H5    H     H_    0.588955 0.622249 0.934337 0.199791
H6    H     H_    0.411045 0.377751 0.065663 0.199791
H7    H     H_    0.786292 0.183522 0.217814 0.099122
H8    H     H_    0.678080 0.185673 0.116575 0.141494
H9    H     H_    0.690334 0.233846 0.313476 0.122076
H10   H     H_    0.321917 0.814338 0.883411 0.141493
H11   H     H_    0.213707 0.816481 0.782164 0.099123
H12   H     H_    0.199703 0.393511 0.270396 0.136238
H13   H     H_    0.309667 0.766153 0.686509 0.122076
H14   H     H_    0.887338 0.327659 0.128272 0.154902
H15   H     H_    0.112662 0.672343 0.871728 0.154903
H16   H     H_    0.049063 0.332690 0.133702 0.112109
H17   H     H_    0.950937 0.667310 0.866297 0.112109
H18   H     H_    0.486502 0.864801 0.368241 0.157590
H19   H     H_    0.513498 0.135199 0.631759 0.157589
H20   H     H_    0.521691 0.951037 0.707661 0.097112
N1    N     N_2   0.460520 0.445420 0.137370 -0.350107
N2    N     N_2   0.539480 0.554580 0.862630 -0.350106
O1    O     O_R   0.508410 0.332340 0.577400 -0.500280
O2    O     O_3   0.256331 0.633808 0.767808 -0.558440
O3    O     O_R   0.491590 0.667660 0.422600 -0.500280
O4    O     O_R   0.481780 0.295500 0.332650 -0.498184
O5    O     O_R   0.518220 0.704500 0.667350 -0.498183
O6    O     O_R   0.383570 0.518390 0.622380 -0.448353
O7    O     O_R   0.616430 0.481610 0.377620 -0.448352
O8    O     O_R   0.356940 0.481550 0.377630 -0.510563
O9    O     O_R   0.643060 0.518450 0.622370 -0.510563
O10   O     O_3   0.743669 0.366201 0.232189 -0.558440

loop_
_geom_bond_atom_site_label_1
_geom_bond_atom_site_label_2
_ccdc_geom_bond_type
C27   H18   S    
C19   C23   A    
Cu2   N1    S    
C19   H15   S    
C11   C18   A    
C15   C17   A    
Cu1   Cu2   S    
C18   H14   S    
C25   C27   D    
C20   H8    S    
Cu2   O3    S    
C17   C22   A    
C14   C15   A    
C12   C25   S    
C3    O8    A    
C24   H2    S    
C5    C7    A    
C28   H4    S    
C21   H13   S    
Cu2   O7    S    
C20   H7    S    
C9    C11   A    
C26   C27   S    
H6    N1    S    
C2    N2    D    
C4    C7    S    
C21   H11   S    
C12   O5    A    
C6    C8    A    
C2    H3    S    
C22   H16   S    
C1    O4    A    
Cu1   O5    S    
Cu1   O1    S    
C16   C23   A    
Cu1   O9    S    
C13   C15   A    
C20   O10   S    
C21   O2    S    
C10   O2    S    
C11   C14   A    
C14   C16   A    
C12   O3    A    
C23   H17   S    
C13   C19   A    
C9    O10   S    
C6    C17   A    
C3    O6    A    
Cu2   O8    S    
Cu1   O6    S    
C4    O7    A    
C1    C24   S    
C8    C10   A    
C3    C8    S    
C6    H12   S    
C26   H19   S    
H5    N2    S    
C7    C9    A    
C20   H9    S    
C1    O1    A    
C25   H20   S    
C5    C16   A    
C2    C28   S    
C28   N1    D    
C18   C22   A    
Cu2   O4    S    
C4    O9    A    
C10   C13   A    
C24   C26   D    
C5    H1    S    
Cu1   N2    S    
C21   H10   S    
