data_mof_unit_16293.cif
_audit_creation_date              2012-12-10T17:18:12-0500
_audit_creation_method            fapswitch 2.2
_symmetry_space_group_name_H-M    P1
_symmetry_Int_Tables_number       1
_space_group_crystal_system       triclinic
_cell_length_a                    10.151117
_cell_length_b                    10.839767
_cell_length_c                    15.122878
_cell_angle_alpha                 90.756821
_cell_angle_beta                  80.718476
_cell_angle_gamma                 95.993533
_cell_volume                      1633.28256111

loop_
_atom_site_label
_atom_site_type_symbol
_atom_type_description
_atom_site_fract_x
_atom_site_fract_y
_atom_site_fract_z
_atom_type_partial_charge
C1    C     C_R   0.556609 0.732439 0.493861 0.911649
C2    C     C_2   0.071520 0.484729 0.496420 0.382325
C3    C     C_R   0.500034 0.500179 0.673386 0.956112
C4    C     C_R   0.499966 0.499820 0.326614 0.956109
C5    C     C_R   0.600625 0.444552 0.172990 0.378034
C6    C     C_R   0.399375 0.555449 0.827010 0.378047
C7    C     C_R   0.499609 0.499594 0.230506 -0.303600
C8    C     C_R   0.500391 0.500406 0.769494 -0.303602
C9    C     C_R   0.398073 0.554199 0.195937 0.392442
C10   C     C_R   0.601926 0.445799 0.804063 0.392446
C11   C     C_R   0.392595 0.544990 0.104356 -0.017641
C12   C     C_R   0.443391 0.267561 0.506139 0.911645
C13   C     C_R   0.607404 0.455009 0.895644 -0.017642
C14   C     C_R   0.499849 0.499891 0.046286 -0.004744
C15   C     C_R   0.500151 0.500108 0.953714 -0.004744
C16   C     C_R   0.606674 0.454329 0.080448 -0.014820
C17   C     C_R   0.393326 0.545671 0.919552 -0.014821
C18   C     C_R   0.282565 0.581797 0.069842 -0.195870
C19   C     C_R   0.717434 0.418202 0.930158 -0.195871
C20   C     C_3   0.672738 0.254810 0.197029 0.081007
C21   C     C_3   0.618697 0.193566 0.287204 -0.808463
C22   C     C_3   0.327264 0.745192 0.802972 0.080991
C23   C     C_R   0.283082 0.582437 0.978340 -0.203737
C24   C     C_3   0.381339 0.806434 0.712802 -0.808496
C25   C     C_3   0.319551 0.741763 0.239532 0.066793
C26   C     C_3   0.366686 0.805202 0.320675 -0.803937
C27   C     C_3   0.680446 0.258235 0.760469 0.066777
C28   C     C_3   0.633300 0.194795 0.679330 -0.803960
C29   C     C_3   0.068733 0.274212 0.483806 0.118619
C30   C     C_3   0.105126 0.170179 0.418780 -0.844054
C31   C     C_3   0.931266 0.725788 0.516194 0.118619
C32   C     C_3   0.894873 0.829820 0.581221 -0.844050
C33   C     C_R   0.716917 0.417563 0.021660 -0.203733
C34   C     C_2   0.588893 0.864617 0.489157 -0.399907
C35   C     C_2   0.411107 0.135383 0.510842 -0.399911
C36   C     C_2   0.487281 0.934474 0.502984 -0.149243
C37   C     C_2   0.512718 0.065526 0.497014 -0.149242
C38   C     C_2   0.928480 0.515271 0.503580 0.382326
H1    H     H_    0.195916 0.611115 0.113219 0.174007
H2    H     H_    0.877717 0.385105 0.416318 0.158295
H3    H     H_    0.770220 0.219334 0.170782 0.153697
H4    H     H_    0.602973 0.224528 0.149002 0.120447
H5    H     H_    0.518874 0.223991 0.313732 0.238532
H6    H     H_    0.607793 0.091130 0.279613 0.201095
H7    H     H_    0.689261 0.219166 0.334977 0.265899
H8    H     H_    0.397005 0.775471 0.851012 0.120456
H9    H     H_    0.229778 0.780671 0.829200 0.153707
H10   H     H_    0.310793 0.780842 0.665018 0.265912
H11   H     H_    0.392250 0.908870 0.720394 0.201102
H12   H     H_    0.804083 0.388883 0.886781 0.174008
H13   H     H_    0.481164 0.776001 0.686288 0.238528
H14   H     H_    0.221179 0.773590 0.232638 0.152237
H15   H     H_    0.391456 0.773958 0.178359 0.119459
H16   H     H_    0.467831 0.779416 0.326590 0.238448
H17   H     H_    0.372582 0.907488 0.313004 0.203574
H18   H     H_    0.295114 0.776713 0.382266 0.264727
H19   H     H_    0.608549 0.226042 0.821643 0.119468
H20   H     H_    0.778817 0.226406 0.767356 0.152244
H21   H     H_    0.704867 0.223280 0.617737 0.264734
H22   H     H_    0.627400 0.092510 0.687003 0.203579
H23   H     H_    0.197000 0.612504 0.953956 0.173205
H24   H     H_    0.532156 0.220585 0.673419 0.238449
H25   H     H_    0.958244 0.262076 0.505505 0.088364
H26   H     H_    0.114773 0.263946 0.544771 0.162829
H27   H     H_    0.214483 0.180970 0.392951 0.263998
H28   H     H_    0.078062 0.079059 0.453123 0.192108
H29   H     H_    0.049609 0.172659 0.361376 0.248196
H30   H     H_    0.885227 0.736054 0.455230 0.162829
H31   H     H_    0.041755 0.737925 0.494496 0.088361
H32   H     H_    0.950391 0.827342 0.638624 0.248195
H33   H     H_    0.921934 0.920940 0.546878 0.192107
H34   H     H_    0.803000 0.387495 0.046044 0.173203
H35   H     H_    0.785515 0.819028 0.607051 0.263998
H36   H     H_    0.616954 0.104726 0.481556 0.189213
H37   H     H_    0.383045 0.895274 0.518440 0.189209
H38   H     H_    0.307289 0.095370 0.526439 0.150923
H39   H     H_    0.692710 0.904630 0.473561 0.150922
H40   H     H_    0.122283 0.614895 0.583681 0.158298
N1    N     N_2   0.842700 0.448880 0.462930 -0.230162
N2    N     N_2   0.157300 0.551120 0.537070 -0.230163
O1    O     O_R   0.431060 0.692470 0.507460 -0.634956
O2    O     O_3   0.303890 0.614790 0.792438 -0.585518
O3    O     O_3   0.300877 0.611241 0.252624 -0.571071
O4    O     O_3   0.699121 0.388757 0.747376 -0.571071
O5    O     O_3   0.115231 0.389659 0.440861 -0.568436
O6    O     O_3   0.884769 0.610340 0.559140 -0.568437
O7    O     O_R   0.568940 0.307530 0.492540 -0.634953
O8    O     O_R   0.651120 0.659650 0.483670 -0.600856
O9    O     O_R   0.348880 0.340350 0.516330 -0.600855
O10   O     O_R   0.389960 0.516440 0.644050 -0.576854
O11   O     O_R   0.610040 0.483560 0.355950 -0.576853
O12   O     O_R   0.610030 0.483620 0.620260 -0.523835
O13   O     O_R   0.389970 0.516380 0.379740 -0.523835
O14   O     O_3   0.696111 0.385211 0.207562 -0.585517
Zn1   Zn    Zn3+2 0.353060 0.521920 0.515880 0.991478
Zn2   Zn    Zn3+2 0.646940 0.478080 0.484120 0.991479

loop_
_geom_bond_atom_site_label_1
_geom_bond_atom_site_label_2
_ccdc_geom_bond_type
C37   H36   S    
O8    Zn2   S    
C11   C18   A    
C6    O2    S    
C26   H17   S    
C29   H25   S    
C20   H3    S    
O10   Zn1   S    
C17   C23   A    
C38   O6    S    
C3    O10   A    
C22   O2    S    
C36   C37   S    
C35   C37   D    
C25   H15   S    
C34   H39   S    
O1    Zn1   S    
C11   C14   A    
H40   N2    S    
C38   N1    D    
C1    O1    A    
O12   Zn2   S    
C2    O5    S    
C15   C17   A    
C5    C16   A    
C33   H34   S    
O11   Zn2   S    
C21   H5    S    
C29   O5    S    
C30   H29   S    
C4    O11   A    
C1    O8    A    
C22   H9    S    
C29   H26   S    
O13   Zn1   S    
C31   O6    S    
C4    C7    S    
C26   H16   S    
C1    C34   S    
C5    O14   S    
C32   H33   S    
C21   H7    S    
C28   H22   S    
C31   H30   S    
C35   H38   S    
C13   C19   A    
C18   C23   A    
C24   H10   S    
C12   O9    A    
C3    C8    S    
C19   C33   A    
C32   H35   S    
C5    C7    A    
C6    C8    A    
C25   C26   S    
C27   H20   S    
C3    O12   A    
C12   C35   S    
O9    Zn1   S    
C18   H1    S    
C29   C30   S    
C36   H37   S    
C16   C33   A    
C21   H6    S    
C2    C38   S    
C20   H4    S    
C31   C32   S    
C31   H31   S    
O7    Zn2   S    
H2    N1    S    
N2    Zn1   S    
C9    C11   A    
C30   H28   S    
C9    O3    S    
C22   H8    S    
C13   C15   A    
C27   H19   S    
C14   C16   A    
C28   H21   S    
C24   H11   S    
C7    C9    A    
C6    C17   A    
C20   O14   S    
C27   O4    S    
C12   O7    A    
C10   C13   A    
C26   H18   S    
C32   H32   S    
C25   H14   S    
N1    Zn2   S    
C19   H12   S    
C24   H13   S    
C10   O4    S    
C34   C36   D    
C22   C24   S    
C30   H27   S    
C2    N2    D    
C4    O13   A    
C23   H23   S    
C20   C21   S    
C8    C10   A    
C27   C28   S    
C25   O3    S    
C14   C15   A    
C28   H24   S    
