data_mof_unit_64621.cif
_audit_creation_date              2012-12-10T18:10:04-0500
_audit_creation_method            fapswitch 2.2
_symmetry_space_group_name_H-M    P1
_symmetry_Int_Tables_number       1
_space_group_crystal_system       triclinic
_cell_length_a                    18.381717
_cell_length_b                    18.382182
_cell_length_c                    32.008509
_cell_angle_alpha                 89.999965
_cell_angle_beta                  89.99988
_cell_angle_gamma                 89.999984
_cell_volume                      10815.5493133

loop_
_atom_site_label
_atom_site_type_symbol
_atom_type_description
_atom_site_fract_x
_atom_site_fract_y
_atom_site_fract_z
_atom_type_partial_charge
C1    C     C_R   0.639861 0.500019 0.000000 0.839835
C2    C     C_R   0.360139 0.500019 1.000000 0.839762
C3    C     C_R   0.139860 0.000019 0.500000 0.839751
C4    C     C_R   0.860139 0.000019 0.500000 0.839827
C5    C     C_3   0.488687 0.566607 0.736382 0.441140
C6    C     C_3   0.512332 0.566427 0.263618 0.441101
C7    C     C_3   0.988199 0.066522 0.236382 0.441103
C8    C     C_3   0.010597 0.066722 0.763618 0.441149
C9    C     C_1   0.499964 0.499976 0.837268 0.009195
C10   C     C_1   0.500038 0.499975 0.162732 0.009190
C11   C     C_1   0.999962 0.999975 0.337268 0.009187
C12   C     C_1   0.000035 0.999975 0.662732 0.009191
C13   C     C_1   0.500004 0.499630 0.662700 0.046601
C14   C     C_1   0.499995 0.499631 0.337300 0.046599
C15   C     C_1   0.000003 0.999630 0.162700 0.046596
C16   C     C_1   0.999997 0.999628 0.837300 0.046597
C17   C     C_1   0.717326 0.500051 0.000000 -0.162085
C18   C     C_1   0.282673 0.500051 1.000000 -0.162211
C19   C     C_1   0.217326 0.000051 0.500000 -0.162218
C20   C     C_1   0.782674 0.000051 0.500000 -0.162091
C21   C     C_1   0.782568 0.500042 0.000000 -0.160363
C22   C     C_1   0.217431 0.500042 1.000000 -0.160487
C23   C     C_1   0.282568 0.000042 0.500000 -0.160501
C24   C     C_1   0.717431 0.000042 0.500000 -0.160378
C25   C     C_R   0.500000 0.360017 0.500000 0.832848
C26   C     C_R   1.000000 0.860017 0.000000 0.832848
C27   C     C_R   0.500000 0.499848 0.580206 0.818597
C28   C     C_R   0.500000 0.499848 0.419794 0.818563
C29   C     C_R   1.000000 0.999847 0.080206 0.818587
C30   C     C_R   0.000000 0.999847 0.919794 0.818625
C31   C     C_R   0.500000 0.639714 0.500000 0.855363
C32   C     C_R   1.000000 0.139714 1.000000 0.855409
C33   C     C_R   1.000000 0.639924 0.000000 0.838619
C34   C     C_R   0.500000 0.139924 0.500000 0.838630
C35   C     C_R   0.860035 0.500015 0.000000 0.840446
C36   C     C_R   0.139965 0.500015 1.000000 0.840386
C37   C     C_R   0.360035 0.000015 0.500000 0.840394
C38   C     C_R   0.639965 0.000015 0.500000 0.840450
C39   C     C_R   0.499993 0.500006 0.919789 0.816920
C40   C     C_R   0.500008 0.500006 0.080211 0.816925
C41   C     C_R   0.999993 0.000006 0.419789 0.816915
C42   C     C_R   0.000007 0.000006 0.580211 0.816910
C43   C     C_R   1.000000 0.360018 0.000000 0.841573
C44   C     C_R   0.500000 0.860018 0.500000 0.841574
C45   C     C_1   0.500000 0.282583 0.500000 -0.165777
C46   C     C_1   1.000000 0.782583 1.000000 -0.165788
C47   C     C_1   0.000000 0.717360 1.000000 -0.165419
C48   C     C_1   0.500000 0.217360 0.500000 -0.165418
C49   C     C_1   0.500000 0.717230 0.500000 -0.140732
C50   C     C_1   1.000000 0.217230 0.000000 -0.140687
C51   C     C_1   1.000000 0.282501 0.000000 -0.144637
C52   C     C_1   0.500000 0.782501 0.500000 -0.144680
C53   C     C_3   0.563867 0.475939 0.736428 0.108161
C54   C     C_3   0.551880 0.455484 0.263567 0.106731
C55   C     C_3   0.447452 0.456280 0.736433 0.106772
C56   C     C_3   0.435779 0.476917 0.263572 0.108278
C57   C     C_3   0.064036 0.976404 0.236428 0.108310
C58   C     C_3   0.053011 0.956842 0.763567 0.106728
C59   C     C_3   0.947768 0.955898 0.236433 0.106702
C60   C     C_3   0.936393 0.975255 0.763571 0.108198
C61   C     C_3   0.553494 0.544029 0.764253 -0.201759
C62   C     C_3   0.565467 0.523006 0.235741 -0.200114
C63   C     C_3   0.434896 0.524001 0.764259 -0.200204
C64   C     C_3   0.447188 0.544841 0.235747 -0.201823
C65   C     C_3   0.053169 0.044417 0.264253 -0.201811
C66   C     C_3   0.064841 0.024694 0.735742 -0.200238
C67   C     C_3   0.934720 0.023526 0.264259 -0.200140
C68   C     C_3   0.946036 0.043453 0.735747 -0.201741
C69   C     C_1   0.499976 0.500005 0.874938 -0.153564
C70   C     C_1   0.500026 0.500005 0.125062 -0.153568
C71   C     C_1   0.999974 0.000005 0.374938 -0.153567
C72   C     C_1   0.000023 0.000005 0.625062 -0.153564
C73   C     C_1   0.500001 0.499734 0.625042 -0.125714
C74   C     C_1   0.499999 0.499735 0.374957 -0.125713
C75   C     C_1   0.000001 0.999734 0.125043 -0.125719
C76   C     C_1   0.999999 0.999733 0.874957 -0.125719
C77   C     C_3   0.511535 0.431341 0.764355 -0.134675
C78   C     C_3   0.487424 0.431525 0.235646 -0.134711
C79   C     C_3   0.012030 0.931426 0.264354 -0.134709
C80   C     C_3   0.989199 0.931220 0.735645 -0.134673
C81   C     C_3   0.499963 0.499890 0.791466 0.035640
C82   C     C_3   0.500040 0.499890 0.208533 0.035637
C83   C     C_3   0.999960 0.999889 0.291466 0.035645
C84   C     C_3   0.000037 0.999889 0.708534 0.035648
C85   C     C_3   0.500003 0.499583 0.708570 0.039344
C86   C     C_3   0.499996 0.499584 0.291430 0.039344
C87   C     C_3   0.000002 0.999583 0.208570 0.039345
C88   C     C_3   0.999999 0.999581 0.791430 0.039348
Cu1   Cu    Cu3+1 0.500000 0.427500 0.000000 0.989202
Cu2   Cu    Cu3+1 1.000000 0.927500 0.500000 0.989205
Cu3   Cu    Cu3+1 0.500000 0.572500 0.000000 0.994655
Cu4   Cu    Cu3+1 0.000000 0.072500 0.500000 0.994697
Cu5   Cu    Cu3+1 0.572520 0.499840 0.500000 0.999216
Cu6   Cu    Cu3+1 0.427480 0.499840 0.500000 0.998727
Cu7   Cu    Cu3+1 0.072520 0.999840 0.000000 0.998652
Cu8   Cu    Cu3+1 0.927480 0.999840 0.000000 0.999211
Cu9   Cu    Cu3+1 1.000000 0.500000 0.958560 0.998143
Cu10  Cu    Cu3+1 1.000000 0.500000 0.041440 0.998143
Cu11  Cu    Cu3+1 0.500000 0.000000 0.458560 0.998108
Cu12  Cu    Cu3+1 0.500000 0.000000 0.541440 0.998101
H1    H     H_    0.597205 0.580521 0.775813 0.174659
H2    H     H_    0.619034 0.542306 0.224175 0.175327
H3    H     H_    0.381630 0.544115 0.775824 0.175280
H4    H     H_    0.404039 0.581995 0.224187 0.174641
H5    H     H_    0.096613 0.081226 0.275813 0.174640
H6    H     H_    0.117890 0.045378 0.724176 0.175255
H7    H     H_    0.881308 0.043253 0.275824 0.175307
H8    H     H_    0.901938 0.079475 0.724187 0.174659
H9    H     H_    0.521001 0.375295 0.776082 0.153136
H10   H     H_    0.477104 0.375631 0.223918 0.153102
H11   H     H_    0.021904 0.875451 0.276082 0.153099
H12   H     H_    0.980333 0.875076 0.723917 0.153133
O1    O     O_R   0.605840 0.438770 0.000000 -0.579082
O2    O     O_R   0.394160 0.438770 0.000000 -0.579141
O3    O     O_R   0.105840 0.938770 0.500000 -0.579138
O4    O     O_R   0.894160 0.938770 0.500000 -0.579089
O5    O     O_R   0.000000 0.394210 0.965010 -0.574530
O6    O     O_R   1.000000 0.394210 0.034990 -0.574570
O7    O     O_R   0.500000 0.894210 0.465010 -0.574581
O8    O     O_R   0.500000 0.894210 0.534990 -0.574546
O9    O     O_R   0.605760 0.561230 0.000000 -0.579695
O10   O     O_R   0.394240 0.561230 0.000000 -0.579739
O11   O     O_R   0.105760 0.061230 0.500000 -0.579738
O12   O     O_R   0.894240 0.061230 0.500000 -0.579685
O13   O     O_R   0.500000 0.438780 0.939540 -0.579544
O14   O     O_R   0.500000 0.438780 0.060460 -0.579538
O15   O     O_R   0.000000 0.938780 0.439540 -0.579541
O16   O     O_R   0.000000 0.938780 0.560460 -0.579549
O17   O     O_R   0.500000 0.561230 0.939540 -0.574307
O18   O     O_R   0.500000 0.561230 0.060460 -0.574321
O19   O     O_R   0.000000 0.061230 0.439540 -0.574308
O20   O     O_R   0.000000 0.061230 0.560460 -0.574290
O21   O     O_R   0.561200 0.394070 0.500000 -0.582403
O22   O     O_R   0.438800 0.394070 0.500000 -0.582449
O23   O     O_R   0.061200 0.894070 0.000000 -0.582455
O24   O     O_R   0.938800 0.894070 0.000000 -0.582411
O25   O     O_R   0.561230 0.499860 0.560460 -0.579712
O26   O     O_R   0.561230 0.499860 0.439540 -0.573926
O27   O     O_R   0.438770 0.499860 0.560460 -0.574195
O28   O     O_R   0.438770 0.499860 0.439540 -0.579938
O29   O     O_R   0.061230 0.999860 0.060460 -0.579832
O30   O     O_R   0.061230 0.999860 0.939540 -0.574373
O31   O     O_R   0.938770 0.999860 0.060460 -0.574061
O32   O     O_R   0.938770 0.999860 0.939540 -0.579569
O33   O     O_R   0.561270 0.605640 0.500000 -0.575810
O34   O     O_R   0.438730 0.605640 0.500000 -0.575995
O35   O     O_R   0.061270 0.105640 0.000000 -0.576010
O36   O     O_R   0.938730 0.105640 0.000000 -0.575793
O37   O     O_R   0.000000 0.605780 0.965000 -0.583136
O38   O     O_R   1.000000 0.605780 0.035000 -0.583120
O39   O     O_R   0.500000 0.105780 0.465000 -0.583119
O40   O     O_R   0.500000 0.105780 0.535000 -0.583135
O41   O     O_R   0.894200 0.500000 0.965010 -0.581255
O42   O     O_R   0.894200 0.500000 0.034990 -0.579825
O43   O     O_R   0.105800 0.500000 0.965010 -0.579872
O44   O     O_R   0.105800 0.500000 0.034990 -0.581303
O45   O     O_R   0.394200 0.000000 0.465010 -0.581303
O46   O     O_R   0.394200 0.000000 0.534990 -0.579884
O47   O     O_R   0.605800 0.000000 0.465010 -0.579833
O48   O     O_R   0.605800 0.000000 0.534990 -0.581257
C89   C     C_3   0.636927 0.448710 0.720678 -0.814055
H13   H     H_    0.672557 0.435537 0.747621 0.240541
H14   H     H_    0.628815 0.399130 0.701453 0.235114
H15   H     H_    0.663153 0.491442 0.701364 0.245918
C90   C     C_3   0.611188 0.404864 0.279312 -0.809823
H16   H     H_    0.640139 0.380279 0.252366 0.242612
H17   H     H_    0.650476 0.436020 0.298622 0.246503
H18   H     H_    0.586581 0.361067 0.298539 0.233856
C91   C     C_3   0.387379 0.406570 0.720688 -0.809969
H19   H     H_    0.358056 0.382429 0.747634 0.242538
H20   H     H_    0.348571 0.438321 0.701378 0.246476
H21   H     H_    0.411316 0.362402 0.701461 0.233905
C92   C     C_3   0.362312 0.450805 0.279323 -0.814363
H22   H     H_    0.326485 0.438176 0.252379 0.240423
H23   H     H_    0.369667 0.401107 0.298548 0.235155
H24   H     H_    0.336742 0.493932 0.298636 0.245901
C93   C     C_3   0.137293 0.949707 0.220678 -0.814444
H25   H     H_    0.173018 0.936793 0.247621 0.240423
H26   H     H_    0.129542 0.900068 0.201453 0.235103
H27   H     H_    0.163207 0.992628 0.201364 0.245937
C94   C     C_3   0.113612 0.907778 0.779312 -0.809874
H28   H     H_    0.143192 0.883952 0.752366 0.242537
H29   H     H_    0.152078 0.939942 0.798623 0.246420
H30   H     H_    0.090149 0.863356 0.798539 0.233979
C95   C     C_3   0.888057 0.905752 0.220688 -0.809753
H31   H     H_    0.858910 0.881399 0.247634 0.242610
H32   H     H_    0.849019 0.937220 0.201378 0.246460
H33   H     H_    0.912314 0.861759 0.201461 0.233909
C96   C     C_3   0.863628 0.947245 0.779322 -0.814166
H34   H     H_    0.828141 0.933692 0.752378 0.240541
H35   H     H_    0.872269 0.897755 0.798547 0.235044
H36   H     H_    0.836946 0.989694 0.798635 0.245968
S1    S     S_3+6 0.473475 0.656632 0.717911 0.006405
O49   O     O_2   0.537251 0.680298 0.691875 -0.285069
O50   O     O_2   0.405475 0.658020 0.691865 -0.283192
O51   O     O_3   0.463967 0.712807 0.758981 -0.526122
H37   H     H_    0.455640 0.761474 0.746587 0.379177
S2    S     S_3+6 0.528917 0.656210 0.282089 0.006449
O52   O     O_2   0.465508 0.680847 0.308123 -0.285137
O53   O     O_2   0.596928 0.656560 0.308135 -0.283048
O54   O     O_3   0.539283 0.712232 0.241018 -0.526103
H38   H     H_    0.548345 0.760768 0.253412 0.379197
S3    S     S_3+6 0.972332 0.156435 0.217911 0.006448
O55   O     O_2   0.035934 0.180565 0.191876 -0.285118
O56   O     O_2   0.904324 0.157329 0.191865 -0.283090
O57   O     O_3   0.962414 0.212539 0.258981 -0.526082
H39   H     H_    0.953743 0.261147 0.246587 0.379214
S4    S     S_3+6 0.024845 0.156904 0.782090 0.006400
O58   O     O_2   0.960821 0.179886 0.808126 -0.285035
O59   O     O_2   0.092828 0.159020 0.808134 -0.283255
O60   O     O_3   0.033749 0.213179 0.741020 -0.526099
H40   H     H_    0.041558 0.261932 0.753414 0.379199

loop_
_geom_bond_atom_site_label_1
_geom_bond_atom_site_label_2
_ccdc_geom_bond_type
Cu6   O34   S    
C59   C95   S    
C15   C75   T    
S3    O55   D    
Cu10  O42   S    
C67   C83   S    
Cu5   Cu6   S    
C39   O13   A    
Cu11  O47   S    
C2    C18   S    
C54   C86   S    
Cu6   O28   S    
O54   H38   S    
C57   C79   S    
C53   C77   S    
Cu7   Cu8   S    
C28   O28   A    
C35   O42   A    
C80   C84   S    
C67   H7    S    
Cu9   Cu10  S    
C60   C88   S    
C30   O32   A    
Cu8   O24   S    
C32   O35   A    
Cu1   O13   S    
C94   H28   S    
Cu12  O40   S    
C8    C66   S    
S3    O56   D    
C12   C84   S    
C90   H16   S    
C40   C70   S    
C63   C81   S    
C58   C94   S    
C14   C74   T    
C15   C87   S    
Cu4   O20   S    
C9    C69   T    
C38   O47   A    
Cu5   O21   S    
C33   O38   A    
Cu4   O12   S    
Cu5   O25   S    
C55   C77   S    
C11   C71   T    
C95   H32   S    
Cu8   O32   S    
C44   O8    A    
C37   O45   A    
C29   O31   A    
C56   C78   S    
C4    O12   A    
C96   H35   S    
C91   H19   S    
C6    C64   S    
C8    S4    S    
C78   C82   S    
C30   O30   A    
C7    S3    S    
C26   O23   A    
C59   C67   S    
C46   C47   T    
C31   O34   A    
Cu2   Cu4   S    
C58   C66   S    
C7    C87   S    
C20   C24   T    
C60   C96   S    
C93   H26   S    
Cu3   O10   S    
C55   C63   S    
C24   C38   S    
Cu2   O15   S    
C56   C64   S    
Cu5   O33   S    
S2    O52   D    
Cu12  O8    S    
Cu9   O41   S    
Cu1   Cu3   S    
C25   O21   A    
S1    O49   D    
C61   C81   S    
C58   C80   S    
C41   C71   S    
C5    C85   S    
C93   H27   S    
C92   H23   S    
C12   C72   T    
C40   O14   A    
C90   H17   S    
C18   C22   T    
Cu9   O5    S    
Cu6   O27   S    
C91   H20   S    
C1    O1    A    
C31   C49   S    
C65   H5    S    
C89   H14   S    
C3    O11   A    
C89   H13   S    
Cu1   O1    S    
Cu1   O14   S    
C2    O10   A    
Cu8   O36   S    
S3    O57   S    
Cu10  O44   S    
Cu5   O26   S    
C5    C61   S    
C68   C84   S    
Cu4   O19   S    
Cu7   O35   S    
C14   C86   S    
C63   H3    S    
Cu4   O11   S    
C59   C79   S    
C6    S2    S    
C34   O40   A    
O57   H39   S    
S4    O58   D    
C95   H33   S    
C39   O17   A    
C44   O7    A    
S1    O50   D    
C92   H22   S    
Cu11  O7    S    
C10   C82   S    
C27   O27   A    
C57   C87   S    
C8    C88   S    
C66   C84   S    
C4    C20   S    
C37   O46   A    
C55   C85   S    
C96   H36   S    
C61   H1    S    
C3    O3    A    
C7    C65   S    
C5    C63   S    
C30   C76   S    
Cu12  O48   S    
C56   C86   S    
O60   H40   S    
C79   C83   S    
C77   C81   S    
S1    O51   S    
C29   O29   A    
C80   H12   S    
S2    O54   S    
C42   C72   S    
C50   C51   T    
C39   C69   S    
C28   O26   A    
C78   H10   S    
C27   O25   A    
Cu2   O3    S    
Cu6   O22   S    
C3    C19   S    
C25   O22   A    
C64   C82   S    
C43   O5    A    
C29   C75   S    
C10   C70   T    
C13   C73   T    
C8    C68   S    
C90   H18   S    
Cu2   O4    S    
Cu11  O45   S    
C53   C85   S    
C33   C47   S    
C91   H21   S    
C34   C48   S    
C54   C90   S    
C53   C61   S    
C41   O15   A    
C26   O24   A    
C25   C45   S    
C89   H15   S    
C22   C36   S    
C36   O44   A    
C5    S1    S    
Cu3   O17   S    
Cu10  O38   S    
C45   C48   T    
C64   H4    S    
C40   O18   A    
Cu1   O2    S    
C77   H9    S    
Cu9   O37   S    
C94   H30   S    
C1    O9    A    
C60   C80   S    
C16   C76   T    
C4    O4    A    
C35   O41   A    
C49   C52   T    
C57   C65   S    
O51   H37   S    
C58   C88   S    
C44   C52   S    
C42   O20   A    
C34   O39   A    
Cu7   O29   S    
C32   O36   A    
C42   O16   A    
C54   C62   S    
C1    C17   S    
C6    C86   S    
Cu11  Cu12  S    
C79   H11   S    
C56   C92   S    
C11   C83   S    
C6    C62   S    
S2    O53   D    
C21   C35   S    
C38   O48   A    
C23   C37   S    
Cu8   O31   S    
C57   C93   S    
C2    O2    A    
C53   C89   S    
C95   H31   S    
C66   H6    S    
Cu11  O39   S    
C43   C51   S    
S4    O60   S    
C28   C74   S    
Cu10  O6    S    
C92   H24   S    
C33   O37   A    
C32   C50   S    
Cu9   O43   S    
C62   C82   S    
C96   H34   S    
C59   C87   S    
C65   C83   S    
C26   C46   S    
C43   O6    A    
C7    C67   S    
C31   O33   A    
Cu12  O46   S    
C19   C23   T    
C94   H29   S    
C41   O19   A    
Cu7   O23   S    
C60   C68   S    
Cu7   O30   S    
S4    O59   D    
C93   H25   S    
Cu3   O9    S    
C13   C85   S    
C16   C88   S    
Cu2   O16   S    
Cu3   O18   S    
C68   H8    S    
C54   C78   S    
C27   C73   S    
C55   C91   S    
C36   O43   A    
C9    C81   S    
C62   H2    S    
C17   C21   T    
