data_mof_unit_60046.cif
_audit_creation_date              2012-12-10T19:01:37-0500
_audit_creation_method            fapswitch 2.2
_symmetry_space_group_name_H-M    P1
_symmetry_Int_Tables_number       1
_space_group_crystal_system       triclinic
_cell_length_a                    14.257878
_cell_length_b                    13.369724
_cell_length_c                    10.554759
_cell_angle_alpha                 90.000062
_cell_angle_beta                  90.394762
_cell_angle_gamma                 90.000061
_cell_volume                      2011.94150244

loop_
_atom_site_label
_atom_site_type_symbol
_atom_type_description
_atom_site_fract_x
_atom_site_fract_y
_atom_site_fract_z
_atom_type_partial_charge
C1    C     C_R   0.326547 0.500000 0.500666 0.913194
C2    C     C_3   0.547100 0.417116 0.963838 -0.208101
C3    C     C_3   0.547076 0.582898 0.963833 -0.208099
C4    C     C_3   0.452923 0.417102 0.036167 -0.208112
C5    C     C_3   0.414598 0.499985 0.948869 0.227360
C6    C     C_3   0.585402 0.500015 0.051130 0.227366
C7    C     C_3   0.507634 0.500000 0.878491 -0.074390
C8    C     C_3   0.492365 0.500000 0.121509 -0.074389
C9    C     C_1   0.500000 0.169424 0.500000 0.063795
C10   C     C_1   0.500000 0.830576 0.500000 0.063796
C11   C     C_1   0.225911 0.500000 0.500581 -0.234374
C12   C     C_R   0.673453 0.500000 0.499334 0.913196
C13   C     C_1   0.774089 0.500000 0.499419 -0.234375
C14   C     C_1   0.141346 0.500000 0.500442 -0.008035
C15   C     C_1   0.858654 0.500000 0.499558 -0.008035
C16   C     C_3   0.318386 0.499967 0.884139 -0.401753
C17   C     C_3   0.239600 0.499988 0.981073 -0.876797
C18   C     C_3   0.681615 0.500032 0.115857 -0.401768
C19   C     C_3   0.760398 0.500038 0.018921 -0.876804
C20   C     C_1   0.042284 0.500000 0.500147 0.005783
C21   C     C_1   0.957716 0.500000 0.499853 0.005784
C22   C     C_1   0.500000 0.049525 0.500000 -0.051636
C23   C     C_1   0.500000 0.950475 0.500000 -0.051636
C24   C     C_R   0.485682 0.500000 0.255272 0.891570
C25   C     C_R   0.514317 0.500000 0.744728 0.891569
C26   C     C_3   0.452899 0.582884 0.036162 -0.208092
H1    H     H_    0.413882 0.649519 0.069890 0.148348
H2    H     H_    0.756005 0.432289 0.958269 0.256959
H3    H     H_    0.755978 0.567767 0.958238 0.256956
H4    H     H_    0.829187 0.500062 0.068869 0.258304
H5    H     H_    0.687958 0.567458 0.176820 0.210537
H6    H     H_    0.687974 0.432614 0.176834 0.210528
H7    H     H_    0.586118 0.350481 0.930110 0.148349
H8    H     H_    0.586073 0.649546 0.930101 0.148352
H9    H     H_    0.413925 0.350454 0.069898 0.148353
H10   H     H_    0.244014 0.432272 0.041781 0.256955
H11   H     H_    0.243993 0.567751 0.041700 0.256956
H12   H     H_    0.170811 0.499958 0.931122 0.258302
H13   H     H_    0.312035 0.567375 0.823141 0.210525
H14   H     H_    0.312039 0.432529 0.823196 0.210532
N1    N     N_1   0.500000 0.261870 0.500000 -0.066116
N2    N     N_1   0.500000 0.738130 0.500000 -0.066116
O1    O     O_R   0.373710 0.576470 0.500000 -0.597082
O2    O     O_R   0.626290 0.423530 0.500000 -0.597082
O3    O     O_R   0.626290 0.576470 0.500000 -0.597083
O4    O     O_R   0.373710 0.423530 0.500000 -0.597083
O5    O     O_R   0.499980 0.576440 0.313950 -0.612784
O6    O     O_R   0.500020 0.423560 0.686050 -0.612784
O7    O     O_R   0.500020 0.576440 0.686050 -0.612783
O8    O     O_R   0.499980 0.423560 0.313950 -0.612781
Zn1   Zn    Zn3+2 0.500000 0.602090 0.500000 0.957361
Zn2   Zn    Zn3+2 0.500000 0.397910 0.500000 0.957361

loop_
_geom_bond_atom_site_label_1
_geom_bond_atom_site_label_2
_ccdc_geom_bond_type
O8    Zn2   S    
C17   H10   S    
O4    Zn2   S    
C10   C23   S    
C10   N2    T    
C8    C26   S    
N1    Zn2   S    
C2    C4    S    
C2    C7    S    
C7    C25   S    
C15   C21   S    
N2    Zn1   S    
C4    C8    S    
C3    C6    S    
O2    Zn2   S    
C4    H9    S    
C12   O2    A    
C17   H11   S    
C12   C13   S    
C19   H2    S    
C19   H4    S    
C25   O6    A    
O1    Zn1   S    
C26   H1    S    
C2    C6    S    
C16   H14   S    
C2    H7    S    
C1    O4    A    
C8    C24   S    
C3    C7    S    
C17   H12   S    
C13   C15   T    
C24   O8    A    
C6    C18   S    
C11   C14   T    
C25   O7    A    
C9    C22   S    
C18   H6    S    
O3    Zn1   S    
C16   H13   S    
C5    C26   S    
C19   H3    S    
C14   C20   S    
O6    Zn2   S    
C20   C21   T    
C18   C19   S    
C5    C7    S    
C22   C23   T    
C4    C5    S    
C5    C16   S    
C6    C8    S    
C18   H5    S    
C3    H8    S    
C24   O5    A    
C9    N1    T    
C1    O1    A    
C3    C26   S    
O5    Zn1   S    
C16   C17   S    
C12   O3    A    
O7    Zn1   S    
C1    C11   S    
