data_mof_unit_9107.cif
_audit_creation_date              2012-12-10T16:46:43-0500
_audit_creation_method            fapswitch 2.2
_symmetry_space_group_name_H-M    P1
_symmetry_Int_Tables_number       1
_space_group_crystal_system       triclinic
_cell_length_a                    15.873709
_cell_length_b                    8.707303
_cell_length_c                    7.476932
_cell_angle_alpha                 102.92383
_cell_angle_beta                  93.323049
_cell_angle_gamma                 92.325696
_cell_volume                      1004.04443301

loop_
_atom_site_label
_atom_site_type_symbol
_atom_type_description
_atom_site_fract_x
_atom_site_fract_y
_atom_site_fract_z
_atom_type_partial_charge
C1    C     C_R   0.503349 0.201156 0.453145 0.857318
C2    C     C_3   0.951334 0.414527 0.642605 0.002655
C3    C     C_3   0.916467 0.496602 0.487946 0.234064
C4    C     C_3   0.957589 0.672377 0.517010 0.354921
C5    C     C_3   0.055635 0.662582 0.506749 -0.438358
C6    C     C_1   0.823815 0.498384 0.484001 -0.040400
C7    C     C_1   0.175802 0.494986 0.510626 -0.054477
C8    C     C_1   0.251332 0.497572 0.511389 -0.187521
C9    C     C_2   0.517886 0.036445 0.426549 -0.010028
C10   C     C_2   0.503192 0.967201 0.566067 -0.371748
C11   C     C_R   0.340567 0.499420 0.503709 0.822621
C12   C     C_R   0.504303 0.799928 0.545376 0.877763
C13   C     C_R   0.659412 0.500483 0.496213 0.815400
C14   C     C_3   0.049020 0.440908 0.668420 -0.449552
C15   C     C_3   0.044319 0.374848 0.314139 0.385462
C16   C     C_3   0.944882 0.393681 0.301191 -0.080014
C17   C     C_1   0.748484 0.499576 0.487283 -0.195753
C18   C     C_3   0.083172 0.491605 0.498134 0.189615
Cu1   Cu    Cu3+1 0.509300 0.517380 0.684380 0.945226
Cu2   Cu    Cu3+1 0.490700 0.482620 0.315620 0.946549
H1    H     H_    0.077753 0.331596 0.690158 0.167333
H2    H     H_    0.929941 0.460766 0.196430 0.179111
H3    H     H_    0.078265 0.705648 0.388070 0.172608
N1    N     N_2   0.476670 0.456430 0.038530 -0.216271
N2    N     N_2   0.523330 0.543570 0.961470 -0.219182
O1    O     O_R   0.506050 0.286130 0.619770 -0.600997
O2    O     O_R   0.490330 0.256780 0.308370 -0.580238
O3    O     O_R   0.387300 0.514690 0.655770 -0.582026
O4    O     O_R   0.371580 0.485340 0.344370 -0.574767
O5    O     O_R   0.509670 0.743220 0.691630 -0.587381
O6    O     O_R   0.493950 0.713870 0.380230 -0.573654
O7    O     O_R   0.628420 0.514660 0.655630 -0.575390
O8    O     O_R   0.612700 0.485310 0.344230 -0.588173
H4    H     H_    0.937676 0.285772 0.592684 0.169978
H5    H     H_    0.068134 0.533747 0.794114 0.194216
C19   C     C_3   0.908829 0.449022 0.826361 -0.903435
H6    H     H_    0.934355 0.558446 0.921830 0.237737
H7    H     H_    0.839312 0.453243 0.808076 0.257115
H8    H     H_    0.920119 0.350133 0.893586 0.233656
C20   C     C_3   0.923023 0.758984 0.368793 -0.890302
H9    H     H_    0.852978 0.758645 0.361909 0.242440
H10   H     H_    0.947631 0.884153 0.401237 0.230430
H11   H     H_    0.943516 0.708697 0.230053 0.202811
C21   C     C_3   0.553585 0.954970 0.247533 -0.786783
H12   H     H_    0.579836 0.041433 0.173598 0.225390
H13   H     H_    0.606731 0.882529 0.275301 0.217212
H14   H     H_    0.503095 0.881222 0.154558 0.253490
H15   H     H_    0.484525 0.034539 0.697188 0.146199
H16   H     H_    0.433635 0.380066 0.950235 0.226675
H17   H     H_    0.567169 0.618217 0.049331 0.225431
C22   C     C_3   0.082196 0.414330 0.141601 -0.897116
H18   H     H_    0.152058 0.409631 0.148398 0.249263
H19   H     H_    0.057356 0.326713 0.016138 0.236654
H20   H     H_    0.065886 0.532390 0.122771 0.207087
C23   C     C_3   0.067973 0.202139 0.313400 -0.813703
H21   H     H_    0.037273 0.153986 0.419825 0.202796
H22   H     H_    0.049487 0.120680 0.178684 0.230070
H23   H     H_    0.137296 0.195636 0.337187 0.223924
C24   C     C_3   0.891046 0.236972 0.224658 -0.900154
H24   H     H_    0.824170 0.261109 0.194893 0.247379
H25   H     H_    0.913883 0.173849 0.092051 0.239012
H26   H     H_    0.892189 0.155968 0.319541 0.239386
H27   H     H_    0.089705 0.744223 0.627875 0.171142
C25   C     C_3   0.938750 0.778454 0.705915 -0.803181
H28   H     H_    0.871383 0.764737 0.734692 0.237567
H29   H     H_    0.979499 0.754282 0.820265 0.209832
H30   H     H_    0.953037 0.905335 0.710239 0.213063

loop_
_geom_bond_atom_site_label_1
_geom_bond_atom_site_label_2
_ccdc_geom_bond_type
C15   C18   S    
Cu2   N1    S    
C23   H21   S    
Cu1   O1    S    
C20   H11   S    
C13   O8    A    
C7    C18   S    
C15   C22   S    
C9    C10   D    
C14   C18   S    
C13   O7    A    
Cu1   Cu2   S    
C5    H3    S    
C21   H14   S    
C13   C17   S    
C3    C6    S    
C25   H28   S    
C22   H20   S    
C20   H10   S    
C2    C3    S    
C24   H24   S    
N1    N2    D    
C11   O4    A    
Cu1   O3    S    
C9    C21   S    
C2    H4    S    
C10   C12   S    
C11   O3    A    
C8    C11   S    
C2    C14   S    
Cu1   O7    S    
N1    H16   S    
C14   H1    S    
C19   H7    S    
C20   H9    S    
Cu2   O2    S    
C21   H13   S    
C16   C24   S    
Cu2   O4    S    
C23   H22   S    
C12   O6    A    
C10   H15   S    
C1    O1    A    
Cu1   N2    S    
C24   H25   S    
Cu2   O8    S    
C22   H18   S    
C25   H30   S    
C4    C20   S    
C7    C8    T    
C1    C9    S    
C21   H12   S    
C5    H27   S    
C23   H23   S    
C2    C19   S    
C14   H5    S    
C1    O2    A    
C6    C17   T    
C4    C25   S    
N2    H17   S    
C19   H6    S    
C24   H26   S    
C16   H2    S    
C5    C18   S    
C12   O5    A    
Cu1   O5    S    
C3    C16   S    
C19   H8    S    
C3    C4    S    
C15   C16   S    
C15   C23   S    
C4    C5    S    
C22   H19   S    
Cu2   O6    S    
C25   H29   S    
