data_mof_unit_53403.cif
_audit_creation_date              2013-03-05T15:56:51-0500
_audit_creation_method            fapswitch 2.2
_symmetry_space_group_name_H-M    P1
_symmetry_Int_Tables_number       1
_space_group_crystal_system       triclinic
_cell_length_a                    21.319635
_cell_length_b                    21.387136
_cell_length_c                    13.682422
_cell_angle_alpha                 89.614726
_cell_angle_beta                  90.331224
_cell_angle_gamma                 89.855101
_cell_volume                      6238.45245724

loop_
_atom_site_label
_atom_site_type_symbol
_atom_site_description
_atom_site_fract_x
_atom_site_fract_y
_atom_site_fract_z
_atom_type_partial_charge
O1    O     O_R   0.064880 0.435140 0.582280 -0.565931
O2    O     O_R   0.935120 0.564860 0.417720 -0.568847
O3    O     O_R   0.935120 0.564860 0.582280 -0.587255
O4    O     O_R   0.064880 0.435140 0.417720 -0.589340
O5    O     O_R   0.935120 0.435140 0.417720 -0.587687
O6    O     O_R   0.064880 0.564860 0.582280 -0.595784
O7    O     O_R   0.064880 0.564860 0.417720 -0.583378
O8    O     O_R   0.935120 0.435140 0.582280 -0.589351
O9    O     O_R   0.564880 0.935140 0.582280 -0.568535
O10   O     O_R   0.435120 0.064860 0.417720 -0.566381
O11   O     O_R   0.435120 0.064860 0.582280 -0.592708
O12   O     O_R   0.564880 0.935140 0.417720 -0.589357
O13   O     O_R   0.435120 0.935140 0.417720 -0.596057
O14   O     O_R   0.564880 0.064860 0.582280 -0.582767
O15   O     O_R   0.564880 0.064860 0.417720 -0.589174
O16   O     O_R   0.435120 0.935140 0.582280 -0.577002
C1    C     C_R   0.086627 0.415353 0.500484 0.822886
C2    C     C_R   0.913415 0.584673 0.499522 0.821349
C3    C     C_R   0.915119 0.413351 0.499553 0.812460
C4    C     C_R   0.084889 0.586670 0.499474 0.809965
C5    C     C_R   0.586479 0.915173 0.500420 0.825057
C6    C     C_R   0.413364 0.084674 0.499553 0.823184
C7    C     C_R   0.413187 0.915029 0.500501 0.810132
C8    C     C_R   0.586662 0.085179 0.500531 0.812119
Cu1   Cu    Cu3+1 0.000000 0.500000 0.597420 0.949398
Cu2   Cu    Cu3+1 0.000000 0.500000 0.402580 0.940213
Cu3   Cu    Cu3+1 0.500000 0.000000 0.597420 0.942481
Cu4   Cu    Cu3+1 0.500000 0.000000 0.402580 0.948468
C9    C     C_R   0.168158 0.645538 0.582809 -0.278016
C10   C     C_R   0.830327 0.356037 0.581345 -0.272832
C11   C     C_R   0.866124 0.678700 0.567857 -0.273048
C12   C     C_R   0.135080 0.322536 0.429982 -0.274287
C13   C     C_R   0.654462 0.159974 0.413148 -0.271151
C14   C     C_R   0.346548 0.839230 0.413567 -0.278496
C15   C     C_R   0.364852 0.177484 0.570339 -0.273769
C16   C     C_R   0.633199 0.820635 0.432144 -0.273171
C17   C     C_R   0.134251 0.634387 0.497114 -0.069264
C18   C     C_R   0.865703 0.365745 0.497116 -0.068947
C19   C     C_R   0.863768 0.631699 0.498030 -0.093833
C20   C     C_R   0.136186 0.368213 0.502009 -0.092577
C21   C     C_R   0.634152 0.135209 0.502358 -0.075744
C22   C     C_R   0.365353 0.865409 0.502376 -0.073728
C23   C     C_R   0.363758 0.131832 0.498226 -0.093188
C24   C     C_R   0.635923 0.867864 0.501655 -0.092326
C25   C     C_R   0.148835 0.667681 0.409978 0.088108
C26   C     C_R   0.852376 0.331373 0.411001 0.095695
C27   C     C_R   0.814004 0.629181 0.429419 0.155365
C28   C     C_R   0.184627 0.369242 0.572994 0.157325
C29   C     C_R   0.658686 0.159348 0.591405 0.110081
C30   C     C_R   0.339029 0.843085 0.591271 0.113118
C31   C     C_R   0.315202 0.130810 0.427459 0.155515
C32   C     C_R   0.686057 0.870448 0.569503 0.161420
C33   C     C_R   0.204689 0.703473 0.406690 0.007584
C34   C     C_R   0.796507 0.295613 0.406500 0.006482
C35   C     C_R   0.771934 0.680721 0.422116 0.086050
C36   C     C_R   0.226236 0.317366 0.580062 0.086273
C37   C     C_R   0.693516 0.215652 0.588931 0.007973
C38   C     C_R   0.304075 0.786844 0.590336 0.007566
C39   C     C_R   0.273655 0.182706 0.420376 0.086588
C40   C     C_R   0.727700 0.818680 0.577244 0.086357
C41   C     C_R   0.233720 0.719450 0.496627 0.040434
C42   C     C_R   0.765842 0.281173 0.495550 0.039278
C43   C     C_R   0.772714 0.725959 0.498134 0.006403
C44   C     C_R   0.226955 0.273692 0.501907 0.006236
C45   C     C_R   0.719154 0.234954 0.498336 0.039121
C46   C     C_R   0.280217 0.765845 0.499433 0.038681
C47   C     C_R   0.272982 0.226399 0.498481 0.006757
C48   C     C_R   0.726684 0.773271 0.501548 0.005679
C49   C     C_R   0.215052 0.690411 0.584316 0.070637
C50   C     C_R   0.783058 0.311560 0.582557 0.069509
C51   C     C_R   0.819614 0.724061 0.571013 0.116557
C52   C     C_R   0.181599 0.277191 0.426859 0.117038
C53   C     C_R   0.699583 0.206741 0.410809 0.067348
C54   C     C_R   0.301390 0.792525 0.411411 0.068477
C55   C     C_R   0.318319 0.222850 0.573538 0.116370
C56   C     C_R   0.679699 0.775186 0.428826 0.116376
C57   C     C_R   0.231845 0.725344 0.317987 -0.022172
C58   C     C_R   0.770824 0.272357 0.317586 -0.022165
C59   C     C_R   0.728194 0.688529 0.343791 -0.007519
C60   C     C_R   0.268171 0.307820 0.660253 -0.007527
C61   C     C_R   0.705483 0.252342 0.673436 -0.020600
C62   C     C_R   0.290382 0.751794 0.676424 -0.021763
C63   C     C_R   0.231634 0.192142 0.340276 -0.006571
C64   C     C_R   0.771400 0.811008 0.655587 -0.006508
C65   C     C_R   0.751373 0.298890 0.669383 -0.179031
C66   C     C_R   0.244884 0.704862 0.672318 -0.181932
C67   C     C_R   0.184086 0.236713 0.347471 -0.278532
C68   C     C_R   0.818745 0.766219 0.648368 -0.278332
C69   C     C_R   0.278969 0.770731 0.321883 -0.183305
C70   C     C_R   0.723612 0.227037 0.321400 -0.181099
C71   C     C_R   0.680606 0.733086 0.351392 -0.278733
C72   C     C_R   0.315760 0.263265 0.653014 -0.280283
H1    H     H_    0.156584 0.620726 0.649706 0.159256
H2    H     H_    0.840919 0.381807 0.647419 0.159078
H3    H     H_    0.903635 0.678857 0.621862 0.163614
H4    H     H_    0.098638 0.323461 0.374246 0.161433
H5    H     H_    0.637147 0.140959 0.344866 0.167318
H6    H     H_    0.365204 0.856973 0.345242 0.166009
H7    H     H_    0.401279 0.176519 0.626086 0.162720
H8    H     H_    0.595550 0.820477 0.378380 0.162737
H9    H     H_    0.761974 0.326128 0.733978 0.185195
H10   H     H_    0.233116 0.678742 0.737906 0.185027
H11   H     H_    0.150999 0.242619 0.287477 0.142460
H12   H     H_    0.853089 0.761615 0.706911 0.142573
H13   H     H_    0.299119 0.788596 0.254675 0.186726
H14   H     H_    0.704644 0.208064 0.254134 0.187336
H15   H     H_    0.646236 0.737732 0.292895 0.142097
H16   H     H_    0.348794 0.257290 0.713059 0.141546
C73   C     C_R   0.055157 0.507618 0.793746 0.031233
C74   C     C_R   0.944824 0.492527 0.206279 0.021118
C75   C     C_R   0.944781 0.492654 0.792885 0.024232
C76   C     C_R   0.055237 0.507186 0.207140 0.009725
C77   C     C_R   0.555600 0.001233 0.793901 0.026030
C78   C     C_R   0.444405 0.997089 0.206208 0.031355
C79   C     C_R   0.444309 0.999291 0.792832 0.006373
C80   C     C_R   0.555676 0.002379 0.207214 0.019005
N1    N     N_R   0.000000 0.500000 0.743810 -0.184960
N2    N     N_R   1.000000 0.500000 0.256190 -0.182531
N3    N     N_R   0.500000 1.000000 0.743810 -0.185068
N4    N     N_R   0.500000 0.000000 0.256190 -0.186077
C81   C     C_R   0.943468 0.492371 0.895973 -0.009749
C82   C     C_R   0.056540 0.507569 0.104075 -0.008537
C83   C     C_R   0.056501 0.507726 0.896824 -0.004062
C84   C     C_R   0.943495 0.492298 0.103224 -0.004198
C85   C     C_R   0.442952 0.998606 0.895905 -0.006871
C86   C     C_R   0.557028 0.002160 0.104129 -0.008794
C87   C     C_R   0.556975 0.001665 0.896919 -0.004235
C88   C     C_R   0.443010 0.997617 0.103145 -0.004509
C89   C     C_R   0.999995 0.500001 0.948198 0.087046
C90   C     C_R   0.000007 0.499977 0.051849 0.091714
C91   C     C_R   0.499976 0.000051 0.948216 0.087437
C92   C     C_R   0.500003 0.999988 0.051848 0.086932
C93   C     C_R   0.887238 0.484670 0.947842 -0.177997
C94   C     C_R   0.112765 0.515299 0.052229 -0.184227
C95   C     C_R   0.112745 0.515383 0.949502 -0.163238
C96   C     C_R   0.887254 0.484610 0.050569 -0.168195
C97   C     C_R   0.386214 0.996536 0.947670 -0.183496
C98   C     C_R   0.613760 0.004049 0.052307 -0.184004
C99   C     C_R   0.613740 0.003651 0.949586 -0.163099
C100  C     C_R   0.386251 0.995810 0.050406 -0.164531
H17   H     H_    0.098122 0.513841 0.753227 0.119012
H18   H     H_    0.901838 0.486492 0.246807 0.121137
H19   H     H_    0.901691 0.487105 0.751649 0.125996
H20   H     H_    0.098343 0.512569 0.248386 0.127765
H21   H     H_    0.598870 0.002265 0.753540 0.124400
H22   H     H_    0.401163 0.994031 0.246723 0.121264
H23   H     H_    0.400910 0.999386 0.751562 0.131969
H24   H     H_    0.599070 0.004220 0.248570 0.129497
H25   H     H_    0.843266 0.478678 0.908991 0.145843
H26   H     H_    0.156732 0.521311 0.091099 0.142810
H27   H     H_    0.156704 0.521402 0.911277 0.147432
H28   H     H_    0.843301 0.478578 0.088812 0.146012
H29   H     H_    0.341849 0.995266 0.908729 0.147250
H30   H     H_    0.658128 0.005712 0.091185 0.146352
H31   H     H_    0.658084 0.004994 0.911348 0.153375
H32   H     H_    0.341906 0.994059 0.088592 0.149921
C101  C     C_3   0.099026 0.675637 0.330999 -0.804500
H33   H     H_    0.105283 0.719783 0.289161 0.231453
H34   H     H_    0.099458 0.635510 0.280082 0.230608
H35   H     H_    0.051804 0.679513 0.364366 0.239659
C102  C     C_3   0.903373 0.322545 0.335198 -0.820669
H36   H     H_    0.897897 0.277803 0.295502 0.231393
H37   H     H_    0.903568 0.361979 0.282132 0.231368
H38   H     H_    0.950113 0.319372 0.371259 0.232678
C103  C     C_3   0.800190 0.567276 0.380111 -0.780748
H39   H     H_    0.749794 0.562435 0.361208 0.211372
H40   H     H_    0.829358 0.561889 0.313919 0.266134
H41   H     H_    0.810466 0.527609 0.430630 0.194782
C104  C     C_3   0.198003 0.430144 0.625485 -0.782885
H42   H     H_    0.167764 0.434593 0.690654 0.267105
H43   H     H_    0.248085 0.434213 0.646764 0.211713
H44   H     H_    0.188901 0.470740 0.576274 0.195510
C105  C     C_3   0.659791 0.118933 0.682993 -0.848935
H45   H     H_    0.698071 0.132327 0.733898 0.234620
H46   H     H_    0.614259 0.121547 0.721627 0.238498
H47   H     H_    0.670340 0.069748 0.663647 0.230582
C106  C     C_3   0.336221 0.885444 0.679675 -0.847834
H48   H     H_    0.296440 0.873582 0.728260 0.233204
H49   H     H_    0.380655 0.882925 0.722119 0.240057
H50   H     H_    0.327151 0.934434 0.656030 0.228776
C107  C     C_3   0.301429 0.069896 0.375405 -0.784622
H51   H     H_    0.251050 0.065658 0.355955 0.212570
H52   H     H_    0.330591 0.065896 0.309103 0.265176
H53   H     H_    0.311539 0.029233 0.424002 0.195932
C108  C     C_3   0.701218 0.932666 0.616573 -0.797276
H54   H     H_    0.673210 0.938933 0.683610 0.262649
H55   H     H_    0.751920 0.937061 0.633720 0.215938
H56   H     H_    0.690636 0.971853 0.565325 0.193391
C109  C     C_2   0.217981 0.696297 0.221929 0.371567
H57   H     H_    0.198846 0.649475 0.218408 0.071312
O17   O     O_2   0.229099 0.723823 0.145490 -0.514173
C110  C     C_2   0.786281 0.299908 0.220723 0.372605
H58   H     H_    0.805369 0.346713 0.215558 0.072104
O18   O     O_2   0.776527 0.271158 0.145340 -0.516209
C111  C     C_2   0.734419 0.658298 0.247167 0.361684
H59   H     H_    0.692729 0.647013 0.204939 0.067733
O19   O     O_2   0.785905 0.649793 0.210915 -0.531205
C112  C     C_2   0.259876 0.336153 0.757875 0.362340
H60   H     H_    0.300620 0.346288 0.802953 0.068198
O20   O     O_2   0.207626 0.344302 0.791589 -0.530117
C113  C     C_2   0.665889 0.248445 0.762315 0.366527
H61   H     H_    0.619548 0.227866 0.758582 0.081445
O21   O     O_2   0.684083 0.269295 0.840354 -0.517129
C114  C     C_2   0.327878 0.757697 0.767784 0.367935
H62   H     H_    0.374358 0.778031 0.765913 0.086539
O22   O     O_2   0.307787 0.738740 0.845947 -0.515088
C115  C     C_2   0.239756 0.163588 0.242791 0.361480
H63   H     H_    0.198911 0.152927 0.198248 0.068229
O23   O     O_2   0.291930 0.155897 0.208544 -0.532578
C116  C     C_2   0.765420 0.841873 0.751762 0.362166
H64   H     H_    0.807202 0.853073 0.793825 0.067998
O24   O     O_2   0.714005 0.851024 0.787875 -0.534155

loop_
_geom_bond_atom_site_label_1
_geom_bond_atom_site_label_2
_geom_bond_distance
_ccdc_geom_bond_type
C68   H12   1.085925 S    
C63   C67   1.394108 A    
C103  H39   1.108908 S    
O8    Cu1   1.972487 S    
O5    Cu2   1.972207 S    
C75   C81   1.410903 A    
C113  O21   1.221441 D    
C104  H42   1.107805 S    
C14   C22   1.398358 A    
C23   C31   1.413659 A    
C74   N2    1.367034 A    
C29   C105  1.517575 S    
C102  H36   1.109547 S    
C114  O22   1.221448 D    
C73   N1    1.367237 A    
C12   C52   1.386410 A    
C105  H45   1.109282 S    
O10   C6    1.288316 A    
C15   C55   1.386975 A    
C101  H33   1.109578 S    
C7    C22   1.473848 S    
C32   C40   1.420427 A    
O12   Cu4   1.965594 S    
C95   H27   1.083425 S    
C54   C69   1.395822 A    
C27   C35   1.421956 A    
C39   C63   1.424496 A    
C53   C70   1.395944 A    
C38   C62   1.424011 A    
C27   C103  1.518704 S    
C64   C116  1.482170 S    
C108  H55   1.109158 S    
O6    Cu1   1.972204 S    
O2    C2    1.287550 A    
C77   H21   1.078094 S    
C46   C54   1.406475 A    
C77   C87   1.409764 A    
C79   H23   1.081146 S    
C59   C111  1.482076 S    
O13   C7    1.298901 A    
O3    C2    1.289324 A    
C74   H18   1.081454 S    
C113  H61   1.083659 S    
O14   C8    1.286891 A    
C109  O17   1.221427 D    
C20   C28   1.413936 A    
C82   C94   1.405947 A    
C63   C115  1.481583 S    
C16   C56   1.387782 A    
C102  H37   1.109191 S    
C77   N3    1.366207 A    
C33   C41   1.418473 A    
C41   C46   1.404896 A    
C72   H16   1.085702 S    
C106  H49   1.109294 S    
C26   C102  1.519251 S    
C35   C43   1.425340 A    
C93   C96   1.405543 A    
C36   C44   1.424701 A    
O13   Cu4   1.972207 S    
C112  H60   1.085586 S    
C86   C92   1.408048 A    
O14   Cu3   1.972204 S    
C15   C23   1.392908 A    
C59   C71   1.394949 A    
C75   H19   1.082495 S    
C74   C84   1.410210 A    
C61   C65   1.398630 A    
C98   H30   1.083319 S    
O16   Cu3   1.972487 S    
C105  H46   1.109474 S    
C25   C33   1.418002 A    
C101  H34   1.109067 S    
C80   C86   1.410948 A    
C83   C89   1.407799 A    
O1    Cu1   1.969242 S    
C8    C21   1.475190 S    
C104  H43   1.108878 S    
C42   C50   1.407425 A    
C87   C99   1.405808 A    
C15   H7    1.085447 S    
C88   C92   1.407571 A    
C21   C29   1.423732 A    
C102  H38   1.111103 S    
C10   C50   1.387639 A    
C38   C46   1.417296 A    
O11   Cu3   1.965594 S    
C9    C49   1.387769 A    
C107  H52   1.106397 S    
C100  H32   1.083433 S    
C97   C100  1.405657 A    
O8    C3    1.297195 A    
C78   C88   1.410258 A    
C84   C96   1.405821 A    
C97   H29   1.083395 S    
C115  H63   1.085571 S    
C30   C38   1.416664 A    
C44   C47   1.408669 A    
C71   H15   1.085913 S    
O3    Cu1   1.965594 S    
C30   C106  1.517470 S    
C25   C101  1.519118 S    
C13   C21   1.398734 A    
C78   H22   1.080368 S    
O2    Cu2   1.969242 S    
Cu4   N4    2.002970 S    
C45   C53   1.406267 A    
C37   C45   1.416954 A    
C80   H24   1.082622 S    
C93   H25   1.083342 S    
C73   C83   1.410500 A    
C108  H56   1.110991 S    
C61   C113  1.486336 S    
C34   C42   1.418625 A    
C85   C97   1.405900 A    
Cu1   Cu2   2.665882 S    
C107  H51   1.109137 S    
O12   C5    1.288900 A    
C58   C70   1.400068 A    
C51   C68   1.395173 A    
C83   C95   1.405985 A    
C1    C20   1.458532 S    
C110  O18   1.221413 D    
C60   C72   1.394535 A    
C33   C57   1.424376 A    
C2    C19   1.458205 S    
C76   C82   1.410585 A    
C3    C18   1.467358 S    
C76   N2    1.367306 A    
C5    C24   1.459248 S    
C35   C59   1.425224 A    
C85   C91   1.407724 A    
C39   C47   1.424436 A    
C6    C23   1.459525 S    
C58   C110  1.485866 S    
C99   H31   1.083515 S    
C106  H50   1.110635 S    
C60   C112  1.481769 S    
C26   C34   1.418391 A    
C84   C90   1.407811 A    
C16   H8    1.085651 S    
O7    Cu2   1.972484 S    
C70   H14   1.084797 S    
C43   C51   1.408363 A    
C55   C72   1.394881 A    
C14   C54   1.389413 A    
C67   H11   1.085730 S    
O4    C1    1.289532 A    
C13   C53   1.389823 A    
O15   C8    1.299956 A    
C12   H4    1.085566 S    
C22   C30   1.422587 A    
O7    C4    1.285813 A    
O16   C7    1.287288 A    
C79   N3    1.367108 A    
C12   C20   1.392436 A    
C104  H44   1.111136 S    
C37   C61   1.423915 A    
C16   C24   1.393117 A    
C47   C55   1.407755 A    
C32   C108  1.516977 S    
C17   C25   1.420950 A    
C91   C92   1.417918 A    
C66   H10   1.084856 S    
C52   C67   1.394704 A    
C65   H9    1.084831 S    
O9    Cu3   1.969242 S    
C19   C27   1.413957 A    
C89   C90   1.418182 A    
C105  H47   1.109239 S    
O10   Cu4   1.969242 S    
C28   C36   1.421192 A    
C43   C48   1.408981 A    
C86   C98   1.406081 A    
C107  H53   1.111083 S    
C42   C45   1.405076 A    
C73   H17   1.081493 S    
C57   C69   1.399804 A    
O1    C1    1.287617 A    
Cu2   N2    2.002970 S    
C81   C89   1.407913 A    
C31   C107  1.517459 S    
C36   C60   1.424630 A    
C24   C32   1.413066 A    
C29   C37   1.416643 A    
O4    Cu2   1.965594 S    
C94   C95   1.405545 A    
O5    C3    1.285369 A    
Cu3   N3    2.002970 S    
C101  H35   1.110989 S    
C48   C56   1.408153 A    
O6    C4    1.297194 A    
O11   C6    1.289345 A    
C116  O24   1.220856 D    
C103  H41   1.111275 S    
C79   C85   1.410733 A    
C75   N1    1.367528 A    
C41   C49   1.407257 A    
C69   H13   1.084811 S    
C76   H20   1.082459 S    
C88   C100  1.406072 A    
C57   C109  1.485962 S    
C10   H2    1.084917 S    
C62   C66   1.398771 A    
C110  H58   1.083545 S    
C9    H1    1.084915 S    
C4    C17   1.468128 S    
C40   C64   1.424528 A    
O9    C5    1.288521 A    
C108  H54   1.106075 S    
C64   C68   1.394170 A    
C11   H3    1.085724 S    
C11   C51   1.386510 A    
C14   H6    1.084644 S    
C11   C19   1.392266 A    
C13   H5    1.084618 S    
C44   C52   1.407887 A    
Cu1   N1    2.002970 S    
C109  H57   1.083529 S    
C111  O19   1.220852 D    
C87   C91   1.407216 A    
C18   C26   1.420666 A    
C98   C99   1.405546 A    
C106  H48   1.109474 S    
C56   C71   1.395203 A    
C111  H59   1.085861 S    
O15   Cu4   1.972484 S    
C80   N4    1.367351 A    
C31   C39   1.420725 A    
C114  H62   1.083541 S    
C40   C48   1.424668 A    
C103  H40   1.108040 S    
C116  H64   1.085841 S    
C9    C17   1.396081 A    
Cu3   Cu4   2.665882 S    
C115  O23   1.220683 D    
C112  O20   1.220686 D    
C28   C104  1.518473 S    
C10   C18   1.395599 A    
C81   C93   1.406112 A    
C96   H28   1.083474 S    
C50   C65   1.395322 A    
C82   C90   1.407915 A    
C78   N4    1.366740 A    
C49   C66   1.395334 A    
C62   C114  1.486155 S    
C34   C58   1.424433 A    
C94   H26   1.083398 S    
