data_mof_unit_48933.cif
_audit_creation_date              2012-12-10T17:24:36-0500
_audit_creation_method            fapswitch 2.2
_symmetry_space_group_name_H-M    P1
_symmetry_Int_Tables_number       1
_space_group_crystal_system       triclinic
_cell_length_a                    18.541915
_cell_length_b                    18.61673
_cell_length_c                    18.808102
_cell_angle_alpha                 108.641967
_cell_angle_beta                  109.613985
_cell_angle_gamma                 108.364915
_cell_volume                      5104.90337202

loop_
_atom_site_label
_atom_site_type_symbol
_atom_type_description
_atom_site_fract_x
_atom_site_fract_y
_atom_site_fract_z
_atom_type_partial_charge
C1    C     C_R   0.620833 0.619134 0.499662 0.939592
C2    C     C_3   0.189747 0.417735 0.196464 -0.296550
C3    C     C_3   0.216158 0.462564 0.292995 -0.211262
C4    C     C_3   0.311982 0.501682 0.314433 -0.078064
C5    C     C_R   0.594511 0.759430 0.479061 0.476442
C6    C     C_R   0.593954 0.837820 0.500635 -0.188566
C7    C     C_R   0.668453 0.911905 0.530569 -0.354957
C8    C     C_R   0.744121 0.908216 0.534606 0.492671
C9    C     C_R   0.745242 0.827543 0.510639 -0.022273
C10   C     C_R   0.673694 0.755575 0.493683 -0.125341
C11   C     C_R   0.814291 0.815573 0.501545 -0.168960
C12   C     C_R   0.379207 0.500533 0.380115 0.904864
C13   C     C_R   0.816326 0.736757 0.484067 0.063659
C14   C     C_R   0.754534 0.672188 0.486757 0.117083
C15   C     C_R   0.683651 0.682760 0.492794 -0.163021
C16   C     C_R   0.879464 0.721153 0.464583 -0.091280
C17   C     C_R   0.885841 0.646757 0.455812 -0.122352
C18   C     C_R   0.830307 0.586623 0.466645 -0.148878
C19   C     C_R   0.765538 0.598728 0.481986 -0.151326
C20   C     C_R   0.778668 0.654170 0.743124 0.471393
C21   C     C_R   0.835767 0.733223 0.816162 -0.162504
C22   C     C_R   0.883443 0.737261 0.892812 -0.378172
C23   C     C_R   0.383314 0.381050 0.503780 0.901788
C24   C     C_R   0.878308 0.661985 0.896847 0.485847
C25   C     C_R   0.819353 0.579539 0.821825 -0.016817
C26   C     C_R   0.761731 0.575834 0.748078 -0.136323
C27   C     C_R   0.818078 0.501205 0.816047 -0.144239
C28   C     C_R   0.758354 0.420972 0.740886 0.003406
C29   C     C_R   0.688088 0.415146 0.674942 0.043900
C30   C     C_R   0.689413 0.494784 0.681716 -0.171175
C31   C     C_R   0.768149 0.346152 0.730718 -0.112361
C32   C     C_R   0.707953 0.266625 0.660473 -0.200548
C33   C     C_R   0.634992 0.258149 0.599067 -0.236076
C34   C     C_R   0.618212 0.495658 0.619654 1.005105
C35   C     C_R   0.622572 0.330097 0.604869 0.453776
C36   C     C_R   0.403169 0.371601 0.662644 0.384458
C37   C     C_R   0.402967 0.382098 0.739322 0.335685
C38   C     C_R   0.324405 0.339947 0.737948 0.183040
C39   C     C_R   0.249317 0.277415 0.658502 0.373818
C40   C     C_R   0.251994 0.259961 0.579871 -0.115502
C41   C     C_R   0.324963 0.316145 0.582054 -0.206668
C42   C     C_R   0.182605 0.189876 0.498482 -0.125173
C43   C     C_R   0.172616 0.192455 0.420305 -0.138626
C44   C     C_R   0.235886 0.264244 0.427485 0.029396
C45   C     C_3   0.312353 0.583602 0.310908 -0.321327
C46   C     C_R   0.315381 0.317530 0.504433 -0.090774
C47   C     C_R   0.100953 0.130165 0.335632 0.443965
C48   C     C_R   0.080515 0.154798 0.270728 0.426998
C49   C     C_R   0.140029 0.231512 0.282923 -0.346859
C50   C     C_R   0.218127 0.283173 0.358254 -0.222671
C51   C     C_R   0.005147 0.619388 0.125382 1.087878
C52   C     C_R   0.123989 0.499852 0.124779 1.035574
C53   C     C_R   0.001738 0.381515 0.880961 1.034225
C54   C     C_R   0.883399 0.502437 0.885028 1.056762
C55   C     C_R   0.999551 0.877671 0.381788 0.986924
C56   C     C_3   0.215835 0.542623 0.286621 0.445119
C57   C     C_R   0.880316 0.881929 0.501945 1.033195
C58   C     C_R   0.997595 0.119965 0.618427 1.111160
C59   C     C_R   0.119473 0.118661 0.497289 1.056037
C60   C     C_R   0.164679 0.742877 0.293111 0.502525
C61   C     C_R   0.229490 0.790307 0.379311 -0.417577
C62   C     C_R   0.230828 0.861636 0.434322 0.350559
C63   C     C_R   0.164309 0.881775 0.402146 0.462310
C64   C     C_R   0.082276 0.813732 0.330083 -0.186800
C65   C     C_R   0.083773 0.746004 0.270256 -0.124025
C66   C     C_R   0.000261 0.808804 0.318856 -0.084920
C67   C     C_3   0.189755 0.498824 0.192035 -0.058780
C68   C     C_R   0.920370 0.733351 0.252490 -0.185616
C69   C     C_R   0.923006 0.676528 0.183900 -0.108423
C70   C     C_R   0.004771 0.684218 0.192484 -0.086103
C71   C     C_R   0.837455 0.710467 0.250398 0.401752
C72   C     C_R   0.769969 0.625538 0.193486 0.226855
C73   C     C_R   0.767251 0.580621 0.116140 0.208897
C74   C     C_R   0.842324 0.611852 0.108666 0.411123
C75   C     C_R   0.940890 0.367342 0.707804 0.418566
C76   C     C_R   0.891476 0.342210 0.620995 -0.433448
C77   C     C_R   0.900810 0.285890 0.559817 0.338635
C78   C     C_3   0.285378 0.536844 0.215198 0.481712
C79   C     C_R   0.957042 0.253150 0.587352 0.491932
C80   C     C_R   0.975432 0.249702 0.666094 -0.173208
C81   C     C_R   0.972842 0.312602 0.730210 -0.117827
C82   C     C_R   0.993941 0.185821 0.682499 -0.150613
C83   C     C_R   0.012209 0.187044 0.762804 -0.040960
C84   C     C_R   0.033563 0.262765 0.831775 -0.029813
C85   C     C_R   0.004662 0.319668 0.813721 -0.108740
C86   C     C_R   0.011099 0.116151 0.777661 0.485617
C87   C     C_R   0.051559 0.130033 0.862204 -0.298971
C88   C     C_R   0.090978 0.211535 0.930839 -0.291166
C89   C     C_3   0.286527 0.455850 0.218757 -0.253237
C90   C     C_R   0.082521 0.278729 0.916814 0.460286
H1    H     H_    0.666268 0.972244 0.547968 0.155358
H2    H     H_    0.924424 0.765526 0.455235 0.144806
H3    H     H_    0.934848 0.636390 0.441746 0.140684
H4    H     H_    0.725390 0.548869 0.489514 0.149462
H5    H     H_    0.587169 0.194419 0.546258 0.135744
H6    H     H_    0.845976 0.792239 0.812515 0.178101
H7    H     H_    0.927597 0.799893 0.948762 0.161130
H8    H     H_    0.359696 0.651785 0.358396 0.188119
H9    H     H_    0.823585 0.347516 0.775761 0.163333
H10   H     H_    0.717327 0.210848 0.654444 0.155817
H11   H     H_    0.126566 0.250897 0.233464 0.161524
H12   H     H_    0.262211 0.341007 0.363189 0.166516
H13   H     H_    0.283115 0.776683 0.401036 0.166083
H14   H     H_    0.125988 0.221810 0.995310 0.151488
H15   H     H_    0.317563 0.420830 0.191883 0.161416
H16   H     H_    0.854805 0.374531 0.602909 0.169362
H17   H     H_    0.053721 0.077767 0.874939 0.153375
H18   H     H_    0.138246 0.350584 0.149175 0.167423
H19   H     H_    0.189434 0.433631 0.327616 0.148246
H20   H     H_    0.836569 0.529614 0.461974 0.135696
H21   H     H_    0.534362 0.840836 0.491808 0.162679
O1    O     O_R   0.592010 0.539900 0.448660 -0.665687
O2    O     O_R   0.054870 0.643310 0.094700 -0.613016
O3    O     O_R   0.044440 0.448270 0.096110 -0.631213
O4    O     O_R   0.147870 0.551680 0.096080 -0.584255
O5    O     O_R   0.952810 0.356650 0.912880 -0.650482
O6    O     O_R   0.056240 0.460060 0.912840 -0.585259
O7    O     O_R   0.859800 0.448280 0.911500 -0.630421
O8    O     O_R   0.963240 0.551690 0.911470 -0.597817
O9    O     O_R   0.052860 0.908430 0.461230 -0.604891
O10   O     O_R   0.948620 0.908400 0.356980 -0.598821
O11   O     O_R   0.960510 0.908410 0.552140 -0.640438
O12   O     O_R   0.591210 0.643320 0.551330 -0.540761
O13   O     O_R   0.856270 0.908390 0.447890 -0.610076
O14   O     O_R   0.051380 0.091620 0.643040 -0.586718
O15   O     O_R   0.947140 0.091600 0.538800 -0.578104
O16   O     O_R   0.143730 0.091640 0.552130 -0.588745
O17   O     O_R   0.039490 0.091610 0.447890 -0.570345
O18   O     O_R   0.408080 0.448290 0.356360 -0.642336
O19   O     O_R   0.407280 0.551710 0.459030 -0.598623
O20   O     O_R   0.408790 0.356680 0.448670 -0.609661
O21   O     O_R   0.407990 0.460100 0.551340 -0.603663
O22   O     O_R   0.592720 0.448290 0.540970 -0.601770
O23   O     O_R   0.591920 0.551710 0.643640 -0.560019
O24   O     O_R   0.951440 0.539900 0.094740 -0.598955
Zn1   Zn    Zn3+2 0.500540 0.430950 0.431450 0.961514
Zn2   Zn    Zn3+2 0.499460 0.569050 0.568550 1.049404
Zn3   Zn    Zn3+2 0.934770 0.430930 0.003810 1.023622
Zn4   Zn    Zn3+2 0.072900 0.569020 0.003770 0.994068
Zn5   Zn    Zn3+2 0.069600 0.000030 0.569620 1.047802
Zn6   Zn    Zn3+2 0.930400 0.000000 0.430410 1.051073
O25   O     O_3   0.175316 0.585676 0.318956 -0.752275
H22   H     H_    0.207752 0.609640 0.382050 0.330882
O26   O     O_3   0.817612 0.983233 0.564991 -0.746886
H23   H     H_    0.805328 0.032617 0.579150 0.324340
O27   O     O_3   0.748298 0.656232 0.666932 -0.775514
H24   H     H_    0.744932 0.606018 0.624014 0.292096
O28   O     O_3   0.928683 0.669065 0.974269 -0.734746
H25   H     H_    0.975959 0.729067 0.013047 0.322031
O29   O     O_3   0.545608 0.315548 0.543399 -0.794070
H26   H     H_    0.516292 0.257314 0.493769 0.332260
O30   O     O_3   0.482673 0.413140 0.669408 -0.694606
H27   H     H_    0.485220 0.371027 0.624022 0.342845
O31   O     O_3   0.481434 0.433842 0.814527 -0.694725
H28   H     H_    0.478443 0.415051 0.857606 0.344503
O32   O     O_3   0.318944 0.358585 0.812655 -0.772197
H29   H     H_    0.363054 0.418845 0.855976 0.349254
O33   O     O_3   0.170396 0.239800 0.655470 -0.772880
H30   H     H_    0.177050 0.259501 0.713837 0.383444
O34   O     O_3   0.049339 0.046966 0.316363 -0.619865
C91   C     C_3   0.057060 0.986017 0.255113 0.121000
H31   H     H_    0.067640 0.941500 0.279728 0.163308
H32   H     H_    0.115005 0.014330 0.247443 0.060904
C92   C     C_3   0.973891 0.935663 0.167242 -0.276699
H33   H     H_    0.922321 0.951725 0.172380 0.278954
H34   H     H_    0.988656 0.953635 0.120891 0.211848
C93   C     C_3   0.937366 0.838844 0.131025 -0.963125
H35   H     H_    0.989755 0.820699 0.136577 0.263998
H36   H     H_    0.886611 0.805663 0.062779 0.280170
H37   H     H_    0.906670 0.818293 0.166996 0.277191
O35   O     O_3   0.000947 0.103737 0.197053 -0.791832
H38   H     H_    0.996957 0.130130 0.158607 0.329317
O36   O     O_3   0.314559 0.572856 0.168234 -0.640355
C94   C     C_3   0.404969 0.603757 0.200514 0.106092
H39   H     H_    0.415903 0.581120 0.144707 0.176811
H40   H     H_    0.433896 0.579010 0.243020 0.118924
C95   C     C_3   0.451758 0.702246 0.247410 -0.355944
H41   H     H_    0.420548 0.726149 0.205475 0.224810
H42   H     H_    0.446320 0.726050 0.306530 0.224249
C96   C     C_3   0.547515 0.738329 0.271169 -0.956412
H43   H     H_    0.579781 0.712066 0.309317 0.267888
H44   H     H_    0.580948 0.809523 0.309752 0.266610
H45   H     H_    0.553611 0.721242 0.212047 0.259228
O37   O     O_3   0.692925 0.508281 0.047098 -0.755435
H46   H     H_    0.641678 0.508807 0.052380 0.350437
O38   O     O_3   0.179997 0.692264 0.233958 -0.617629
C97   C     C_3   0.256662 0.742419 0.234633 0.133965
H47   H     H_    0.267793 0.698347 0.189136 0.209470
H48   H     H_    0.315866 0.773228 0.297631 0.106362
C98   C     C_3   0.248988 0.809612 0.205823 -0.406319
H49   H     H_    0.191743 0.777308 0.141133 0.243747
H50   H     H_    0.240513 0.857227 0.251265 0.196964
C99   C     C_3   0.330169 0.857810 0.202341 -0.973002
H51   H     H_    0.388512 0.891461 0.266588 0.266943
H52   H     H_    0.323342 0.906344 0.182269 0.270179
H53   H     H_    0.339034 0.812366 0.155232 0.262884
O39   O     O_3   0.297930 0.914981 0.517412 -0.766506
H54   H     H_    0.339440 0.891779 0.529081 0.331142
O40   O     O_3   0.179074 0.965957 0.441172 -0.618277
C100  C     C_3   0.246729 0.022359 0.435508 0.084134
H55   H     H_    0.219508 0.053501 0.400577 0.129090
H56   H     H_    0.273895 0.990078 0.398861 0.107571
C101  C     C_3   0.320333 0.092980 0.525438 -0.257072
H57   H     H_    0.294743 0.127988 0.560835 0.225874
H58   H     H_    0.349788 0.065231 0.563237 0.273258
C102  C     C_3   0.391571 0.156513 0.520715 -0.991053
H59   H     H_    0.422019 0.123289 0.490572 0.258441
H60   H     H_    0.442140 0.208682 0.586522 0.287480
H61   H     H_    0.364488 0.185288 0.482413 0.280740
O41   O     O_3   0.823214 0.767413 0.305556 -0.629194
C103  C     C_3   0.747996 0.773178 0.259497 0.162203
H62   H     H_    0.736953 0.815628 0.306462 0.176058
H63   H     H_    0.687544 0.711087 0.223668 0.182112
C104  C     C_3   0.756821 0.810450 0.198785 -0.423469
H64   H     H_    0.815265 0.874370 0.234840 0.261568
H65   H     H_    0.762794 0.766710 0.147485 0.213428
C105  C     C_3   0.677494 0.820788 0.156195 -0.941332
H66   H     H_    0.617966 0.757276 0.116952 0.267783
H67   H     H_    0.686023 0.848477 0.113527 0.279722
H68   H     H_    0.669516 0.864731 0.205495 0.263051
O42   O     O_3   0.707134 0.590880 0.213977 -0.769124
H69   H     H_    0.679461 0.527296 0.181876 0.350141
O43   O     O_3   0.838213 0.581801 0.029346 -0.708014
H70   H     H_    0.777067 0.544543 0.983060 0.387953
O44   O     O_3   0.957780 0.444612 0.769324 -0.658099
C106  C     C_3   0.004663 0.514819 0.760003 0.123654
H71   H     H_    0.005932 0.573047 0.802456 0.171189
H72   H     H_    0.971946 0.506588 0.694297 0.119026
C107  C     C_3   0.099128 0.532751 0.786659 -0.351571
H73   H     H_    0.132906 0.547351 0.854587 0.248259
H74   H     H_    0.100522 0.475395 0.745961 0.210413
C108  C     C_3   0.148340 0.608928 0.777296 -0.974802
H75   H     H_    0.116980 0.595233 0.709385 0.267027
H76   H     H_    0.216273 0.620564 0.797265 0.275382
H77   H     H_    0.149607 0.667880 0.818549 0.263587
O45   O     O_3   0.864149 0.269213 0.475471 -0.764508
H78   H     H_    0.827913 0.298396 0.467440 0.331898
O46   O     O_3   0.998773 0.231830 0.541415 -0.594096
C109  C     C_3   0.055011 0.305957 0.543487 0.136828
H79   H     H_    0.122771 0.319209 0.579314 0.177408
H80   H     H_    0.053014 0.366308 0.576855 0.101594
C110  C     C_3   0.034899 0.288872 0.452104 -0.279719
H81   H     H_    0.037083 0.229330 0.418568 0.238116
H82   H     H_    0.968493 0.279012 0.415750 0.265310
C111  C     C_3   0.099692 0.363803 0.452218 -0.976403
H83   H     H_    0.095142 0.423109 0.481816 0.268119
H84   H     H_    0.084923 0.348474 0.385245 0.277247
H85   H     H_    0.167021 0.375667 0.488712 0.274839
O47   O     O_3   0.965177 0.033455 0.710026 -0.732879
H86   H     H_    0.970213 0.992418 0.731984 0.329100
O48   O     O_3   0.126252 0.361141 0.984262 -0.779039
H87   H     H_    0.168331 0.363232 0.035031 0.326314
O49   O     O_3   0.515131 0.687491 0.437188 -0.791462
H88   H     H_    0.516179 0.641360 0.393626 0.302743

loop_
_geom_bond_atom_site_label_1
_geom_bond_atom_site_label_2
_ccdc_geom_bond_type
C8    C9    A    
O24   Zn3   S    
C66   C68   A    
O35   H38   S    
C55   O10   A    
C98   H49   S    
C111  H83   S    
C73   C74   A    
C109  H79   S    
C38   O32   S    
C101  H57   S    
C21   H6    S    
C55   C66   S    
O23   Zn2   S    
C91   H31   S    
C27   C54   S    
C7    C8    A    
C93   H36   S    
C31   C32   A    
O36   C94   S    
O45   H78   S    
C105  H68   S    
C101  H58   S    
O47   H86   S    
C29   C30   A    
C12   O19   A    
C5    C6    A    
C28   C29   A    
C61   H13   S    
O44   C106  S    
O27   H24   S    
C107  C108  S    
C10   C15   A    
C58   C82   S    
C1    O1    A    
C49   H11   S    
O49   H88   S    
C104  H65   S    
C34   O23   A    
C59   O16   A    
C65   C70   A    
C48   O35   S    
O37   H46   S    
C18   C19   A    
C6    H21   S    
C5    O49   S    
C49   C50   A    
O42   H69   S    
C94   H39   S    
C108  H75   S    
C97   C98   S    
C98   C99   S    
C91   H32   S    
C57   O11   A    
C68   C69   A    
C51   O24   A    
C98   H50   S    
C83   C84   A    
C45   C56   S    
C96   H44   S    
C100  H55   S    
C99   H52   S    
C78   O36   S    
C110  H82   S    
C41   C46   A    
O2    Zn4   S    
C45   C78   S    
C1    C15   S    
C51   C70   S    
C31   H9    S    
C4    C12   S    
O17   Zn6   S    
C111  H85   S    
C79   C80   A    
C96   H45   S    
C106  H71   S    
C55   O9    A    
C56   O25   S    
C95   C96   S    
C86   O47   S    
C40   C42   A    
O38   C97   S    
O40   C100  S    
C78   C89   S    
C23   C46   S    
C13   C14   A    
C72   C73   A    
C92   H33   S    
C36   C41   A    
O6    Zn4   S    
C67   C78   S    
C84   C90   A    
C47   O34   S    
O1    Zn1   S    
C33   H5    S    
C88   H14   S    
C107  H73   S    
C44   C46   A    
C110  H81   S    
C93   H37   S    
O5    Zn3   S    
C4    C45   S    
C77   C79   A    
O14   Zn5   S    
C101  C102  S    
C54   O8    A    
C110  C111  S    
C12   O18   A    
C30   C34   S    
O10   Zn6   S    
O48   H87   S    
C84   C85   A    
O43   H70   S    
C8    O26   S    
O20   Zn1   S    
C24   O28   S    
C53   O6    A    
C39   C40   A    
C73   O37   S    
C102  H59   S    
C16   C17   A    
C36   O30   S    
C34   O22   A    
C95   H42   S    
C25   C26   A    
C74   O43   S    
C82   C83   A    
C77   O45   S    
C32   H10   S    
C60   C61   A    
C2    C67   S    
C64   C66   A    
C2    C89   S    
C2    H18   S    
C75   C76   A    
C1    O12   A    
C103  H62   S    
C37   C38   A    
O22   Zn1   S    
O18   Zn1   S    
C3    C56   S    
C47   C48   A    
C14   C15   A    
C75   O44   S    
C99   H53   S    
C7    H1    S    
C59   O17   A    
C62   C63   A    
C108  H76   S    
C17   C18   A    
C23   O20   A    
C69   C74   A    
C109  H80   S    
C51   O2    A    
C24   C25   A    
C52   O3    A    
C9    C11   A    
C94   C95   S    
O31   H28   S    
C19   H4    S    
C11   C57   S    
C95   H41   S    
O9    Zn5   S    
C26   C30   A    
O3    Zn3   S    
C80   C82   A    
C40   C41   A    
C103  H63   S    
C88   C90   A    
C60   C65   A    
O41   C103  S    
C106  H72   S    
C111  H84   S    
C43   C44   A    
O33   H30   S    
C107  H74   S    
C22   C24   A    
O13   Zn6   S    
C58   O14   A    
C16   H2    S    
C17   H3    S    
C42   C43   A    
C3    C4    S    
C106  C107  S    
C54   O7    A    
C93   H35   S    
C91   C92   S    
C96   H43   S    
C4    C89   S    
C9    C10   A    
C52   O4    A    
C44   C50   A    
O12   Zn2   S    
O46   C109  S    
O32   H29   S    
C60   O38   S    
C50   H12   S    
C86   C87   A    
C37   O31   S    
C28   C31   A    
C75   C81   A    
C18   H20   S    
C62   O39   S    
C52   C67   S    
C80   C81   A    
C104  C105  S    
C42   C59   S    
C53   O5    A    
C58   O15   A    
C6    C7    A    
C71   O41   S    
O39   H54   S    
C105  H67   S    
C56   C67   S    
C90   O48   S    
C29   C35   A    
O15   Zn6   S    
O29   H26   S    
C100  C101  S    
O26   H23   S    
O8    Zn4   S    
C64   C65   A    
C92   H34   S    
C45   H8    S    
O21   Zn2   S    
O11   Zn5   S    
C5    C10   A    
C39   O33   S    
O7    Zn3   S    
C76   H16   S    
C32   C33   A    
C57   O13   A    
C76   C77   A    
C11   C13   A    
C102  H61   S    
C38   C39   A    
O4    Zn4   S    
C20   C26   A    
C36   C37   A    
C3    H19   S    
C68   C71   A    
C48   C49   A    
C72   O42   S    
C104  H64   S    
C105  H66   S    
C14   C19   A    
C92   C93   S    
C33   C35   A    
C94   H40   S    
C63   O40   S    
C23   O21   A    
C2    C3    S    
C109  C110  S    
C20   O27   S    
O28   H25   S    
C108  H77   S    
C35   O29   S    
C61   C62   A    
O34   C91   S    
C69   C70   A    
C97   H48   S    
O19   Zn2   S    
C63   C64   A    
C97   H47   S    
C83   C86   A    
C87   H17   S    
C20   C21   A    
C87   C88   A    
C100  H56   S    
C99   H51   S    
O16   Zn5   S    
C13   C16   A    
C89   H15   S    
C27   C28   A    
C22   H7    S    
O25   H22   S    
C53   C85   S    
O30   H27   S    
C79   O46   S    
C71   C72   A    
C103  C104  S    
C21   C22   A    
C102  H60   S    
C43   C47   A    
C81   C85   A    
C25   C27   A    
