data_mof_unit_67071.cif
_audit_creation_date              2012-12-11T17:41:22-0500
_audit_creation_method            fapswitch 2.2
_symmetry_space_group_name_H-M    P1
_symmetry_Int_Tables_number       1
_space_group_crystal_system       triclinic
_cell_length_a                    8.306026
_cell_length_b                    12.813818
_cell_length_c                    14.193334
_cell_angle_alpha                 92.975909
_cell_angle_beta                  90.631588
_cell_angle_gamma                 98.064557
_cell_volume                      1493.41144769

loop_
_atom_site_label
_atom_site_type_symbol
_atom_type_description
_atom_site_fract_x
_atom_site_fract_y
_atom_site_fract_z
_atom_type_partial_charge
Ba1   Ba    Ba6+2 0.855630 0.555280 0.454520 1.752420
Ba2   Ba    Ba6+2 0.334200 0.444810 0.545490 1.716392
C1    C     C_3   0.534820 0.929400 0.148694 -0.302163
C2    C     C_R   0.182888 0.491307 0.195390 0.116898
C3    C     C_R   0.338678 0.536114 0.224990 -0.178432
C4    C     C_3   0.032538 0.835111 0.211091 0.669275
C5    C     C_R   0.452927 0.574804 0.160515 0.056543
C6    C     C_R   0.412168 0.571965 0.064432 -0.098307
C7    C     C_R   0.253458 0.532794 0.032638 0.065015
C8    C     C_R   0.138462 0.487253 0.097119 0.053512
C9    C     C_R   0.054883 0.496499 0.901040 -0.015222
C10   C     C_R   0.941704 0.446529 0.964726 0.027516
C11   C     C_R   0.009784 0.498127 0.803135 0.106447
C12   C     C_3   0.517048 0.812942 0.167724 0.259752
C13   C     C_R   0.856887 0.446938 0.772442 -0.216585
C14   C     C_R   0.743457 0.403638 0.836446 0.022107
C15   C     C_R   0.785285 0.403108 0.931911 -0.045778
C16   C     C_3   0.988890 0.899490 0.129305 -0.237162
C17   C     C_R   0.208823 0.540988 0.937585 0.011750
C18   C     C_R   0.759508 0.177313 0.545986 -0.211200
C19   C     C_R   0.434187 0.816831 0.469488 -0.255920
C20   C     C_R   0.399010 0.996728 0.446944 -0.062298
C21   C     C_R   0.340448 0.889415 0.438771 -0.007863
C22   C     C_R   0.578544 0.849595 0.519977 0.065167
C23   C     C_3   0.443559 0.257668 0.251800 0.594046
C24   C     C_R   0.637327 0.959709 0.534970 -0.007641
C25   C     C_R   0.546963 0.034124 0.495089 -0.014545
C26   C     C_R   0.610981 0.143143 0.500501 0.071110
C27   C     C_R   0.850333 0.105968 0.583916 0.033140
C28   C     C_3   0.192984 0.761684 0.652108 0.371868
C29   C     C_R   0.787768 0.997980 0.581507 -0.058386
C30   C     C_3   0.171439 0.876912 0.669992 -0.296803
C31   C     C_3   0.941671 0.233025 0.323583 0.294981
C32   C     C_3   0.884321 0.128344 0.270321 0.140206
C33   C     C_3   0.627449 0.706329 0.756449 0.560400
C34   C     C_3   0.357486 0.180559 0.175622 0.252670
C35   C     C_3   0.523474 0.775694 0.811212 -0.233494
C36   C     C_3   0.013562 0.172251 0.806548 0.288551
C37   C     C_3   0.008419 0.113304 0.897322 0.215657
C38   C     C_3   0.517427 0.148197 0.762226 0.519498
C39   C     C_3   0.548453 0.048596 0.808821 0.258300
C40   C     C_R   0.984162 0.441796 0.060937 0.071916
Cl1   Cl    Cl    0.821456 0.026485 0.345571 -0.783155
Cl2   Cl    Cl    0.760916 0.665890 0.841358 -0.761522
Cl3   Cl    Cl    0.583553 0.351412 0.196206 -0.710604
Cl4   Cl    Cl    0.251470 0.245770 0.092116 -0.650533
Cl5   Cl    Cl    0.883187 0.167334 0.982802 -0.715896
Cl6   Cl    Cl    0.389628 0.003861 0.887038 -0.697973
Cl7   Cl    Cl    0.127273 0.730206 0.162229 -0.801097
H1    H     H_    0.451999 0.800609 0.235311 0.045795
H2    H     H_    0.601985 0.837566 0.854982 0.163678
H3    H     H_    0.440354 0.729362 0.858521 0.103102
H4    H     H_    0.453073 0.815382 0.762086 0.086337
H5    H     H_    0.444809 0.771790 0.107475 0.087858
H6    H     H_    0.413255 0.950665 0.131508 0.122990
H7    H     H_    0.352433 0.298683 0.290006 -0.000203
H8    H     H_    0.448475 0.140219 0.136757 0.118410
H9    H     H_    0.615788 0.946894 0.088059 0.168109
H10   H     H_    0.932209 0.846705 0.069802 0.163159
H11   H     H_    0.072498 0.254993 0.821340 0.070653
H12   H     H_    0.276475 0.920762 0.709814 0.131661
H13   H     H_    0.886637 0.172572 0.781624 -0.068357
H14   H     H_    0.415339 0.128631 0.710420 0.055250
H15   H     H_    0.663366 0.063778 0.850203 0.102463
H16   H     H_    0.561439 0.986976 0.752912 -0.097359
H17   H     H_    0.921420 0.803317 0.247739 0.122866
H18   H     H_    0.372554 0.540249 0.299106 0.048746
H19   H     H_    0.501648 0.606135 0.015620 0.093696
H20   H     H_    0.695931 0.368002 0.980322 0.153348
H21   H     H_    0.821335 0.447167 0.698874 0.060727
H22   H     H_    0.895605 0.401890 0.106592 0.154553
H23   H     H_    0.059189 0.883063 0.710422 0.161464
H24   H     H_    0.297212 0.580803 0.892544 0.090043
H25   H     H_    0.860721 0.944950 0.612071 0.092468
H26   H     H_    0.810136 0.259925 0.546226 0.030253
H27   H     H_    0.388623 0.733569 0.458915 0.051354
H28   H     H_    0.899211 0.951215 0.151742 0.111646
H29   H     H_    0.099117 0.948236 0.103375 0.141586
H30   H     H_    0.316658 0.755376 0.627209 -0.152139
H31   H     H_    0.105409 0.728857 0.595675 0.089213
H32   H     H_    0.162011 0.914422 0.602212 0.073822
H33   H     H_    0.270701 0.120021 0.208719 0.013788
H34   H     H_    0.836493 0.269657 0.349346 0.039220
H35   H     H_    0.132885 0.118540 0.927501 0.202863
H36   H     H_    0.959591 0.028812 0.881979 0.077825
H37   H     H_    0.629037 0.176498 0.723398 -0.269463
H38   H     H_    0.326748 0.049416 0.414964 0.118521
H39   H     H_    0.023660 0.221641 0.383454 0.038935
H40   H     H_    0.784346 0.137007 0.220054 0.139314
H41   H     H_    0.987065 0.104173 0.229479 0.125558
H42   H     H_    0.556840 0.635695 0.721643 0.057408
H43   H     H_    0.583329 0.977580 0.212114 0.153092
O1    O     O_2   0.887370 0.460630 0.272300 -0.418665
O2    O     O_2   0.184266 0.112186 0.563782 -0.487627
O3    O     O_3   0.104744 0.121183 0.740253 -0.615276
O4    O     O_3   0.129410 0.451380 0.388510 -0.506582
O5    O     O_3   0.575400 0.626570 0.547370 -0.502072
O6    O     O_2   0.344320 0.238700 0.455090 -0.485985
O7    O     O_3   0.532392 0.199860 0.309595 -0.678015
O8    O     O_2   0.410264 0.413826 0.835359 -0.469633
O9    O     O_3   0.477666 0.222581 0.831238 -0.542213
O10   O     O_3   0.670210 0.653170 0.329170 -0.464209
O11   O     O_2   0.792700 0.601006 0.163384 -0.419035
O12   O     O_3   0.721845 0.768035 0.693711 -0.625938
O13   O     O_3   0.028446 0.292897 0.257498 -0.626833
O14   O     O_3   0.670044 0.778295 0.171224 -0.624448
O15   O     O_2   0.845380 0.761330 0.544970 -0.456707
O16   O     O_3   0.088930 0.704860 0.376040 -0.478722
O17   O     O_2   0.008594 0.889949 0.440817 -0.431370
O18   O     O_3   0.139517 0.899066 0.273848 -0.627327
O19   O     O_2   0.302330 0.539400 0.727760 -0.504751
O20   O     O_3   0.060300 0.548700 0.611500 -0.507217
O21   O     O_3   0.519500 0.346920 0.670840 -0.491113
O22   O     O_3   0.169227 0.709788 0.736559 -0.596875
O23   O     O_3   0.614310 0.373510 0.452640 -0.461790
O24   O     O_3   0.100780 0.295230 0.623970 -0.485932
P1    P     P_3+3 0.054400 0.427280 0.286870 1.041228
P2    P     P_3+3 0.668300 0.742890 0.573060 0.972252
P3    P     P_3+3 0.141592 0.843036 0.384299 0.990705
P4    P     P_3+3 0.135310 0.572810 0.713130 1.015171
P5    P     P_3+3 0.058383 0.157650 0.627146 0.957874
P6    P     P_3+3 0.645804 0.647508 0.205932 1.029450
P7    P     P_3+3 0.527820 0.239949 0.429461 0.959648
P8    P     P_3+3 0.538277 0.349464 0.793539 1.035197

loop_
_geom_bond_atom_site_label_1
_geom_bond_atom_site_label_2
_ccdc_geom_bond_type
C15   H20   S    
C8    C40   A    
C23   H7    S    
C3    H18   S    
Ba1   O16   S    
C26   P7    S    
O20   P4    S    
C5    C6    A    
C30   H23   S    
C30   H32   S    
C19   H27   S    
C9    C17   A    
C24   C25   A    
C38   H14   S    
O7    P7    S    
C33   C35   S    
C31   H39   S    
C22   C24   A    
C30   H12   S    
C16   H28   S    
Ba1   O20   S    
C21   P3    S    
C36   C37   S    
C35   H2    S    
Ba2   O21   S    
C13   C14   A    
Ba1   Ba2   S    
C38   H37   S    
O5    P2    S    
C10   C40   A    
C38   O9    S    
Ba2   O24   S    
C23   O7    S    
Ba2   O5    S    
C34   H33   S    
C14   C15   A    
C27   P5    S    
C36   O3    S    
C34   Cl4   S    
C7    C8    A    
O15   P2    D    
C28   H31   S    
O3    P5    S    
C24   C29   A    
C4    O18   S    
O16   P3    S    
O13   P1    S    
O1    P1    D    
C7    C17   A    
O12   P2    S    
C18   C27   A    
O6    P7    D    
C4    C16   S    
Ba2   O19   S    
O9    P8    S    
O23   P7    S    
O24   P5    S    
O4    P1    S    
C17   H24   S    
C31   O13   S    
C34   H8    S    
Ba1   O5    S    
C3    C5    A    
C35   H3    S    
Ba2   P4    S    
C6    C7    A    
C29   H25   S    
C39   H16   S    
C18   C26   A    
C18   H26   S    
O19   P4    D    
O8    P8    D    
C10   C15   A    
C32   H41   S    
C1    H9    S    
Ba2   O23   S    
C4    H17   S    
C16   H29   S    
Ba2   O20   S    
O14   P6    S    
C31   C32   S    
Ba1   P1    S    
C20   H38   S    
C33   Cl2   S    
C31   H34   S    
C1    C12   S    
Ba1   O15   S    
C36   H11   S    
C28   H30   S    
C38   C39   S    
C12   H5    S    
C33   O12   S    
C20   C25   A    
C19   C21   A    
C2    P1    S    
C37   H36   S    
C5    P6    S    
C2    C8    A    
C23   Cl3   S    
C11   P4    S    
O17   P3    D    
C37   Cl5   S    
C28   O22   S    
C13   H21   S    
C1    H6    S    
C32   Cl1   S    
C2    C3    A    
O18   P3    S    
C37   H35   S    
C9    C10   A    
C6    H19   S    
C22   P2    S    
C11   C13   A    
C14   P8    S    
C32   H40   S    
C35   H4    S    
C27   C29   A    
C28   C30   S    
C9    C11   A    
C12   H1    S    
O21   P8    S    
Ba1   O4    S    
Ba2   O4    S    
C40   H22   S    
C39   Cl6   S    
Ba1   P2    S    
C4    Cl7   S    
C23   C34   S    
O2    P5    D    
C16   H10   S    
C12   O14   S    
Ba2   O6    S    
Ba1   O1    S    
C19   C22   A    
C25   C26   A    
C20   C21   A    
C1    H43   S    
Ba1   O23   S    
C39   H15   S    
O10   P6    S    
O11   P6    D    
Ba1   O10   S    
O22   P4    S    
C36   H13   S    
C33   H42   S    
