data_mof_unit_37097.cif
_audit_creation_date              2013-03-05T15:40:31-0500
_audit_creation_method            fapswitch 2.2
_symmetry_space_group_name_H-M    P1
_symmetry_Int_Tables_number       1
_space_group_crystal_system       triclinic
_cell_length_a                    12.082778
_cell_length_b                    12.311228
_cell_length_c                    23.342513
_cell_angle_alpha                 89.883268
_cell_angle_beta                  90.432391
_cell_angle_gamma                 89.729383
_cell_volume                      3472.14325696

loop_
_atom_site_label
_atom_site_type_symbol
_atom_site_description
_atom_site_fract_x
_atom_site_fract_y
_atom_site_fract_z
_atom_type_partial_charge
O1    O     O_R   0.621380 0.090460 0.561410 -0.559497
O2    O     O_R   0.378620 0.909540 0.438590 -0.588157
O3    O     O_R   0.617150 0.909540 0.438590 -0.599984
O4    O     O_R   0.382850 0.090460 0.561410 -0.602245
O5    O     O_R   0.619720 0.093230 0.440890 -0.649895
O6    O     O_R   0.380280 0.906770 0.559110 -0.626475
O7    O     O_R   0.618800 0.906770 0.559110 -0.648133
O8    O     O_R   0.381200 0.093230 0.440890 -0.614472
C1    C     C_R   0.651244 0.997129 0.581844 0.947072
C2    C     C_R   0.342686 0.002818 0.421140 1.015270
C3    C     C_R   0.654126 0.001797 0.420551 0.900488
C4    C     C_R   0.348150 0.997875 0.580441 1.025205
Zn1   Zn    Zn3+2 0.501730 0.123520 0.501540 1.031695
Zn2   Zn    Zn3+2 0.498270 0.876480 0.498460 1.009155
C5    C     C_R   0.184277 0.066885 0.287601 -0.284970
C6    C     C_R   0.886141 0.917889 0.676743 -0.284959
C7    C     C_R   0.264676 0.071406 0.330095 0.133375
C8    C     C_R   0.805206 0.910710 0.635107 0.162784
C9    C     C_R   0.824997 0.921163 0.294657 -0.105263
C10   C     C_R   0.101414 0.071088 0.666549 -0.202159
C11   C     C_R   0.742309 0.920842 0.335510 0.148224
C12   C     C_R   0.183228 0.076723 0.625607 0.174785
C13   C     C_R   0.082526 0.114643 0.170535 -0.318590
C14   C     C_R   0.918314 0.820260 0.792810 -0.248201
C15   C     C_R   0.087228 0.194416 0.129162 0.194573
C16   C     C_R   0.918137 0.730687 0.829768 0.211935
C17   C     C_R   0.894879 0.898956 0.163606 0.016991
C18   C     C_R   0.099173 0.165878 0.803116 0.176855
C19   C     C_R   0.896519 0.829505 0.115173 0.378272
C20   C     C_R   0.111305 0.227812 0.853045 0.339950
C21   C     C_R   0.091935 0.856217 0.181011 0.130093
C22   C     C_R   0.919942 0.097874 0.839264 0.125055
C23   C     C_R   0.093037 0.805555 0.127873 0.353999
C24   C     C_R   0.930111 0.165933 0.887125 0.262076
C25   C     C_R   0.903655 0.181224 0.203475 0.227197
C26   C     C_R   0.090351 0.886344 0.835672 0.191384
C27   C     C_R   0.911872 0.264170 0.162641 -0.278919
C28   C     C_R   0.087041 0.799267 0.873287 -0.199945
H1    H     H_    0.846847 0.324703 0.159245 0.183923
H2    H     H_    0.152148 0.789535 0.904808 0.213326
C29   C     C_R   0.103891 0.906660 0.332940 0.383531
C30   C     C_R   0.823063 0.099515 0.704774 0.350741
C31   C     C_R   0.167371 0.930402 0.382142 0.314915
C32   C     C_R   0.727702 0.081819 0.670519 0.339473
C33   C     C_R   0.906191 0.083081 0.337373 0.167531
C34   C     C_R   0.173111 0.900461 0.702681 0.143731
C35   C     C_R   0.823362 0.082897 0.378797 0.128874
C36   C     C_R   0.260044 0.907259 0.663681 0.128781
C37   C     C_3   0.996935 0.999870 0.247489 0.059847
C38   C     C_3   0.002188 0.999772 0.753185 0.051784
C39   C     C_R   0.100541 0.986412 0.287325 -0.071589
C40   C     C_R   0.897440 0.007755 0.713747 -0.118007
C41   C     C_R   0.255345 0.004139 0.377968 -0.279384
C42   C     C_R   0.727329 0.994904 0.630750 -0.313478
C43   C     C_R   0.904142 0.003775 0.292197 0.048655
C44   C     C_R   0.098901 0.990812 0.709414 -0.009900
C45   C     C_R   0.740241 0.002723 0.377313 -0.129056
C46   C     C_R   0.264777 0.995441 0.624865 -0.112379
C47   C     C_R   0.994847 0.105400 0.210014 0.056242
C48   C     C_R   0.004537 0.898403 0.793379 0.066471
C49   C     C_R   0.000854 0.269722 0.125194 -0.052114
C50   C     C_R   0.001355 0.724708 0.871981 -0.121992
C51   C     C_R   0.991514 0.908492 0.200378 -0.001268
C52   C     C_R   0.005382 0.095456 0.796499 0.031412
C53   C     C_R   0.992776 0.769491 0.104466 -0.355653
C54   C     C_R   0.018464 0.240123 0.889497 -0.362271
H3    H     H_    0.187033 0.132488 0.257458 0.188598
H4    H     H_    0.943684 0.851141 0.680639 0.210610
H5    H     H_    0.828489 0.852754 0.266132 0.201422
H6    H     H_    0.038952 0.132249 0.665485 0.231710
H7    H     H_    0.149741 0.057356 0.170863 0.177556
H8    H     H_    0.846122 0.832142 0.766730 0.182247
O9    O     O_R   0.087590 0.627480 0.058790 -0.563108
O10   O     O_R   0.912410 0.372520 0.941210 -0.607830
O11   O     O_R   0.905660 0.383870 0.059980 -0.592538
O12   O     O_R   0.094340 0.616130 0.940020 -0.601093
O13   O     O_R   0.092570 0.390420 0.063230 -0.612998
O14   O     O_R   0.907430 0.609580 0.936770 -0.598373
O15   O     O_R   0.900680 0.620930 0.055550 -0.568983
O16   O     O_R   0.099320 0.379070 0.944450 -0.539478
C55   C     C_R   0.992549 0.669380 0.070153 0.967556
C56   C     C_R   0.009422 0.334486 0.927140 0.953734
C57   C     C_R   0.999723 0.352722 0.081150 0.894123
C58   C     C_R   0.000706 0.644027 0.917313 0.875619
Zn3   Zn    Zn3+2 0.125690 0.504390 0.002180 1.150327
Zn4   Zn    Zn3+2 0.874310 0.495610 0.997820 1.096705
N1    N     N_2   0.351740 0.148422 0.325780 -0.292608
H9    H     H_    0.389489 0.147529 0.286281 0.217831
C59   C     C_3   0.320811 0.257410 0.342679 -0.708244
H10   H     H_    0.395476 0.309610 0.343353 0.229044
H11   H     H_    0.284259 0.257289 0.386219 0.258850
H12   H     H_    0.259889 0.292341 0.311760 0.224757
N2    N     N_2   0.796876 0.815920 0.599886 -0.270155
H13   H     H_    0.729703 0.767873 0.609342 0.245832
C60   C     C_3   0.895469 0.753959 0.586687 -0.770522
H14   H     H_    0.879947 0.704515 0.547774 0.251155
H15   H     H_    0.915472 0.697616 0.622521 0.223855
H16   H     H_    0.966393 0.808767 0.578333 0.270787
N3    N     N_2   0.802056 0.968804 0.171563 -0.275973
H17   H     H_    0.799888 0.031242 0.142295 0.288141
C61   C     C_3   0.694502 0.920263 0.182063 -0.650433
H18   H     H_    0.656493 0.959973 0.219628 0.206638
H19   H     H_    0.701009 0.831397 0.190019 0.243721
H20   H     H_    0.636831 0.934964 0.145717 0.280232
N4    N     N_2   0.182689 0.173164 0.760431 -0.281620
H21   H     H_    0.246746 0.117731 0.762581 0.265296
C62   C     C_3   0.207573 0.278578 0.735360 -0.494275
H22   H     H_    0.188048 0.277686 0.689036 0.207321
H23   H     H_    0.296939 0.297019 0.740075 0.243860
H24   H     H_    0.158692 0.345062 0.755182 0.254442
N5    N     N_2   0.193614 0.858456 0.212786 -0.294125
H25   H     H_    0.247426 0.920735 0.204119 0.254834
C63   C     C_3   0.247494 0.756151 0.226653 -0.548889
H26   H     H_    0.270707 0.755861 0.272687 0.240377
H27   H     H_    0.324783 0.747342 0.201693 0.243740
H28   H     H_    0.192841 0.685625 0.217930 0.254499
N6    N     N_2   0.831932 0.020335 0.837167 -0.328837
H29   H     H_    0.842706 0.955485 0.864551 0.272918
C64   C     C_3   0.717757 0.055981 0.832671 -0.516516
H30   H     H_    0.681302 0.024730 0.792272 0.221315
H31   H     H_    0.709738 0.145085 0.834039 0.292944
H32   H     H_    0.668838 0.022284 0.868614 0.252899
N7    N     N_2   0.804302 0.175701 0.236528 -0.303457
H33   H     H_    0.809926 0.219121 0.273894 0.234507
C65   C     C_3   0.699126 0.200745 0.208804 -0.781868
H34   H     H_    0.631634 0.159888 0.232431 0.238583
H35   H     H_    0.696750 0.173361 0.163624 0.272323
H36   H     H_    0.683028 0.289681 0.209871 0.231842
N8    N     N_2   0.182523 0.958583 0.838512 -0.343616
H37   H     H_    0.244382 0.941006 0.809890 0.224764
C66   C     C_3   0.225112 0.987158 0.894753 -0.700734
H38   H     H_    0.283377 0.055417 0.890762 0.301731
H39   H     H_    0.273267 0.919041 0.913855 0.247906
H40   H     H_    0.156449 0.011790 0.923428 0.255532
S1    S     S_3+6 0.041486 0.773990 0.330731 0.012087
O17   O     O_2   0.943387 0.768892 0.369486 -0.294798
O18   O     O_2   0.005296 0.737306 0.272474 -0.369281
O19   O     O_3   0.136001 0.683897 0.354895 -0.532394
H41   H     H_    0.096213 0.613854 0.357062 0.381093
S2    S     S_3+6 0.851419 0.241039 0.720526 0.013535
O20   O     O_2   0.806986 0.273408 0.777847 -0.311058
O21   O     O_2   0.971134 0.269792 0.719282 -0.384244
O22   O     O_3   0.790596 0.320136 0.670556 -0.489986
H42   H     H_    0.796504 0.395140 0.685542 0.379545
N9    N     N_2   0.999354 0.152846 0.346093 -0.291609
H43   H     H_    0.039285 0.137558 0.384490 0.256287
C67   C     C_3   0.986695 0.268345 0.335504 -0.780265
H44   H     H_    0.994477 0.285967 0.289273 0.242744
H45   H     H_    0.054373 0.313048 0.357504 0.239671
H46   H     H_    0.906711 0.299991 0.351586 0.243964
N10   N     N_2   0.159154 0.799278 0.731597 -0.298104
H47   H     H_    0.225390 0.777808 0.757456 0.247352
C68   C     C_3   0.120231 0.709264 0.696973 -0.753766
H48   H     H_    0.043076 0.676624 0.715681 0.244430
H49   H     H_    0.183235 0.643208 0.696484 0.246503
H50   H     H_    0.103621 0.734147 0.651944 0.242317
N11   N     N_2   0.657999 0.840342 0.332757 -0.310735
H51   H     H_    0.618568 0.836850 0.293524 0.207246
C69   C     C_3   0.691101 0.733651 0.352711 -0.615688
H52   H     H_    0.617382 0.680292 0.354414 0.207643
H53   H     H_    0.727471 0.738422 0.396486 0.273275
H54   H     H_    0.752037 0.696954 0.322952 0.247510
N12   N     N_2   0.185167 0.165186 0.585713 -0.271852
H55   H     H_    0.245718 0.221942 0.593865 0.247486
C70   C     C_3   0.081389 0.212245 0.566606 -0.738723
H56   H     H_    0.091709 0.246864 0.523044 0.246733
H57   H     H_    0.055587 0.278118 0.596172 0.250465
H58   H     H_    0.016239 0.149285 0.565034 0.254545
N13   N     N_2   0.178761 0.195530 0.091038 -0.292448
H59   H     H_    0.252978 0.177022 0.111042 0.235855
C71   C     C_3   0.162333 0.131677 0.039736 -0.554427
H60   H     H_    0.103693 0.173627 0.010454 0.250458
H61   H     H_    0.130298 0.049609 0.050362 0.261011
H62   H     H_    0.242245 0.121715 0.017147 0.251258
N14   N     N_2   0.836666 0.646370 0.825132 -0.271970
H63   H     H_    0.866312 0.569478 0.834189 0.239696
C72   C     C_3   0.757139 0.647417 0.778337 -0.754345
H64   H     H_    0.703989 0.574236 0.781027 0.259611
H65   H     H_    0.800491 0.646259 0.736504 0.226480
H66   H     H_    0.702182 0.719701 0.781404 0.242670
S3    S     S_3+6 0.789550 0.832896 0.061444 0.059964
O23   O     O_2   0.737135 0.943306 0.056279 -0.254956
O24   O     O_2   0.836385 0.804391 0.003879 -0.259652
O25   O     O_3   0.691960 0.741890 0.078787 -0.556790
H67   H     H_    0.636029 0.747143 0.047650 0.387381
S4    S     S_3+6 0.246767 0.280335 0.871253 0.000750
O26   O     O_2   0.249262 0.400086 0.858518 -0.299030
O27   O     O_2   0.270666 0.262305 0.933847 -0.295123
O28   O     O_3   0.350190 0.219696 0.835354 -0.597189
H68   H     H_    0.418424 0.256738 0.848429 0.396142
S5    S     S_3+6 0.215701 0.811324 0.085399 0.005875
O29   O     O_2   0.284780 0.711009 0.095101 -0.284948
O30   O     O_2   0.184102 0.818587 0.023069 -0.318763
O31   O     O_3   0.291579 0.921063 0.102182 -0.619289
H69   H     H_    0.353531 0.920656 0.074636 0.392283
S6    S     S_3+6 0.840977 0.147524 0.947907 0.063943
O32   O     O_2   0.812234 0.030096 0.955454 -0.210581
O33   O     O_2   0.896785 0.183684 0.002131 -0.299451
O34   O     O_3   0.722621 0.218724 0.939452 -0.495469
H70   H     H_    0.737682 0.273401 0.909397 0.354386
S7    S     S_3+6 0.121461 0.888273 0.451260 0.042890
O35   O     O_2   0.159120 0.773874 0.463231 -0.249386
O36   O     O_2   0.166426 0.961544 0.497022 -0.346262
O37   O     O_3   0.982733 0.896348 0.454264 -0.552134
H71   H     H_    0.959380 0.832412 0.476730 0.391629
S8    S     S_3+6 0.603217 0.159626 0.681498 0.050374
O38   O     O_2   0.592800 0.248102 0.637279 -0.236132
O39   O     O_2   0.504816 0.086360 0.676127 -0.387701
O40   O     O_3   0.599943 0.216522 0.746763 -0.520080
H72   H     H_    0.529346 0.257669 0.747734 0.382329
N15   N     N_2   0.826682 0.164317 0.422063 -0.316447
H73   H     H_    0.761374 0.218390 0.422226 0.246049
C73   C     C_3   0.866436 0.129865 0.477680 -0.654021
H74   H     H_    0.862659 0.199524 0.507718 0.228861
H75   H     H_    0.953396 0.101798 0.474334 0.276356
H76   H     H_    0.815460 0.063022 0.495087 0.242451
N16   N     N_2   0.338324 0.820132 0.662993 -0.305256
H77   H     H_    0.339260 0.771098 0.627304 0.263659
C74   C     C_3   0.443829 0.839360 0.690605 -0.727830
H78   H     H_    0.480914 0.760457 0.703786 0.228540
H79   H     H_    0.433602 0.890265 0.729520 0.256436
H80   H     H_    0.500961 0.879360 0.660355 0.257292

loop_
_geom_bond_atom_site_label_1
_geom_bond_atom_site_label_2
_geom_bond_distance
_ccdc_geom_bond_type
C64   H32   1.110742 S    
S1    O19   1.681755 S    
C71   H60   1.106222 S    
N2    H13   1.031543 S    
C37   C51   1.576018 S    
C35   N15   1.424858 S    
C17   C19   1.419058 A    
C38   C52   1.554372 S    
S7    O35   1.503034 D    
C60   H14   1.109754 S    
S2    O22   1.680662 S    
C22   N6    1.432997 S    
C10   C44   1.405528 A    
C66   H40   1.111343 S    
C24   C54   1.409072 A    
N9    H43   1.031237 S    
S7    O36   1.499908 D    
C60   H16   1.111370 S    
C23   C53   1.399758 A    
N7    H33   1.025900 S    
N14   C72   1.449369 S    
S3    O23   1.501106 D    
C13   C47   1.414196 A    
N4    C62   1.456135 S    
C17   N3    1.423562 S    
C70   H56   1.109871 S    
C19   S3    1.794442 S    
C33   N9    1.432705 S    
C20   S4    1.810622 S    
C9    C11   1.386361 A    
S2    O21   1.491276 D    
O5    C3    1.290764 A    
N6    C64   1.448684 S    
O6    C4    1.287530 A    
C59   H11   1.111198 S    
S8    O39   1.500422 D    
N7    C65   1.453255 S    
O6    Zn2   2.050218 S    
O13   C57   1.288460 A    
C15   N13   1.424881 S    
O22   H42   0.990794 S    
O25   H67   0.990525 S    
C25   C47   1.447729 A    
N13   H59   1.032196 S    
O4    Zn1   2.053157 S    
C2    C41   1.453703 S    
C61   H20   1.107874 S    
C31   C41   1.404929 A    
N11   H51   1.030178 S    
C68   H48   1.109169 S    
C67   H44   1.105089 S    
C37   C39   1.561757 S    
C31   S7    1.786764 S    
C65   H36   1.111510 S    
C38   C40   1.562002 S    
C62   H22   1.105119 S    
C21   C23   1.389618 A    
C6    H4    1.077171 S    
C5    C39   1.419375 A    
O4    C4    1.295233 A    
O5    Zn1   2.050218 S    
C32   C42   1.418025 A    
C14   C48   1.421406 A    
C61   H19   1.111651 S    
C63   H28   1.111543 S    
C4    C46   1.451521 S    
O14   Zn4   2.040935 S    
C64   H31   1.101334 S    
O31   H69   0.990472 S    
O13   Zn3   2.040936 S    
O34   H70   0.989722 S    
N2    C60   1.447024 S    
S1    O18   1.496590 D    
N10   C68   1.450963 S    
C29   C31   1.408188 A    
C10   H6    1.063694 S    
C70   H57   1.111002 S    
C30   C32   1.415492 A    
O10   C56   1.304742 A    
S6    O34   1.683920 S    
O9    C55   1.286365 A    
N9    C67   1.449940 S    
C36   N16   1.426935 S    
C33   C35   1.396861 A    
C71   H62   1.110045 S    
C34   C36   1.397866 A    
O12   C58   1.290506 A    
C30   S2    1.815122 S    
S5    O29   1.503149 D    
C61   H18   1.106561 S    
C13   H7    1.073087 S    
S1    O17   1.497968 D    
C67   H46   1.108702 S    
O1    C1    1.291979 A    
S2    O20   1.499433 D    
C22   C52   1.441706 A    
O16   C56   1.282304 A    
C49   C57   1.447999 S    
S3    O24   1.503487 D    
C74   H78   1.109794 S    
O15   C55   1.305956 A    
S8    O38   1.503278 D    
C66   H39   1.109301 S    
N16   H77   1.029897 S    
C73   H74   1.109835 S    
C3    C45   1.455097 S    
O7    Zn2   2.059227 S    
C59   H12   1.111491 S    
C22   C24   1.402859 A    
S5    O30   1.503782 D    
N15   H73   1.030022 S    
C11   C45   1.404679 A    
O16   Zn3   2.074718 S    
C21   C51   1.446675 A    
C74   H79   1.111968 S    
C71   H61   1.111888 S    
O11   Zn4   2.029750 S    
C53   C55   1.471256 S    
C69   H52   1.110168 S    
C18   N4    1.426453 S    
N10   H47   1.031882 S    
C72   H66   1.110583 S    
C5    H3    1.070877 S    
C32   S8    1.799682 S    
O40   H72   0.990464 S    
C69   H54   1.111126 S    
N5    C63   1.449951 S    
C15   C49   1.395104 A    
O10   Zn4   2.065244 S    
C68   H50   1.110777 S    
C36   C46   1.414273 A    
O9    Zn3   2.065243 S    
C20   C54   1.420793 A    
O3    Zn2   2.053158 S    
C17   C51   1.449302 A    
S4    O26   1.503845 D    
C19   C53   1.399311 A    
C18   C52   1.437696 A    
C6    C8    1.376780 A    
N3    C61   1.455189 S    
C10   C12   1.382039 A    
C70   H58   1.107825 S    
N1    C59   1.447505 S    
C65   H34   1.109827 S    
S7    O37   1.680689 S    
N15   C73   1.443079 S    
C9    H5    1.075542 S    
C68   H49   1.111451 S    
S4    O27   1.503055 D    
C66   H38   1.103065 S    
O2    C2    1.289917 A    
C7    C41   1.395080 A    
C29   S1    1.802870 S    
C26   C28   1.385232 A    
C14   H8    1.069244 S    
C63   H26   1.108500 S    
N13   C71   1.446772 S    
S3    O25   1.681501 S    
C24   S6    1.802312 S    
O7    C1    1.294669 A    
C50   C58   1.449921 S    
N5    H25   1.028410 S    
C67   H45   1.111023 S    
C7    N1    1.423525 S    
C11   N11   1.425788 S    
S6    O33   1.499058 D    
O8    C2    1.292979 A    
C6    C40   1.411500 A    
C14   C16   1.398734 A    
S6    O32   1.498761 D    
C26   C48   1.433258 A    
C12   C46   1.401279 A    
C27   C49   1.392596 A    
C64   H30   1.108225 S    
C60   H15   1.110057 S    
C5    C7    1.384535 A    
C73   H76   1.108542 S    
C9    C43   1.400700 A    
N16   C74   1.444855 S    
N4    H21   1.030342 S    
C37   C47   1.564764 S    
N3    H17   1.027482 S    
C23   S5    1.790971 S    
C38   C48   1.559816 S    
S4    O28   1.682466 S    
C25   N7    1.433725 S    
C69   H53   1.111034 S    
N8    H37   1.028813 S    
C73   H75   1.107896 S    
C25   C27   1.399852 A    
C27   H1    1.082700 S    
N14   H63   1.031494 S    
C37   C43   1.538128 S    
C26   N8    1.429734 S    
C74   H80   1.107597 S    
C28   H2    1.079169 S    
C12   N12   1.431875 S    
S8    O40   1.678710 S    
O11   C57   1.292134 A    
C62   H23   1.109150 S    
C16   N14   1.437623 S    
C18   C20   1.401180 A    
C62   H24   1.110837 S    
C72   H65   1.111667 S    
C34   N10   1.426913 S    
C13   C15   1.377664 A    
C16   C50   1.404088 A    
O28   H68   0.990545 S    
O2    Zn2   2.042155 S    
C38   C44   1.561696 S    
S5    O31   1.681575 S    
N12   H55   1.031016 S    
O3    C3    1.293301 A    
O19   H41   0.990640 S    
C8    C42   1.399662 A    
O8    Zn1   2.059226 S    
O14   C58   1.291428 A    
N8    C66   1.451009 S    
O1    Zn1   2.042157 S    
O37   H71   0.988365 S    
C33   C43   1.438727 A    
N1    H9    1.031797 S    
N11   C69   1.446357 S    
C72   H64   1.110826 S    
C34   C44   1.435055 A    
C35   C45   1.411785 A    
C65   H35   1.108037 S    
C8    N2    1.432360 S    
C21   N5    1.430701 S    
N12   C70   1.445875 S    
C1    C42   1.460455 S    
C63   H27   1.109436 S    
C59   H10   1.110150 S    
N6    H29   1.028899 S    
O12   Zn3   2.029751 S    
C29   C39   1.447106 A    
O15   Zn4   2.074718 S    
C54   C56   1.462213 S    
C30   C40   1.454054 A    
C28   C50   1.387084 A    
