data_mof_unit_21939.cif
_audit_creation_date              2012-12-10T16:57:05-0500
_audit_creation_method            fapswitch 2.2
_symmetry_space_group_name_H-M    P1
_symmetry_Int_Tables_number       1
_space_group_crystal_system       triclinic
_cell_length_a                    7.75916
_cell_length_b                    8.564572
_cell_length_c                    16.947402
_cell_angle_alpha                 92.21034
_cell_angle_beta                  80.880377
_cell_angle_gamma                 93.727805
_cell_volume                      1109.17540121

loop_
_atom_site_label
_atom_site_type_symbol
_atom_type_description
_atom_site_fract_x
_atom_site_fract_y
_atom_site_fract_z
_atom_type_partial_charge
C1    C     C_R   0.546189 0.794818 0.497934 0.944739
C2    C     C_R   0.453811 0.205182 0.502066 0.944990
C3    C     C_2   0.570638 0.958236 0.496673 -0.335246
C4    C     C_2   0.429362 0.041764 0.503329 -0.335295
C5    C     C_R   0.479596 0.511286 0.653749 0.880808
C6    C     C_R   0.520439 0.488887 0.346245 0.880839
C7    C     C_R   0.478457 0.538682 0.739321 -0.134780
C8    C     C_R   0.521831 0.462491 0.260610 -0.134687
C9    C     C_R   0.626505 0.496028 0.769383 -0.140845
C10   C     C_R   0.374293 0.506318 0.230530 -0.141770
C11   C     C_R   0.640038 0.521814 0.848523 -0.112568
C12   C     C_R   0.361214 0.481801 0.151270 -0.112661
C13   C     C_R   0.502962 0.584916 0.900064 0.036515
C14   C     C_R   0.498201 0.418683 0.099676 0.036231
C15   C     C_R   0.355382 0.634800 0.872063 0.167119
C16   C     C_R   0.645296 0.367736 0.127674 0.167627
C17   C     C_R   0.343702 0.615056 0.790219 0.108872
C18   C     C_R   0.656536 0.386297 0.209601 0.108636
C19   C     C_2   0.505135 0.573064 0.984462 0.457970
C20   C     C_2   0.496089 0.430707 0.015287 0.457667
H1    H     H_    0.732757 0.440235 0.731845 0.199573
H2    H     H_    0.268126 0.562058 0.268156 0.199261
H3    H     H_    0.248102 0.520661 0.128967 0.183656
H4    H     H_    0.753482 0.483691 0.870833 0.183608
H5    H     H_    0.704057 0.009261 0.490248 0.211411
H6    H     H_    0.295942 0.990739 0.509753 0.211417
N1    N     N_2   0.953500 0.457650 0.478520 0.256508
N2    N     N_2   0.046500 0.542350 0.521480 0.256497
O1    O     O_R   0.388470 0.738640 0.505270 -0.607047
O2    O     O_R   0.611530 0.261360 0.494730 -0.606994
O3    O     O_R   0.679650 0.711510 0.491500 -0.578675
O4    O     O_R   0.320350 0.288490 0.508500 -0.578624
O5    O     O_R   0.337210 0.515200 0.623500 -0.592857
O6    O     O_R   0.662790 0.484800 0.376500 -0.592956
O7    O     O_R   0.628380 0.488060 0.609730 -0.597213
O8    O     O_R   0.371620 0.511940 0.390270 -0.597080
Zn1   Zn    Zn3+2 0.305580 0.518120 0.509190 1.131677
Zn2   Zn    Zn3+2 0.694420 0.481880 0.490810 1.131654
I1    I     I_    0.871685 0.290441 0.252778 -0.177198
I2    I     I_    0.127750 0.709418 0.747012 -0.178293
F1    F     F_    0.484400 0.297727 0.969159 -0.621618
F2    F     F_    0.516785 0.706070 0.030569 -0.621521
I3    I     I_    0.148074 0.728419 0.955757 -0.125558
I4    I     I_    0.852582 0.274267 0.043910 -0.124831
F3    F     F_    0.039575 0.349347 0.432137 -0.554428
F4    F     F_    0.960428 0.650679 0.567844 -0.554529

loop_
_geom_bond_atom_site_label_1
_geom_bond_atom_site_label_2
_ccdc_geom_bond_type
C2    C4    S    
C18   I1    S    
C19   F2    S    
C15   C17   A    
C8    C18   A    
C9    C11   A    
C16   I4    S    
C4    H6    S    
C19   C20   D    
O3    Zn2   S    
C1    O3    A    
C2    O2    A    
N2    F4    S    
N1    F3    S    
C1    O1    A    
C20   F1    S    
C15   I3    S    
O4    Zn1   S    
C10   H2    S    
C11   C13   A    
C12   H3    S    
C9    H1    S    
C10   C12   A    
N2    Zn1   S    
C5    O7    A    
C16   C18   A    
O8    Zn1   S    
C6    O8    A    
C5    C7    S    
C13   C15   A    
C14   C16   A    
C13   C19   S    
N1    Zn2   S    
C3    C4    D    
C14   C20   S    
C11   H4    S    
C3    H5    S    
O7    Zn2   S    
O2    Zn2   S    
C2    O4    A    
O1    Zn1   S    
N1    N2    D    
C7    C9    A    
C6    C8    S    
C1    C3    S    
O6    Zn2   S    
C8    C10   A    
O5    Zn1   S    
C6    O6    A    
C12   C14   A    
C7    C17   A    
C17   I2    S    
C5    O5    A    
