data_mof_unit_63085.cif
_audit_creation_date              2012-12-10T19:04:24-0500
_audit_creation_method            fapswitch 2.2
_symmetry_space_group_name_H-M    P1
_symmetry_Int_Tables_number       1
_space_group_crystal_system       triclinic
_cell_length_a                    10.742008
_cell_length_b                    13.032573
_cell_length_c                    13.6414
_cell_angle_alpha                 85.667414
_cell_angle_beta                  90.062031
_cell_angle_gamma                 92.964202
_cell_volume                      1901.7285641

loop_
_atom_site_label
_atom_site_type_symbol
_atom_type_description
_atom_site_fract_x
_atom_site_fract_y
_atom_site_fract_z
_atom_type_partial_charge
C1    C     C_R   0.498624 0.481118 0.685078 0.893126
C2    C     C_1   0.497230 0.465903 0.787962 -0.029910
C3    C     C_2   0.459751 0.032467 0.478150 0.250229
C4    C     C_R   0.742454 0.498965 0.503427 1.099306
C5    C     C_2   0.541557 0.968040 0.523018 0.278558
C6    C     C_1   0.528108 0.854920 0.518187 0.208691
C7    C     C_1   0.472277 0.145020 0.482256 0.327472
C8    C     C_R   0.501549 0.518873 0.314920 0.945926
C9    C     C_R   0.257747 0.499616 0.505749 1.022102
C10   C     C_3   0.920612 0.408765 0.585576 0.646647
C11   C     C_3   0.068336 0.417827 0.595417 0.502360
C12   C     C_3   0.121589 0.499206 0.508694 -0.530548
C13   C     C_3   0.927437 0.483030 0.398463 0.466829
C14   C     C_3   0.933404 0.605800 0.536454 0.073237
C15   C     C_3   0.878567 0.497050 0.506764 -0.469607
C16   C     C_3   0.071749 0.467045 0.404453 0.617570
C17   C     C_3   0.077444 0.611409 0.530057 0.593411
C18   C     C_1   0.502568 0.534049 0.212012 -0.036557
C19   C     C_2   0.502995 0.544729 0.021042 0.334385
C20   C     C_2   0.496017 0.454816 0.979556 0.367243
C21   C     C_1   0.496336 0.456889 0.875221 -0.000681
C22   C     C_1   0.503064 0.542998 0.124751 0.122419
Cl1   Cl    Cl    0.865490 0.281929 0.552911 -0.369664
Cl2   Cl    Cl    0.123376 0.711723 0.436352 -0.359986
Cl3   Cl    Cl    0.153259 0.538150 0.302563 -0.421616
Cl4   Cl    Cl    0.512348 0.665729 0.952969 -0.458931
Cl5   Cl    Cl    0.331629 0.983336 0.412189 -0.418802
Cl6   Cl    Cl    0.133783 0.290921 0.599833 -0.427145
Cl7   Cl    Cl    0.844935 0.379719 0.337637 -0.467051
Cl8   Cl    Cl    0.869947 0.650104 0.647896 -0.443539
Cl9   Cl    Cl    0.149093 0.661314 0.638477 -0.372134
H1    H     H_    0.899131 0.665822 0.482326 0.247788
H2    H     H_    0.909605 0.561013 0.269655 0.417124
H3    H     H_    0.484475 0.305405 0.992369 0.376173
H4    H     H_    0.690597 0.953448 0.601808 0.382025
H5    H     H_    0.898443 0.467314 0.715873 0.421316
H6    H     H_    0.193197 0.451306 0.694568 0.359915
H7    H     H_    0.040949 0.315281 0.423792 0.401566
N1    N     N_1   0.479840 0.234530 0.484780 -0.050415
N2    N     N_1   0.520150 0.765470 0.515220 -0.044560
O1    O     O_R   0.492620 0.402510 0.634760 -0.612130
O2    O     O_3   0.488859 0.362357 0.036803 -0.707431
O3    O     O_3   0.640284 0.010380 0.574082 -0.687030
O4    O     O_3   0.858403 0.414948 0.676235 -0.663290
O5    O     O_3   0.101369 0.453615 0.687214 -0.684580
O6    O     O_3   0.101317 0.364936 0.389968 -0.631323
O7    O     O_R   0.505570 0.572960 0.644530 -0.578812
O8    O     O_R   0.678730 0.414780 0.495130 -0.551542
O9    O     O_R   0.691680 0.585220 0.504900 -0.608403
O10   O     O_R   0.494430 0.427040 0.355470 -0.577411
O11   O     O_R   0.507380 0.597490 0.365240 -0.602223
O12   O     O_R   0.308320 0.414780 0.495100 -0.551689
O13   O     O_R   0.321270 0.585220 0.504870 -0.558644
O14   O     O_3   0.904880 0.574589 0.340137 -0.723104
Zn1   Zn    Zn3+2 0.491360 0.386190 0.493470 1.152590
Zn2   Zn    Zn3+2 0.508640 0.613810 0.506530 1.130753

loop_
_geom_bond_atom_site_label_1
_geom_bond_atom_site_label_2
_ccdc_geom_bond_type
C12   C17   S    
O8    Zn1   S    
C20   O2    S    
C11   C12   S    
C10   Cl1   S    
O9    Zn2   S    
H4    O3    S    
C19   C20   D    
H3    O2    S    
O12   Zn1   S    
C4    O9    A    
O10   Zn1   S    
N1    Zn1   S    
O13   Zn2   S    
C2    C21   T    
C3    Cl5   S    
C5    O3    S    
C14   C17   S    
C9    O12   A    
C11   Cl6   S    
C14   Cl8   S    
O1    Zn1   S    
C10   O4    S    
C1    O1    A    
C1    C2    S    
C3    C7    S    
C10   C15   S    
C13   C15   S    
C4    C15   S    
C5    C6    S    
C17   Cl9   S    
C9    C12   S    
C6    N2    T    
H7    O6    S    
C17   Cl2   S    
C11   O5    S    
C10   C11   S    
C16   O6    S    
C8    O10   A    
H2    O14   S    
C19   C22   S    
C9    O13   A    
C20   C21   S    
C13   O14   S    
C4    O8    A    
C13   C16   S    
C13   Cl7   S    
C16   Cl3   S    
C19   Cl4   S    
C7    N1    T    
C14   C15   S    
C1    O7    A    
C8    O11   A    
C3    C5    D    
C18   C22   T    
H6    O5    S    
H5    O4    S    
C8    C18   S    
C12   C16   S    
C14   H1    S    
O7    Zn2   S    
N2    Zn2   S    
O11   Zn2   S    
