data_mof_unit_16938.cif
_audit_creation_date              2012-12-10T17:48:45-0500
_audit_creation_method            fapswitch 2.2
_symmetry_space_group_name_H-M    P1
_symmetry_Int_Tables_number       1
_space_group_crystal_system       triclinic
_cell_length_a                    15.730474
_cell_length_b                    10.666079
_cell_length_c                    9.951825
_cell_angle_alpha                 90.425537
_cell_angle_beta                  88.669562
_cell_angle_gamma                 94.247707
_cell_volume                      1664.67915722

loop_
_atom_site_label
_atom_site_type_symbol
_atom_type_description
_atom_site_fract_x
_atom_site_fract_y
_atom_site_fract_z
_atom_type_partial_charge
C1    C     C_R   0.516748 0.265773 0.499260 0.915699
C2    C     C_R   0.594156 0.084972 0.856054 -0.143853
C3    C     C_R   0.557849 0.963396 0.870705 -0.193081
C4    C     C_R   0.338507 0.500973 0.501327 0.933839
C5    C     C_R   0.524959 0.897235 0.759775 -0.159477
C6    C     C_R   0.532361 0.948822 0.627975 0.080573
C7    C     C_R   0.557025 0.077931 0.619696 0.083269
C8    C     C_R   0.545112 0.139462 0.498654 -0.181568
C9    C     C_R   0.547761 0.073596 0.378210 0.036739
C10   C     C_R   0.528450 0.944433 0.379489 0.049269
C11   C     C_R   0.516251 0.880389 0.504447 -0.175803
C12   C     C_3   0.943470 0.437803 0.619800 -0.556551
C13   C     C_R   0.410627 0.295093 0.137298 0.186666
C14   C     C_R   0.393717 0.183167 0.066126 -0.462290
C15   C     C_R   0.394364 0.183809 0.927992 0.038254
C16   C     C_R   0.501984 0.742446 0.501296 0.882161
C17   C     C_R   0.409882 0.298952 0.862937 0.624270
C18   C     C_R   0.455644 0.401917 0.928306 -0.075409
C19   C     C_R   0.455426 0.401400 0.072788 -0.008972
C20   C     C_R   0.549348 0.586216 0.071225 0.593268
C21   C     C_R   0.546493 0.588201 0.927294 -0.270191
C22   C     C_R   0.661581 0.501743 0.498469 0.864639
C23   C     C_3   0.917582 0.509134 0.492194 0.059006
C24   C     C_3   0.041493 0.435192 0.626243 0.308139
C25   C     C_3   0.049790 0.436923 0.368974 0.387566
C26   C     C_3   0.950088 0.433583 0.367520 -0.165407
C27   C     C_1   0.750582 0.505130 0.494711 -0.184132
C28   C     C_3   0.082638 0.503568 0.500684 0.047158
C29   C     C_3   0.887959 0.763953 0.320251 -0.238401
C30   C     C_3   0.683101 0.690892 0.085916 -0.395087
C31   C     C_3   0.055264 0.260628 0.761403 -0.356017
C32   C     C_3   0.279033 0.343821 0.796161 -0.314000
C33   C     C_3   0.095587 0.422904 0.145132 -0.359449
C34   C     C_3   0.961224 0.649248 0.482163 0.968804
C35   C     C_3   0.916889 0.713145 0.706220 -0.401969
C36   C     C_3   0.058384 0.642313 0.505403 -0.509973
C37   C     C_1   0.826037 0.508126 0.492082 0.005797
C38   C     C_1   0.174235 0.502652 0.504027 0.017944
C39   C     C_1   0.249582 0.502236 0.503712 -0.205617
C40   C     C_R   0.592343 0.143192 0.731980 -0.129278
H1    H     H_    0.913076 0.340465 0.618716 0.231518
H2    H     H_    0.070918 0.339111 0.370596 0.112565
H3    H     H_    0.930450 0.479766 0.274317 0.219932
H4    H     H_    0.078297 0.686944 0.601900 0.142149
H5    H     H_    0.096218 0.698116 0.427477 0.238896
H6    H     H_    0.901685 0.861297 0.358533 0.202516
H7    H     H_    0.826645 0.722869 0.363517 0.164712
H8    H     H_    0.880925 0.769766 0.209909 0.148915
H9    H     H_    0.529832 0.116699 0.182294 0.194158
H10   H     H_    0.632369 0.105699 0.223628 0.167810
H11   H     H_    0.575281 0.896882 0.196686 0.210577
H12   H     H_    0.064238 0.489255 0.716863 0.085646
H13   H     H_    0.468570 0.915032 0.202138 0.162129
H14   H     H_    0.684568 0.758843 0.001744 0.161437
H15   H     H_    0.708816 0.600758 0.052999 0.165767
H16   H     H_    0.725941 0.732853 0.163595 0.189564
H17   H     H_    0.987249 0.253678 0.795055 0.168960
H18   H     H_    0.094218 0.317746 0.834564 0.136418
H19   H     H_    0.077508 0.164349 0.761258 0.201793
H20   H     H_    0.298207 0.315281 0.230908 0.159676
H21   H     H_    0.361216 0.222991 0.313355 0.183782
H22   H     H_    0.386822 0.997760 0.886160 0.191814
H23   H     H_    0.917940 0.475158 0.714927 0.145577
H24   H     H_    0.293242 0.063004 0.885986 0.177029
H25   H     H_    0.280003 0.441611 0.836002 0.160015
H26   H     H_    0.250028 0.277461 0.873044 0.128558
H27   H     H_    0.236542 0.335946 0.709090 0.223535
H28   H     H_    0.034138 0.371698 0.118207 0.146083
H29   H     H_    0.144276 0.355442 0.165479 0.152962
H30   H     H_    0.118585 0.479833 0.056929 0.193538
H31   H     H_    0.918960 0.268621 0.265449 0.166150
H32   H     H_    0.942005 0.245358 0.426017 0.216539
H33   H     H_    0.972682 0.671006 0.748196 0.149662
H34   H     H_    0.620025 0.238891 0.723564 0.143919
H35   H     H_    0.856472 0.654856 0.724837 0.183124
H36   H     H_    0.910442 0.802209 0.762477 0.206056
H37   H     H_    0.620400 0.135938 0.941878 0.129080
H38   H     H_    0.553363 0.920578 0.968791 0.137523
H39   H     H_    0.489976 0.810209 0.784745 0.174054
H40   H     H_    0.365669 0.100398 0.117682 0.172908
H41   H     H_    0.583294 0.660309 0.871069 0.158651
N1    N     N_R   0.499210 0.498800 0.142780 -0.130775
N2    N     N_R   0.499180 0.498720 0.857170 -0.118076
N3    N     N_3   0.574282 0.138198 0.256357 -0.431151
N4    N     N_3   0.518949 0.879882 0.253267 -0.379684
N5    N     N_3   0.361323 0.305993 0.257791 -0.350110
N6    N     N_3   0.357370 0.077094 0.856012 -0.408585
N7    N     N_3   0.910829 0.303960 0.362839 -0.474240
O1    O     O_R   0.500000 0.316780 0.614690 -0.589115
O2    O     O_3   0.600221 0.673108 0.143177 -0.580522
O3    O     O_3   0.065483 0.309434 0.629860 -0.602069
O4    O     O_3   0.361829 0.315266 0.752136 -0.548352
O5    O     O_3   0.085403 0.504374 0.255834 -0.569772
O6    O     O_3   0.926640 0.742522 0.568736 -0.623114
O7    O     O_R   0.499990 0.316750 0.385360 -0.588703
O8    O     O_R   0.377150 0.500020 0.614720 -0.559033
O9    O     O_R   0.377140 0.499990 0.385380 -0.599363
O10   O     O_R   0.500010 0.683250 0.614640 -0.651607
O11   O     O_R   0.500000 0.683220 0.385310 -0.539506
O12   O     O_R   0.622860 0.500010 0.614620 -0.636393
O13   O     O_R   0.622850 0.499980 0.385280 -0.582261
O14   O     O_3   0.956860 0.690246 0.345748 -0.624467
Zn1   Zn    Zn3+2 0.500010 0.500020 0.653130 0.964349
Zn2   Zn    Zn3+2 0.499990 0.499980 0.346870 1.020314

loop_
_geom_bond_atom_site_label_1
_geom_bond_atom_site_label_2
_ccdc_geom_bond_type
C24   H12   S    
C10   N4    S    
C25   O5    S    
C20   N1    A    
C1    C8    S    
C30   O2    S    
H11   N4    S    
H10   N3    S    
C7    C8    A    
C32   O4    S    
C25   C28   S    
C30   H14   S    
C12   C23   S    
C35   H35   S    
C34   O14   S    
C22   O13   A    
N2    Zn1   S    
C29   H7    S    
C31   H18   S    
C32   H26   S    
C5    C6    A    
O10   Zn1   S    
C18   C19   A    
C23   C26   S    
C31   H19   S    
C4    O8    A    
C21   N2    A    
C8    C9    A    
C13   N5    S    
C7    C40   A    
C14   H40   S    
C5    H39   S    
C19   N1    A    
C9    C10   A    
H24   N6    S    
C33   H29   S    
O11   Zn2   S    
C4    O9    A    
O1    Zn1   S    
C17   O4    S    
H32   N7    S    
C26   H3    S    
C17   C18   A    
C35   H36   S    
C22   O12   A    
C13   C19   A    
C29   H8    S    
C34   O6    S    
H21   N5    S    
C6    C11   A    
C12   H23   S    
H20   N5    S    
C25   C26   S    
C23   C37   S    
C20   O2    S    
O12   Zn1   S    
C12   H1    S    
C11   C16   S    
C4    C39   S    
C28   C38   S    
C1    O7    A    
C23   C34   S    
C18   N2    A    
C36   H5    S    
C33   H30   S    
C32   H27   S    
C21   H41   S    
O13   Zn2   S    
C31   O3    S    
C22   C27   S    
C36   H4    S    
C24   O3    S    
O7    Zn2   S    
H9    N3    S    
C15   N6    S    
C30   H15   S    
C35   O6    S    
C15   C17   A    
C35   H33   S    
C1    O1    A    
C24   C28   S    
C3    C5    A    
C33   O5    S    
C25   H2    S    
C16   O11   A    
C6    C7    A    
H22   N6    S    
C12   C24   S    
C29   H6    S    
C31   H17   S    
C2    C3    A    
C2    H37   S    
C16   O10   A    
C38   C39   T    
C30   H16   S    
C27   C37   T    
C40   H34   S    
C29   O14   S    
C34   C36   S    
O9    Zn2   S    
C10   C11   A    
C9    N3    S    
H31   N7    S    
C2    C40   A    
C20   C21   A    
C28   C36   S    
C26   N7    S    
O8    Zn1   S    
N1    Zn2   S    
C14   C15   A    
H13   N4    S    
C13   C14   A    
C3    H38   S    
C33   H28   S    
C32   H25   S    
