data_mof_unit_21544.cif
_audit_creation_date              2013-03-05T15:47:43-0500
_audit_creation_method            fapswitch 2.2
_symmetry_space_group_name_H-M    P1
_symmetry_Int_Tables_number       1
_space_group_crystal_system       triclinic
_cell_length_a                    21.867158
_cell_length_b                    21.882855
_cell_length_c                    30.334628
_cell_angle_alpha                 89.877511
_cell_angle_beta                  89.746886
_cell_angle_gamma                 90.15805
_cell_volume                      14515.3698162

loop_
_atom_site_label
_atom_site_type_symbol
_atom_site_description
_atom_site_fract_x
_atom_site_fract_y
_atom_site_fract_z
_atom_type_partial_charge
O1    O     O_R   0.448270 0.091550 0.500010 -0.591827
O2    O     O_R   0.091550 0.551730 0.500010 -0.596987
O3    O     O_R   0.551730 0.908450 0.500010 -0.591370
O4    O     O_R   0.908450 0.448270 0.500010 -0.607550
O5    O     O_R   0.448270 0.908450 0.499990 -0.615780
O6    O     O_R   0.091550 0.448270 0.499990 -0.611877
O7    O     O_R   0.551730 0.091550 0.499990 -0.615544
O8    O     O_R   0.908450 0.551730 0.499990 -0.599666
O9    O     O_R   0.948270 0.591550 0.000010 -0.614531
O10   O     O_R   0.591550 0.051730 0.000010 -0.594965
O11   O     O_R   0.051730 0.408450 0.000010 -0.606179
O12   O     O_R   0.408450 0.948270 0.000010 -0.604983
O13   O     O_R   0.948270 0.408450 0.999990 -0.610852
O14   O     O_R   0.591550 0.948270 0.999990 -0.627865
O15   O     O_R   0.051730 0.591550 0.999990 -0.618054
O16   O     O_R   0.408450 0.051730 0.999990 -0.622065
C1    C     C_R   0.499724 0.120444 0.500214 0.948840
C2    C     C_R   0.120344 0.500326 0.500101 0.944293
C3    C     C_R   0.500329 0.879553 0.499997 0.951956
C4    C     C_R   0.879656 0.500241 0.500228 0.951674
C5    C     C_R   0.000078 0.620141 0.999916 0.944136
C6    C     C_R   0.620064 0.000493 0.999327 0.956772
C7    C     C_R   0.999948 0.379818 0.999849 0.966853
C8    C     C_R   0.379964 0.999600 0.999687 0.959981
O17   O     O_R   0.448260 0.999910 0.566090 -0.544891
O18   O     O_R   0.999910 0.551740 0.566090 -0.541057
O19   O     O_R   0.551740 0.000090 0.566090 -0.544797
O20   O     O_R   0.000090 0.448260 0.566090 -0.550434
O21   O     O_R   0.448260 0.000090 0.433910 -0.551830
O22   O     O_R   0.999910 0.448260 0.433910 -0.549426
O23   O     O_R   0.551740 0.999910 0.433910 -0.550001
O24   O     O_R   0.000090 0.551740 0.433910 -0.541598
O25   O     O_R   0.948260 0.499910 0.066090 -0.558085
O26   O     O_R   0.499910 0.051740 0.066090 -0.564034
O27   O     O_R   0.051740 0.500090 0.066090 -0.562644
O28   O     O_R   0.500090 0.948260 0.066090 -0.564114
O29   O     O_R   0.948260 0.500090 0.933910 -0.563992
O30   O     O_R   0.499910 0.948260 0.933910 -0.565052
O31   O     O_R   0.051740 0.499910 0.933910 -0.557763
O32   O     O_R   0.500090 0.051740 0.933910 -0.554083
C9    C     C_R   0.499896 0.999714 0.587120 1.058456
C10   C     C_R   0.998249 0.499765 0.587179 1.033157
C11   C     C_R   0.500108 0.000250 0.412941 0.981519
C12   C     C_R   0.001735 0.499942 0.412843 1.035719
C13   C     C_R   0.999988 0.499381 0.086993 1.051071
C14   C     C_R   0.499870 0.999975 0.086997 1.019464
C15   C     C_R   0.000079 0.499153 0.912989 1.050716
C16   C     C_R   0.500742 0.000035 0.912938 1.071807
Zn1   Zn    Zn3+2 0.430920 0.000000 0.500000 1.193954
Zn2   Zn    Zn3+2 1.000000 0.569080 0.500000 1.210698
Zn3   Zn    Zn3+2 0.569080 0.000000 0.500000 1.194616
Zn4   Zn    Zn3+2 0.000000 0.430920 0.500000 1.196343
Zn5   Zn    Zn3+2 0.930920 0.500000 0.000000 1.186672
Zn6   Zn    Zn3+2 0.500000 0.069080 0.000000 1.184157
Zn7   Zn    Zn3+2 0.069080 0.500000 0.000000 1.185334
Zn8   Zn    Zn3+2 0.500000 0.930920 0.000000 1.156592
C17   C     C_R   0.514423 0.054307 0.840122 0.347242
C18   C     C_R   0.053731 0.486682 0.839644 0.351625
C19   C     C_R   0.493497 0.944356 0.840949 0.352696
C20   C     C_R   0.942807 0.501279 0.842240 0.347509
C21   C     C_R   0.495844 0.943852 0.158996 0.356170
C22   C     C_R   0.057192 0.504193 0.157870 0.345992
C23   C     C_R   0.502807 0.056307 0.158751 0.351632
C24   C     C_R   0.946812 0.486156 0.160264 0.346765
C25   C     C_R   0.037824 0.543453 0.339211 0.321398
C26   C     C_R   0.531134 0.954852 0.340160 0.329136
C27   C     C_R   0.976351 0.450385 0.340844 0.357413
C28   C     C_R   0.469043 0.046201 0.340370 0.325537
C29   C     C_R   0.022761 0.449468 0.659207 0.360659
C30   C     C_R   0.549466 0.025808 0.659307 0.350291
C31   C     C_R   0.961201 0.541790 0.661003 0.319894
C32   C     C_R   0.451492 0.972333 0.660472 0.346385
C33   C     C_R   0.502756 0.999757 0.864263 -0.278204
C34   C     C_R   0.999336 0.496043 0.864455 -0.262216
C35   C     C_R   0.499541 0.000029 0.135632 -0.216686
C36   C     C_R   0.000924 0.496910 0.135498 -0.267755
C37   C     C_R   0.004850 0.498757 0.364020 -0.326790
C38   C     C_R   0.500293 0.000577 0.364380 -0.343999
C39   C     C_R   0.994617 0.497962 0.636026 -0.331064
C40   C     C_R   0.500035 0.999386 0.635850 -0.307445
C41   C     C_R   0.478083 0.949119 0.796169 -0.126026
C42   C     C_R   0.944474 0.515014 0.797155 -0.092777
C43   C     C_R   0.530070 0.048012 0.795356 -0.129235
C44   C     C_R   0.047152 0.470574 0.794918 -0.139733
C45   C     C_R   0.497341 0.057023 0.204805 -0.120856
C46   C     C_R   0.953847 0.470061 0.204890 -0.131068
C47   C     C_R   0.500870 0.943245 0.205074 -0.124685
C48   C     C_R   0.054779 0.518047 0.202895 -0.091599
C49   C     C_R   0.962900 0.461298 0.296545 -0.109459
C50   C     C_R   0.487221 0.053743 0.296489 -0.131120
C51   C     C_R   0.050328 0.530016 0.294574 -0.122384
C52   C     C_R   0.512216 0.947074 0.296606 -0.132278
C53   C     C_R   0.948502 0.527338 0.705504 -0.122755
C54   C     C_R   0.463926 0.957945 0.704688 -0.120410
C55   C     C_R   0.036218 0.460329 0.703457 -0.113501
C56   C     C_R   0.538461 0.040153 0.703567 -0.115141
C57   C     C_R   0.503358 0.998644 0.772854 -0.120970
C58   C     C_R   0.994739 0.492712 0.773164 -0.117132
C59   C     C_R   0.499249 0.000198 0.227428 -0.080657
C60   C     C_R   0.005106 0.494176 0.226864 -0.115541
C61   C     C_R   0.006186 0.495115 0.272484 -0.119980
C62   C     C_R   0.499535 0.000338 0.273059 -0.114999
C63   C     C_R   0.993037 0.493331 0.727602 -0.125984
C64   C     C_R   0.501923 0.998876 0.727245 -0.121598
C65   C     C_R   0.440460 0.906559 0.774014 0.386989
C66   C     C_R   0.897120 0.547468 0.775867 0.387699
C67   C     C_R   0.567320 0.089966 0.771916 0.398559
C68   C     C_R   0.090942 0.436411 0.770807 0.403197
C69   C     C_R   0.492441 0.112976 0.229075 0.353720
C70   C     C_R   0.911277 0.434099 0.228628 0.390682
C71   C     C_R   0.505165 0.887396 0.229694 0.352912
C72   C     C_R   0.100728 0.552545 0.224000 0.390008
C73   C     C_R   0.912034 0.435482 0.275266 0.391979
C74   C     C_R   0.488623 0.110580 0.275473 0.462031
C75   C     C_R   0.101136 0.553634 0.270926 0.429826
C76   C     C_R   0.509965 0.890091 0.276001 0.464279
C77   C     C_R   0.897011 0.549015 0.728932 0.436569
C78   C     C_R   0.437497 0.908060 0.727298 0.398961
C79   C     C_R   0.088060 0.436337 0.724154 0.395042
C80   C     C_R   0.566169 0.089642 0.725227 0.393145
C81   C     C_R   0.593438 0.189987 0.548656 0.211111
C82   C     C_R   0.189196 0.407372 0.549266 0.226819
C83   C     C_R   0.407455 0.809783 0.549356 0.209765
C84   C     C_R   0.809442 0.601026 0.543504 0.220011
C85   C     C_R   0.603049 0.809150 0.458921 0.228413
C86   C     C_R   0.190989 0.601911 0.458174 0.227230
C87   C     C_R   0.396691 0.191297 0.460681 0.225541
C88   C     C_R   0.810182 0.405914 0.452982 0.218715
C89   C     C_R   0.091290 0.688575 0.049320 0.254024
C90   C     C_R   0.687401 0.933481 0.064527 0.244317
C91   C     C_R   0.910269 0.310947 0.051223 0.243466
C92   C     C_R   0.311629 0.066108 0.065049 0.240970
C93   C     C_R   0.090844 0.311501 0.949800 0.226745
C94   C     C_R   0.689432 0.089422 0.946700 0.228998
C95   C     C_R   0.909696 0.688580 0.949696 0.246999
C96   C     C_R   0.311613 0.913604 0.945385 0.257212
C97   C     C_R   0.649976 0.218694 0.555481 0.408711
C98   C     C_R   0.217297 0.350923 0.556788 0.414883
C99   C     C_R   0.350816 0.781356 0.556612 0.411225
C100  C     C_R   0.779119 0.656655 0.549289 0.411987
C101  C     C_R   0.658550 0.778481 0.453231 0.401044
C102  C     C_R   0.221318 0.658043 0.454241 0.393397
C103  C     C_R   0.340695 0.221640 0.456677 0.402825
C104  C     C_R   0.781964 0.348769 0.447929 0.398424
C105  C     C_R   0.150166 0.713815 0.052551 0.424527
C106  C     C_R   0.708450 0.875792 0.077384 0.435122
C107  C     C_R   0.852034 0.285100 0.057154 0.406905
C108  C     C_R   0.290170 0.123478 0.078280 0.439959
C109  C     C_R   0.149242 0.285940 0.945376 0.411970
C110  C     C_R   0.716204 0.146932 0.939952 0.412362
C111  C     C_R   0.850879 0.713660 0.945997 0.427292
C112  C     C_R   0.286546 0.855267 0.939072 0.417304
C113  C     C_R   0.655979 0.279556 0.545436 -0.413891
C114  C     C_R   0.278163 0.344599 0.546951 -0.417369
C115  C     C_R   0.344361 0.720780 0.546193 -0.412914
C116  C     C_R   0.717489 0.659198 0.541589 -0.415786
C117  C     C_R   0.659579 0.716329 0.458341 -0.410574
C118  C     C_R   0.283358 0.660000 0.461071 -0.423566
C119  C     C_R   0.339089 0.283481 0.463541 -0.406919
C120  C     C_R   0.721147 0.342923 0.458910 -0.424660
C121  C     C_R   0.156920 0.775626 0.042163 -0.470675
C122  C     C_R   0.765834 0.857425 0.062445 -0.467475
C123  C     C_R   0.843731 0.224481 0.045001 -0.450184
C124  C     C_R   0.232920 0.141902 0.063391 -0.459462
C125  C     C_R   0.157359 0.225551 0.957474 -0.405599
C126  C     C_R   0.777260 0.154513 0.950347 -0.428078
C127  C     C_R   0.843308 0.774602 0.958076 -0.441443
C128  C     C_R   0.225021 0.846996 0.949700 -0.477680
C129  C     C_R   0.603517 0.314083 0.538085 0.455229
C130  C     C_R   0.313196 0.396608 0.538206 0.452699
C131  C     C_R   0.396516 0.685935 0.538190 0.446688
C132  C     C_R   0.684647 0.605333 0.535791 0.453974
C133  C     C_R   0.604967 0.684296 0.463468 0.458621
C134  C     C_R   0.315689 0.605510 0.464958 0.464117
C135  C     C_R   0.393774 0.315678 0.467245 0.464739
C136  C     C_R   0.686341 0.395684 0.464672 0.456118
C137  C     C_R   0.104905 0.811879 0.036089 0.485095
C138  C     C_R   0.806763 0.901348 0.045096 0.478483
C139  C     C_R   0.895012 0.187794 0.036976 0.473906
C140  C     C_R   0.192363 0.098168 0.045797 0.476994
C141  C     C_R   0.105874 0.188456 0.964635 0.467248
C142  C     C_R   0.813360 0.103139 0.959193 0.467000
C143  C     C_R   0.894929 0.811435 0.964530 0.482879
C144  C     C_R   0.188134 0.897846 0.958733 0.481082
C145  C     C_R   0.549819 0.284190 0.520424 -0.092049
C146  C     C_R   0.283670 0.450221 0.520165 -0.092446
C147  C     C_R   0.450383 0.715760 0.520275 -0.089931
C148  C     C_R   0.715539 0.552124 0.518543 -0.092788
C149  C     C_R   0.552146 0.715216 0.481641 -0.095847
C150  C     C_R   0.284691 0.551946 0.481862 -0.090670
C151  C     C_R   0.447380 0.284772 0.483632 -0.096495
C152  C     C_R   0.716072 0.450106 0.481059 -0.087573
C153  C     C_R   0.050298 0.783188 0.019606 -0.079366
C154  C     C_R   0.781292 0.955000 0.024375 -0.082090
C155  C     C_R   0.949715 0.216564 0.020006 -0.083051
C156  C     C_R   0.218282 0.045015 0.024664 -0.078890
C157  C     C_R   0.050594 0.216873 0.980624 -0.088419
C158  C     C_R   0.783915 0.049759 0.977856 -0.081502
C159  C     C_R   0.949839 0.783009 0.980541 -0.083935
C160  C     C_R   0.216729 0.951267 0.977428 -0.081477
C161  C     C_R   0.546933 0.219826 0.523234 -0.148032
C162  C     C_R   0.219343 0.453285 0.523101 -0.148584
C163  C     C_R   0.453536 0.780046 0.523266 -0.147999
C164  C     C_R   0.780149 0.551085 0.520602 -0.151291
C165  C     C_R   0.552046 0.779785 0.480723 -0.146947
C166  C     C_R   0.220122 0.551187 0.480121 -0.144579
C167  C     C_R   0.447765 0.220321 0.482194 -0.145410
C168  C     C_R   0.780376 0.452947 0.478073 -0.142958
C169  C     C_R   0.046626 0.719068 0.023081 -0.144699
C170  C     C_R   0.717996 0.963767 0.029293 -0.157890
C171  C     C_R   0.953762 0.280660 0.023710 -0.139256
C172  C     C_R   0.281563 0.036259 0.029662 -0.156558
C173  C     C_R   0.046477 0.280945 0.976628 -0.131549
C174  C     C_R   0.719582 0.046224 0.974235 -0.128500
C175  C     C_R   0.953895 0.718987 0.976529 -0.140572
C176  C     C_R   0.280930 0.955373 0.973720 -0.137118
C177  C     C_R   0.499650 0.315484 0.500790 -0.132856
C178  C     C_R   0.315297 0.500359 0.500301 -0.129268
C179  C     C_R   0.500344 0.684495 0.500099 -0.126717
C180  C     C_R   0.684694 0.500759 0.499928 -0.128032
C181  C     C_R   0.000003 0.814790 0.000139 -0.147472
C182  C     C_R   0.814568 0.000660 0.000105 -0.143949
C183  C     C_R   1.000000 0.185078 0.000085 -0.144003
C184  C     C_R   0.185492 0.999760 0.999936 -0.145438
C185  C     C_R   0.498277 0.187752 0.501600 -0.049817
C186  C     C_R   0.187513 0.501541 0.500865 -0.049114
C187  C     C_R   0.501922 0.812222 0.501094 -0.051756
C188  C     C_R   0.812495 0.501435 0.499801 -0.048093
C189  C     C_R   0.000244 0.687046 0.999806 -0.031984
C190  C     C_R   0.686921 0.002764 0.000077 -0.018384
C191  C     C_R   0.999932 0.312811 0.999938 -0.025261
C192  C     C_R   0.313125 0.997762 0.000272 -0.017638
H1    H     H_    0.699383 0.301900 0.551520 0.186582
H2    H     H_    0.299803 0.301103 0.553505 0.187363
H3    H     H_    0.300662 0.698781 0.552046 0.187993
H4    H     H_    0.693685 0.701784 0.546921 0.182085
H5    H     H_    0.701709 0.692019 0.452027 0.183847
H6    H     H_    0.307668 0.702731 0.456268 0.184330
H7    H     H_    0.296636 0.307672 0.458463 0.181560
H8    H     H_    0.698925 0.299009 0.454660 0.186799
H9    H     H_    0.201036 0.797775 0.043908 0.179846
H10   H     H_    0.780576 0.811166 0.068828 0.175263
H11   H     H_    0.798906 0.203706 0.047552 0.179102
H12   H     H_    0.217854 0.187977 0.070025 0.176204
H13   H     H_    0.202441 0.205612 0.954827 0.179212
H14   H     H_    0.798241 0.198971 0.946031 0.181984
H15   H     H_    0.798832 0.795866 0.956610 0.175160
H16   H     H_    0.203810 0.802593 0.946550 0.180071
O33   O     O_R   0.408410 0.499950 0.462690 -0.618712
O34   O     O_R   0.499950 0.591590 0.462690 -0.612723
O35   O     O_R   0.591590 0.500050 0.462690 -0.620041
O36   O     O_R   0.500050 0.408410 0.462690 -0.619317
O37   O     O_R   0.408410 0.500050 0.537310 -0.617493
O38   O     O_R   0.499950 0.408410 0.537310 -0.623314
O39   O     O_R   0.591590 0.499950 0.537310 -0.617198
O40   O     O_R   0.500050 0.591590 0.537310 -0.622211
O41   O     O_R   0.908410 0.999950 0.962690 -0.627086
O42   O     O_R   0.999950 0.091590 0.962690 -0.627054
O43   O     O_R   0.091590 0.000050 0.962690 -0.627787
O44   O     O_R   0.000050 0.908410 0.962690 -0.627960
O45   O     O_R   0.908410 0.000050 0.037310 -0.630446
O46   O     O_R   0.999950 0.908410 0.037310 -0.634754
O47   O     O_R   0.091590 0.999950 0.037310 -0.628775
O48   O     O_R   0.000050 0.091590 0.037310 -0.635260
C193  C     C_R   0.380576 0.499836 0.500077 1.152056
C194  C     C_R   0.499698 0.619355 0.499981 1.153946
C195  C     C_R   0.619417 0.500224 0.499950 1.153251
C196  C     C_R   0.500407 0.380642 0.500136 1.153448
C197  C     C_R   0.880290 0.999400 0.000061 1.154371
C198  C     C_R   0.999999 0.119567 0.999998 1.150994
C199  C     C_R   0.119728 0.000619 0.999951 1.153228
C200  C     C_R   0.999971 0.880393 0.000050 1.146857
Zn9   Zn    Zn3+2 0.500000 0.500000 0.450200 0.938009
Zn10  Zn    Zn3+2 0.500000 0.500000 0.549800 0.936791
Zn11  Zn    Zn3+2 0.000000 1.000000 0.950200 0.920207
Zn12  Zn    Zn3+2 1.000000 0.000000 0.049800 0.917705
N1    N     N_R   0.492287 0.112385 0.856147 0.255236
O49   O     O_R   0.517489 0.163573 0.843870 -0.321905
O50   O     O_R   0.438519 0.114784 0.874652 -0.366935
N2    N     N_R   0.111410 0.510197 0.855487 0.252915
O51   O     O_R   0.163148 0.485260 0.844544 -0.316652
O52   O     O_R   0.112845 0.564094 0.873544 -0.378056
N3    N     N_R   0.516999 0.887431 0.858194 0.253778
O53   O     O_R   0.494287 0.835026 0.846426 -0.321090
O54   O     O_R   0.569729 0.887511 0.877956 -0.387914
N4    N     N_R   0.888120 0.474966 0.861326 0.237871
O55   O     O_R   0.834380 0.497195 0.853177 -0.396945
O56   O     O_R   0.891243 0.421598 0.880231 -0.367710
N5    N     N_R   0.483124 0.888033 0.136090 0.224524
O57   O     O_R   0.527648 0.854509 0.121065 -0.314171
O58   O     O_R   0.427129 0.875169 0.125124 -0.402600
N6    N     N_R   0.112915 0.479966 0.139185 0.242640
O59   O     O_R   0.165889 0.503441 0.148471 -0.391064
O60   O     O_R   0.111643 0.426501 0.120452 -0.357634
N7    N     N_R   0.515688 0.112184 0.135676 0.224349
O61   O     O_R   0.471305 0.145174 0.120003 -0.307638
O62   O     O_R   0.571994 0.126334 0.126007 -0.385362
N8    N     N_R   0.888621 0.508459 0.144629 0.257688
O63   O     O_R   0.837363 0.483344 0.156914 -0.333414
O64   O     O_R   0.886305 0.562057 0.126015 -0.356418
N9    N     N_R   0.040940 0.606002 0.353794 0.280915
O65   O     O_R   0.085255 0.641676 0.340983 -0.340038
O66   O     O_R   0.991719 0.631415 0.369470 -0.353720
N10   N     N_R   0.593772 0.940582 0.349743 0.282009
O67   O     O_R   0.618252 0.891140 0.333802 -0.366765
O68   O     O_R   0.629942 0.983923 0.363304 -0.354110
N11   N     N_R   0.984565 0.387827 0.354756 0.269242
O69   O     O_R   0.950506 0.344572 0.338612 -0.359161
O70   O     O_R   0.035756 0.372071 0.373296 -0.380884
N12   N     N_R   0.406516 0.060393 0.350733 0.282668
O71   O     O_R   0.381949 0.110130 0.335344 -0.360231
O72   O     O_R   0.370376 0.016748 0.364193 -0.355174
N13   N     N_R   0.013776 0.386895 0.645703 0.271155
O73   O     O_R   0.046609 0.343463 0.662809 -0.361466
O74   O     O_R   0.962965 0.371524 0.626402 -0.372158
N14   N     N_R   0.611862 0.015570 0.645540 0.269825
O75   O     O_R   0.656051 0.048413 0.661675 -0.361419
O76   O     O_R   0.626178 0.963689 0.627338 -0.366669
N15   N     N_R   0.957877 0.604585 0.647029 0.283381
O77   O     O_R   0.914119 0.639698 0.661091 -0.344844
O78   O     O_R   0.006766 0.630607 0.631024 -0.345212
N16   N     N_R   0.388648 0.980951 0.647613 0.269338
O79   O     O_R   0.345405 0.947960 0.665243 -0.356526
O80   O     O_R   0.372986 0.031787 0.628438 -0.358274
O81   O     O_3   0.404319 0.866654 0.798578 -0.586460
C201  C     C_3   0.340978 0.875525 0.790681 0.115392
H17   H     H_    0.316054 0.844228 0.813337 0.161146
H18   H     H_    0.327793 0.861263 0.756949 0.166324
C202  C     C_3   0.319674 0.941423 0.799675 -0.349592
H19   H     H_    0.343784 0.959882 0.828738 0.290507
H20   H     H_    0.331150 0.970907 0.770907 0.221620
C203  C     C_3   0.250935 0.944289 0.808061 -0.914950
H21   H     H_    0.225654 0.926122 0.779220 0.271286
H22   H     H_    0.237030 0.992433 0.813613 0.274151
H23   H     H_    0.238870 0.917157 0.837870 0.254442
O82   O     O_3   0.869267 0.593506 0.800517 -0.589650
C204  C     C_3   0.805146 0.596879 0.795853 0.248397
H24   H     H_    0.785304 0.597923 0.829524 0.190658
H25   H     H_    0.784140 0.556241 0.780547 0.109447
C205  C     C_3   0.787191 0.656634 0.772967 -0.369978
H26   H     H_    0.804490 0.695911 0.792523 0.222627
H27   H     H_    0.808116 0.659515 0.739664 0.280520
C206  C     C_3   0.717911 0.661831 0.768831 -0.991609
H28   H     H_    0.699619 0.622710 0.749741 0.274326
H29   H     H_    0.706104 0.704948 0.751559 0.279506
H30   H     H_    0.696137 0.662152 0.801961 0.263773
O83   O     O_3   0.606594 0.128753 0.794548 -0.597603
C207  C     C_3   0.668576 0.116297 0.783527 0.061908
H31   H     H_    0.695659 0.158458 0.789406 0.136890
H32   H     H_    0.676190 0.105160 0.748200 0.195550
C208  C     C_3   0.694173 0.065088 0.812495 -0.313824
H33   H     H_    0.698387 0.081965 0.846711 0.246770
H34   H     H_    0.662841 0.025031 0.812249 0.257387
C209  C     C_3   0.757113 0.044802 0.796557 -0.959453
H35   H     H_    0.753882 0.024523 0.763108 0.291775
H36   H     H_    0.775565 0.009864 0.819466 0.268396
H37   H     H_    0.788883 0.084377 0.795528 0.264679
O84   O     O_3   0.132277 0.399415 0.792988 -0.597470
C210  C     C_3   0.122714 0.336818 0.782590 0.053372
H38   H     H_    0.165200 0.311609 0.790697 0.140126
H39   H     H_    0.115165 0.328259 0.746945 0.193844
C211  C     C_3   0.070011 0.309538 0.809773 -0.316030
H40   H     H_    0.083947 0.306917 0.844751 0.251922
H41   H     H_    0.028735 0.338809 0.807306 0.250457
C212  C     C_3   0.053708 0.245468 0.793996 -0.957592
H42   H     H_    0.035498 0.247282 0.759892 0.293440
H43   H     H_    0.018225 0.225385 0.815996 0.271177
H44   H     H_    0.094789 0.215893 0.794521 0.264535
O85   O     O_3   0.476077 0.166779 0.207840 -0.619989
C213  C     C_3   0.523726 0.210768 0.207753 0.193156
H45   H     H_    0.539048 0.218173 0.173264 0.207491
H46   H     H_    0.565245 0.196893 0.226225 0.087059
C214  C     C_3   0.498498 0.271840 0.224309 -0.356661
H47   H     H_    0.461230 0.287150 0.202112 0.232992
H48   H     H_    0.478552 0.266236 0.257753 0.254841
C215  C     C_3   0.547973 0.321131 0.225428 -0.992436
H49   H     H_    0.586211 0.307044 0.247132 0.263790
H50   H     H_    0.528302 0.364253 0.238411 0.278595
H51   H     H_    0.565865 0.329770 0.191662 0.284117
O86   O     O_3   0.871740 0.395252 0.206351 -0.601567
C216  C     C_3   0.884600 0.333242 0.216672 0.059368
H52   H     H_    0.841912 0.306479 0.212330 0.149069
H53   H     H_    0.898467 0.325605 0.251475 0.193434
C217  C     C_3   0.933275 0.307303 0.185556 -0.293751
H54   H     H_    0.912828 0.300774 0.152543 0.248238
H55   H     H_    0.972449 0.339530 0.182753 0.261124
C218  C     C_3   0.956949 0.245880 0.201953 -0.970208
H56   H     H_    0.981275 0.251714 0.233745 0.289086
H57   H     H_    0.989362 0.226627 0.177408 0.271009
H58   H     H_    0.918400 0.213454 0.206715 0.266638
O87   O     O_3   0.519506 0.832894 0.208721 -0.618269
C219  C     C_3   0.470035 0.790951 0.209065 0.186859
H59   H     H_    0.453322 0.785289 0.174877 0.203720
H60   H     H_    0.429755 0.805802 0.228735 0.085929
C220  C     C_3   0.493174 0.728372 0.224214 -0.353034
H61   H     H_    0.528425 0.711926 0.200574 0.233187
H62   H     H_    0.515132 0.732216 0.257010 0.253699
C221  C     C_3   0.441448 0.681500 0.226664 -0.997157
H63   H     H_    0.406406 0.695910 0.251068 0.268553
H64   H     H_    0.460041 0.636590 0.237069 0.277595
H65   H     H_    0.419663 0.676186 0.193879 0.275229
O88   O     O_3   0.125665 0.600408 0.199245 -0.592509
C222  C     C_3   0.189541 0.607697 0.203316 0.251613
H66   H     H_    0.208520 0.611203 0.169460 0.189261
H67   H     H_    0.213090 0.567971 0.217893 0.113004
C223  C     C_3   0.204266 0.667744 0.226864 -0.363953
H68   H     H_    0.184895 0.706478 0.207745 0.225554
H69   H     H_    0.183017 0.668222 0.260053 0.275920
C224  C     C_3   0.273088 0.677108 0.231406 -1.015614
H70   H     H_    0.293576 0.638703 0.250138 0.274940
H71   H     H_    0.282183 0.720323 0.249386 0.274792
H72   H     H_    0.295000 0.679991 0.198363 0.264414
O89   O     O_3   0.864406 0.410853 0.300234 -0.613774
C225  C     C_3   0.807423 0.437899 0.289194 0.079942
H73   H     H_    0.773176 0.400686 0.285405 0.148915
H74   H     H_    0.807407 0.464191 0.257677 0.181526
C226  C     C_3   0.786461 0.480221 0.326315 -0.298174
H75   H     H_    0.775526 0.452528 0.356079 0.231533
H76   H     H_    0.823840 0.512844 0.334239 0.267623
C227  C     C_3   0.729983 0.516729 0.313283 -1.001039
H77   H     H_    0.740959 0.548018 0.285455 0.284602
H78   H     H_    0.714346 0.544499 0.341743 0.262936
H79   H     H_    0.692475 0.485565 0.303298 0.275899
O90   O     O_3   0.489419 0.163498 0.300574 -0.597646
C228  C     C_3   0.550942 0.178702 0.311549 0.011779
H80   H     H_    0.560202 0.225753 0.299683 0.164800
H81   H     H_    0.586322 0.148464 0.296265 0.118387
C229  C     C_3   0.560255 0.178982 0.361389 -0.238973
H82   H     H_    0.525802 0.209454 0.376936 0.247870
H83   H     H_    0.555107 0.131784 0.374297 0.251459
C230  C     C_3   0.624037 0.201942 0.373345 -1.003016
H84   H     H_    0.659390 0.169976 0.360772 0.287982
H85   H     H_    0.628206 0.205103 0.409753 0.275427
H86   H     H_    0.632210 0.247868 0.358856 0.245459
O91   O     O_3   0.153332 0.570367 0.293799 -0.617474
C231  C     C_3   0.196140 0.521419 0.293677 0.006649
H87   H     H_    0.242236 0.541081 0.287231 0.164321
H88   H     H_    0.187804 0.486494 0.267515 0.126077
C232  C     C_3   0.198482 0.489914 0.338556 -0.237728
H89   H     H_    0.214230 0.523490 0.363466 0.250023
H90   H     H_    0.152256 0.472556 0.347402 0.257135
C233  C     C_3   0.243008 0.436358 0.338423 -1.004734
H91   H     H_    0.228996 0.401695 0.313727 0.281192
H92   H     H_    0.243096 0.414542 0.371494 0.269329
H93   H     H_    0.290011 0.452591 0.330688 0.261606
O92   O     O_3   0.509199 0.837318 0.301440 -0.595826
C234  C     C_3   0.447766 0.822707 0.313498 0.013742
H94   H     H_    0.438051 0.775522 0.302321 0.164626
H95   H     H_    0.412343 0.852939 0.298393 0.116467
C235  C     C_3   0.439200 0.823402 0.363455 -0.237359
H96   H     H_    0.473585 0.792875 0.378896 0.248825
H97   H     H_    0.444900 0.870791 0.375664 0.251505
C236  C     C_3   0.375412 0.801348 0.376638 -1.005878
H98   H     H_    0.340225 0.833513 0.364222 0.285626
H99   H     H_    0.371829 0.798883 0.413140 0.276884
H100  H     H_    0.366494 0.755274 0.362844 0.243628
O93   O     O_3   0.844429 0.563502 0.705786 -0.615745
C237  C     C_3   0.804459 0.511973 0.704899 0.005770
H101  H     H_    0.757069 0.528728 0.710186 0.161702
H102  H     H_    0.813409 0.477649 0.731447 0.123419
C238  C     C_3   0.806040 0.480273 0.660118 -0.240983
H103  H     H_    0.787604 0.512006 0.634896 0.246959
H104  H     H_    0.853768 0.467513 0.651738 0.260224
C239  C     C_3   0.767014 0.422418 0.660133 -0.996276
H105  H     H_    0.785155 0.388825 0.684200 0.284730
H106  H     H_    0.767839 0.401569 0.626793 0.271156
H107  H     H_    0.719054 0.433503 0.668867 0.259720
O94   O     O_3   0.410923 0.860777 0.703460 -0.623644
C240  C     C_3   0.441164 0.804436 0.711563 0.056155
H108  H     H_    0.406297 0.767430 0.710877 0.148335
H109  H     H_    0.463360 0.801206 0.744447 0.188137
C241  C     C_3   0.488600 0.791814 0.675468 -0.291352
H110  H     H_    0.464495 0.780337 0.644422 0.238740
H111  H     H_    0.517336 0.833151 0.670076 0.265405
C242  C     C_3   0.530291 0.738637 0.687625 -0.994738
H112  H     H_    0.558099 0.750338 0.716994 0.283387
H113  H     H_    0.561703 0.728733 0.659688 0.267901
H114  H     H_    0.502781 0.697155 0.694851 0.272144
O95   O     O_3   0.135663 0.414729 0.698021 -0.628411
C243  C     C_3   0.190770 0.447429 0.705720 0.082040
H115  H     H_    0.225766 0.428407 0.682989 0.166845
H116  H     H_    0.208337 0.439421 0.739526 0.183317
C244  C     C_3   0.185035 0.516551 0.696575 -0.336744
H117  H     H_    0.159140 0.524364 0.665762 0.279922
H118  H     H_    0.159635 0.538671 0.724029 0.214109
C245  C     C_3   0.247649 0.546972 0.692257 -0.940506
H119  H     H_    0.275019 0.539104 0.722492 0.271997
H120  H     H_    0.241914 0.596943 0.687475 0.275148
H121  H     H_    0.272536 0.528410 0.663278 0.258053
O96   O     O_3   0.591703 0.137085 0.700658 -0.626687
C246  C     C_3   0.562512 0.193469 0.710381 0.067441
H122  H     H_    0.597714 0.230139 0.709148 0.148530
H123  H     H_    0.541821 0.195896 0.743955 0.188092
C247  C     C_3   0.513640 0.207592 0.675862 -0.299239
H124  H     H_    0.536432 0.220116 0.644316 0.237441
H125  H     H_    0.484535 0.166557 0.670601 0.265917
C248  C     C_3   0.472674 0.260373 0.690104 -0.987497
H126  H     H_    0.445667 0.247344 0.719784 0.284166
H127  H     H_    0.440552 0.271888 0.663090 0.268329
H128  H     H_    0.500652 0.301274 0.697732 0.272150
O97   O     O_3   0.289677 0.192757 0.439407 -0.588470
C249  C     C_3   0.285909 0.203904 0.393330 0.177347
H129  H     H_    0.280577 0.159052 0.376690 0.227400
H130  H     H_    0.327562 0.225885 0.378639 0.132419
C250  C     C_3   0.229617 0.242771 0.383019 -0.378523
H131  H     H_    0.187876 0.219047 0.395315 0.261862
H132  H     H_    0.233054 0.287612 0.399830 0.217338
C251  C     C_3   0.223545 0.253955 0.333542 -0.915520
H133  H     H_    0.264306 0.278805 0.320746 0.259013
H134  H     H_    0.182342 0.282097 0.327119 0.286930
H135  H     H_    0.218794 0.209880 0.315767 0.274892
O98   O     O_3   0.190747 0.709874 0.440192 -0.578962
C252  C     C_3   0.206788 0.722564 0.395868 0.112183
H136  H     H_    0.198489 0.681965 0.374507 0.184942
H137  H     H_    0.255725 0.736151 0.393242 0.116592
C253  C     C_3   0.167841 0.775580 0.379249 -0.239078
H138  H     H_    0.118652 0.762967 0.381607 0.272684
H139  H     H_    0.175910 0.816328 0.400281 0.229807
C254  C     C_3   0.183349 0.791672 0.331516 -0.939253
H140  H     H_    0.232433 0.804193 0.328274 0.256894
H141  H     H_    0.155224 0.831107 0.320771 0.276479
H142  H     H_    0.173293 0.752319 0.309715 0.280680
O99   O     O_3   0.709773 0.807972 0.436405 -0.588963
C255  C     C_3   0.713555 0.799407 0.390066 0.182500
H143  H     H_    0.718777 0.845162 0.374566 0.228778
H144  H     H_    0.671983 0.778082 0.375094 0.134697
C256  C     C_3   0.769985 0.761383 0.378426 -0.388497
H145  H     H_    0.811662 0.784774 0.390832 0.260981
H146  H     H_    0.766871 0.715771 0.394328 0.220486
C257  C     C_3   0.775792 0.752578 0.328677 -0.905179
H147  H     H_    0.735174 0.727897 0.315788 0.261157
H148  H     H_    0.817237 0.725206 0.321230 0.285420
H149  H     H_    0.779960 0.797512 0.311806 0.273418
O100  O     O_3   0.812292 0.300192 0.428505 -0.573727
C258  C     C_3   0.792334 0.294260 0.384384 0.111076
H150  H     H_    0.800733 0.337415 0.365697 0.178911
H151  H     H_    0.742760 0.282806 0.383112 0.107567
C259  C     C_3   0.827480 0.242642 0.362011 -0.218525
H152  H     H_    0.877263 0.252650 0.363057 0.280743
H153  H     H_    0.818971 0.199146 0.380041 0.224084
C260  C     C_3   0.807734 0.235110 0.314106 -0.986079
H154  H     H_    0.758699 0.221902 0.312513 0.261486
H155  H     H_    0.835455 0.198846 0.298161 0.274934
H156  H     H_    0.814596 0.278487 0.295682 0.272542
O101  O     O_3   0.304132 0.810252 0.579366 -0.579574
C261  C     C_3   0.306913 0.794723 0.624813 0.177691
H157  H     H_    0.308619 0.837835 0.643928 0.247106
H158  H     H_    0.348234 0.767856 0.634432 0.094774
C262  C     C_3   0.249375 0.759433 0.638436 -0.363800
H159  H     H_    0.208294 0.787316 0.630931 0.261448
H160  H     H_    0.246417 0.716160 0.619514 0.216550
C263  C     C_3   0.249954 0.744339 0.687593 -0.951825
H161  H     H_    0.290001 0.715317 0.695634 0.251580
H162  H     H_    0.207610 0.719004 0.696551 0.283867
H163  H     H_    0.252009 0.786950 0.707387 0.268823
O102  O     O_3   0.187538 0.304181 0.579106 -0.577712
C264  C     C_3   0.203677 0.305236 0.624408 0.159531
H164  H     H_    0.161775 0.314897 0.643893 0.247486
H165  H     H_    0.238090 0.340966 0.633369 0.091706
C265  C     C_3   0.228346 0.242780 0.638079 -0.341017
H166  H     H_    0.193777 0.206969 0.630635 0.260724
H167  H     H_    0.270600 0.232717 0.618971 0.225160
C266  C     C_3   0.243002 0.241017 0.687245 -0.941826
H168  H     H_    0.278475 0.275617 0.695292 0.255330
H169  H     H_    0.260603 0.195116 0.696205 0.287039
H170  H     H_    0.201194 0.250220 0.707071 0.263477
O103  O     O_3   0.696831 0.189911 0.577902 -0.581071
C267  C     C_3   0.693268 0.204208 0.623505 0.171481
H171  H     H_    0.688948 0.160699 0.642077 0.250213
H172  H     H_    0.653084 0.232893 0.633068 0.093169
C268  C     C_3   0.751895 0.236402 0.638054 -0.350910
H173  H     H_    0.791853 0.206803 0.630656 0.260548
H174  H     H_    0.757372 0.279936 0.619540 0.219424
C269  C     C_3   0.750411 0.250210 0.687374 -0.954545
H175  H     H_    0.712226 0.281841 0.695182 0.255678
H176  H     H_    0.794088 0.272148 0.697220 0.281752
H177  H     H_    0.744520 0.207358 0.706667 0.268362
O104  O     O_3   0.808531 0.706708 0.567611 -0.577157
C270  C     C_3   0.790177 0.714400 0.612246 0.155464
H178  H     H_    0.832013 0.715362 0.632776 0.228216
H179  H     H_    0.760979 0.676525 0.625626 0.116376
C271  C     C_3   0.757332 0.775615 0.617888 -0.355490
H180  H     H_    0.789674 0.813501 0.610271 0.258260
H181  H     H_    0.718377 0.778819 0.594698 0.229379
C272  C     C_3   0.733026 0.783149 0.664805 -0.920679
H182  H     H_    0.698391 0.747283 0.672212 0.253241
H183  H     H_    0.711008 0.828570 0.668212 0.297277
H184  H     H_    0.770954 0.779878 0.688936 0.270054
O105  O     O_3   0.802509 0.677112 0.931875 -0.576505
C273  C     C_3   0.762751 0.707593 0.902314 0.131235
H185  H     H_    0.754324 0.676601 0.874191 0.161919
H186  H     H_    0.782379 0.750014 0.887424 0.106305
C274  C     C_3   0.701051 0.719860 0.924698 -0.408761
H187  H     H_    0.678671 0.675552 0.932824 0.246241
H188  H     H_    0.707696 0.745145 0.955996 0.235505
C275  C     C_3   0.659005 0.756808 0.894817 -0.813221
H189  H     H_    0.679843 0.802012 0.887253 0.275302
H190  H     H_    0.614500 0.764288 0.911701 0.296870
H191  H     H_    0.650597 0.731891 0.863558 0.255007
O106  O     O_3   0.682594 0.195332 0.923321 -0.571636
C276  C     C_3   0.704301 0.212820 0.880996 0.119289
H192  H     H_    0.665481 0.208759 0.857709 0.224289
H193  H     H_    0.741988 0.183665 0.867695 0.088182
C277  C     C_3   0.725176 0.279574 0.881749 -0.335758
H194  H     H_    0.686379 0.309001 0.892153 0.251913
H195  H     H_    0.762770 0.285316 0.905893 0.234651
C278  C     C_3   0.747721 0.300262 0.836389 -0.910318
H196  H     H_    0.787465 0.272291 0.825795 0.260425
H197  H     H_    0.762209 0.348890 0.837892 0.300771
H198  H     H_    0.710616 0.295794 0.811688 0.256953
O107  O     O_3   0.197611 0.319087 0.927801 -0.574516
C279  C     C_3   0.211833 0.298265 0.884706 0.120020
H199  H     H_    0.207960 0.337919 0.862004 0.224268
H200  H     H_    0.180508 0.261959 0.871929 0.090431
C280  C     C_3   0.277708 0.275088 0.883057 -0.342780
H201  H     H_    0.309299 0.312322 0.893194 0.253349
H202  H     H_    0.283153 0.236269 0.906332 0.230143
C281  C     C_3   0.294931 0.253840 0.836736 -0.911179
H203  H     H_    0.264625 0.215727 0.826309 0.257518
H204  H     H_    0.342949 0.237457 0.836506 0.300446
H205  H     H_    0.290817 0.292163 0.812856 0.258438
O108  O     O_3   0.324241 0.807744 0.925125 -0.573987
C282  C     C_3   0.295713 0.767771 0.894760 0.133562
H206  H     H_    0.328567 0.759796 0.867351 0.185342
H207  H     H_    0.253974 0.787024 0.878980 0.093922
C283  C     C_3   0.282504 0.706030 0.916847 -0.409296
H208  H     H_    0.326479 0.684060 0.925902 0.244634
H209  H     H_    0.255680 0.712487 0.947632 0.231997
C284  C     C_3   0.247139 0.663648 0.886202 -0.814148
H210  H     H_    0.202126 0.683959 0.877870 0.272063
H211  H     H_    0.239172 0.619061 0.902835 0.298509
H212  H     H_    0.273528 0.655625 0.855387 0.255199
O109  O     O_3   0.804730 0.319873 0.074758 -0.572145
C285  C     C_3   0.774315 0.288588 0.109437 0.094524
H213  H     H_    0.806840 0.262196 0.130364 0.111967
H214  H     H_    0.739389 0.257092 0.095564 0.158255
C286  C     C_3   0.741725 0.335152 0.138661 -0.237087
H215  H     H_    0.775970 0.366935 0.152913 0.291602
H216  H     H_    0.709361 0.362296 0.118411 0.239194
C287  C     C_3   0.706401 0.303979 0.176013 -1.013541
H217  H     H_    0.669389 0.274769 0.162442 0.282005
H218  H     H_    0.685620 0.339236 0.197613 0.276135
H219  H     H_    0.737355 0.275301 0.196237 0.261626
O110  O     O_3   0.672061 0.838302 0.103659 -0.560833
C288  C     C_3   0.704756 0.817329 0.140944 0.090007
H220  H     H_    0.737542 0.852390 0.153576 0.131272
H221  H     H_    0.730212 0.775058 0.132241 0.141446
C289  C     C_3   0.659255 0.802523 0.177853 -0.194403
H222  H     H_    0.634364 0.844866 0.187001 0.289631
H223  H     H_    0.625537 0.768209 0.166013 0.242351
C290  C     C_3   0.691253 0.777599 0.218707 -0.976187
H224  H     H_    0.716259 0.734887 0.210641 0.268463
H225  H     H_    0.656682 0.767298 0.244647 0.289408
H226  H     H_    0.723978 0.811948 0.231790 0.274237
O111  O     O_3   0.198882 0.676212 0.064375 -0.582821
C291  C     C_3   0.243426 0.705691 0.090707 0.128326
H227  H     H_    0.256612 0.673424 0.117212 0.159074
H228  H     H_    0.226222 0.747091 0.108127 0.112226
C292  C     C_3   0.300983 0.719338 0.063331 -0.406097
H229  H     H_    0.321942 0.675545 0.052662 0.242314
H230  H     H_    0.289282 0.745591 0.033189 0.234544
C293  C     C_3   0.347569 0.755598 0.090004 -0.824700
H231  H     H_    0.327935 0.800291 0.099940 0.288864
H232  H     H_    0.389042 0.764128 0.069627 0.291272
H233  H     H_    0.360999 0.729701 0.119968 0.240687
O112  O     O_3   0.326117 0.160575 0.104839 -0.556836
C294  C     C_3   0.292503 0.182355 0.141596 0.087804
H234  H     H_    0.258316 0.148199 0.153849 0.127549
H235  H     H_    0.268569 0.225276 0.132399 0.144878
C295  C     C_3   0.336851 0.195949 0.179114 -0.193869
H236  H     H_    0.359729 0.152854 0.189085 0.285581
H237  H     H_    0.372290 0.228789 0.167482 0.246587
C296  C     C_3   0.304075 0.222719 0.219152 -0.981842
H238  H     H_    0.281608 0.266494 0.210300 0.267960
H239  H     H_    0.337765 0.231615 0.245697 0.290348
H240  H     H_    0.269099 0.190130 0.231803 0.273228
N17   N     N_R   0.581117 0.135984 0.573581 0.201868
O113  O     O_R   0.528549 0.128804 0.593102 -0.504848
O114  O     O_R   0.623491 0.094943 0.577974 -0.290661
N18   N     N_R   0.135620 0.420405 0.574372 0.206523
O115  O     O_R   0.130789 0.472060 0.595141 -0.491904
O116  O     O_R   0.094263 0.378273 0.579607 -0.288997
N19   N     N_R   0.420179 0.863548 0.574193 0.199763
O117  O     O_R   0.473091 0.870636 0.592882 -0.506218
O118  O     O_R   0.377846 0.904491 0.579310 -0.290561
N20   N     N_R   0.864352 0.593498 0.567971 0.226249
O119  O     O_R   0.874082 0.542761 0.588891 -0.514065
O120  O     O_R   0.906119 0.636002 0.567268 -0.271075
N21   N     N_R   0.595594 0.863143 0.433489 0.228691
O121  O     O_R   0.544807 0.871486 0.412551 -0.499716
O122  O     O_R   0.637465 0.905547 0.433621 -0.285287
N22   N     N_R   0.136632 0.594971 0.432791 0.222263
O123  O     O_R   0.126883 0.544528 0.411545 -0.511551
O124  O     O_R   0.094944 0.637321 0.433404 -0.278837
N23   N     N_R   0.404287 0.138400 0.434140 0.228486
O125  O     O_R   0.455173 0.130855 0.412819 -0.498000
O126  O     O_R   0.362652 0.095770 0.434021 -0.283503
N24   N     N_R   0.863432 0.417983 0.426922 0.204837
O127  O     O_R   0.870266 0.470468 0.407325 -0.500754
O128  O     O_R   0.904300 0.375595 0.421754 -0.281633
N25   N     N_R   0.073828 0.639728 0.078709 0.204115
O129  O     O_R   0.018634 0.638323 0.094938 -0.428788
O130  O     O_R   0.114991 0.604337 0.095951 -0.305245
N26   N     N_R   0.645281 0.966469 0.092440 0.187823
O131  O     O_R   0.642783 0.025778 0.089818 -0.403500
O132  O     O_R   0.624102 0.941047 0.128142 -0.378954
N27   N     N_R   0.928521 0.361093 0.078713 0.176877
O133  O     O_R   0.984091 0.363174 0.093857 -0.473020
O134  O     O_R   0.887848 0.397859 0.095099 -0.316148
N28   N     N_R   0.353679 0.032894 0.092703 0.187313
O135  O     O_R   0.356078 0.973607 0.090024 -0.408270
O136  O     O_R   0.374851 0.058029 0.128299 -0.376767
N29   N     N_R   0.073777 0.361628 0.921880 0.174494
O137  O     O_R   0.018967 0.363403 0.905370 -0.469855
O138  O     O_R   0.114925 0.399518 0.907154 -0.323039
N30   N     N_R   0.637715 0.072004 0.920700 0.173243
O139  O     O_R   0.634663 0.016832 0.904894 -0.478440
O140  O     O_R   0.600591 0.113324 0.905821 -0.315905
N31   N     N_R   0.927586 0.639837 0.920551 0.203009
O141  O     O_R   0.983074 0.638641 0.904865 -0.431093
O142  O     O_R   0.886725 0.604179 0.903060 -0.303274
N32   N     N_R   0.361906 0.933441 0.918267 0.179594
O143  O     O_R   0.365543 0.990566 0.906449 -0.473739
O144  O     O_R   0.395935 0.893705 0.898059 -0.319030
O145  O     O_3   0.606566 0.376169 0.546974 -0.614782
C297  C     C_3   0.623443 0.387792 0.591671 0.106650
H241  H     H_    0.646630 0.432905 0.592824 0.164366
H242  H     H_    0.657309 0.355358 0.605532 0.116682
C298  C     C_3   0.567284 0.389602 0.622090 -0.350507
H243  H     H_    0.537067 0.427943 0.612416 0.239153
H244  H     H_    0.541525 0.345951 0.619337 0.213736
C299  C     C_3   0.585557 0.399134 0.670063 -1.020821
H245  H     H_    0.614198 0.360532 0.681722 0.270331
H246  H     H_    0.543914 0.401865 0.690987 0.271177
H247  H     H_    0.611161 0.442638 0.673658 0.269499
O146  O     O_3   0.375188 0.393998 0.547544 -0.618874
C300  C     C_3   0.385766 0.378054 0.592579 0.128470
H248  H     H_    0.435023 0.368129 0.596557 0.165153
H249  H     H_    0.362858 0.334947 0.602773 0.114889
C301  C     C_3   0.369094 0.430027 0.624375 -0.394692
H250  H     H_    0.399581 0.469715 0.618165 0.237144
H251  H     H_    0.320966 0.444378 0.619254 0.207662
C302  C     C_3   0.376499 0.410116 0.672278 -0.990771
H252  H     H_    0.346109 0.370639 0.679707 0.265193
H253  H     H_    0.363913 0.448367 0.694484 0.272104
H254  H     H_    0.424700 0.397142 0.678738 0.275547
O147  O     O_3   0.392933 0.623672 0.546546 -0.618979
C303  C     C_3   0.375149 0.611225 0.591106 0.118941
H255  H     H_    0.352989 0.565608 0.592087 0.159412
H256  H     H_    0.339929 0.642485 0.604681 0.116189
C304  C     C_3   0.430437 0.610556 0.622026 -0.358217
H257  H     H_    0.461188 0.572202 0.613164 0.236810
H258  H     H_    0.456082 0.654258 0.618844 0.214531
C305  C     C_3   0.410620 0.602215 0.669957 -1.010859
H259  H     H_    0.382890 0.641855 0.680958 0.269545
H260  H     H_    0.451592 0.598592 0.691248 0.269481
H261  H     H_    0.383382 0.559689 0.673793 0.276382
O148  O     O_3   0.622980 0.606288 0.546444 -0.620420
C306  C     C_3   0.613519 0.622672 0.591502 0.119481
H262  H     H_    0.564480 0.633438 0.596202 0.166774
H263  H     H_    0.637526 0.665341 0.601161 0.114677
C307  C     C_3   0.629981 0.570498 0.623189 -0.377694
H264  H     H_    0.599364 0.530918 0.617274 0.236802
H265  H     H_    0.678072 0.555995 0.617764 0.210466
C308  C     C_3   0.622553 0.590387 0.671043 -0.995628
H266  H     H_    0.651618 0.630993 0.677707 0.273771
H267  H     H_    0.636700 0.552709 0.693299 0.263675
H268  H     H_    0.574023 0.601778 0.678052 0.275006
O149  O     O_3   0.605222 0.623134 0.451854 -0.618834
C309  C     C_3   0.619791 0.615407 0.406292 0.114542
H269  H     H_    0.632238 0.566878 0.401047 0.160124
H270  H     H_    0.660801 0.641647 0.395497 0.116753
C310  C     C_3   0.565251 0.630163 0.376383 -0.369372
H271  H     H_    0.528225 0.596306 0.382228 0.230459
H272  H     H_    0.547505 0.676589 0.383744 0.216567
C311  C     C_3   0.583365 0.627477 0.327793 -0.969699
H273  H     H_    0.619629 0.661723 0.320441 0.273395
H274  H     H_    0.542936 0.637770 0.307084 0.268632
H275  H     H_    0.600217 0.581112 0.319288 0.269340
O150  O     O_3   0.377092 0.606627 0.453678 -0.618955
C312  C     C_3   0.385446 0.623377 0.408556 0.113331
H276  H     H_    0.431344 0.644538 0.404979 0.159226
H277  H     H_    0.353110 0.658753 0.396705 0.108065
C313  C     C_3   0.381829 0.567540 0.378200 -0.346522
H278  H     H_    0.421161 0.536841 0.384597 0.229716
H279  H     H_    0.338662 0.542076 0.384680 0.214285
C314  C     C_3   0.383546 0.586469 0.329776 -1.026663
H280  H     H_    0.343737 0.615934 0.322004 0.270412
H281  H     H_    0.381550 0.545157 0.308634 0.269382
H282  H     H_    0.426462 0.611801 0.322329 0.275328
O151  O     O_3   0.393694 0.376449 0.454491 -0.620166
C315  C     C_3   0.377306 0.382803 0.409237 0.104830
H283  H     H_    0.369493 0.431949 0.402546 0.170253
H284  H     H_    0.333241 0.360231 0.401160 0.118902
C316  C     C_3   0.427902 0.360459 0.377926 -0.382341
H285  H     H_    0.470219 0.387086 0.383752 0.238932
H286  H     H_    0.437616 0.311333 0.383953 0.216094
C317  C     C_3   0.409437 0.368576 0.329836 -0.960297
H287  H     H_    0.367221 0.342066 0.322775 0.272565
H288  H     H_    0.446642 0.351834 0.308049 0.270837
H289  H     H_    0.401467 0.417646 0.322456 0.260364
O152  O     O_3   0.624217 0.392290 0.455958 -0.619085
C318  C     C_3   0.612473 0.371114 0.412266 0.105845
H290  H     H_    0.569545 0.343940 0.412956 0.161182
H291  H     H_    0.647444 0.339777 0.398593 0.106138
C319  C     C_3   0.604852 0.424500 0.380057 -0.332013
H292  H     H_    0.564061 0.451758 0.389259 0.237475
H293  H     H_    0.645872 0.454475 0.381474 0.216641
C320  C     C_3   0.596812 0.401595 0.332900 -1.040106
H294  H     H_    0.639211 0.378661 0.321347 0.267672
H295  H     H_    0.587043 0.440765 0.310728 0.274853
H296  H     H_    0.558142 0.368735 0.331026 0.277426
O153  O     O_3   0.109736 0.874306 0.043174 -0.617091
C321  C     C_3   0.130733 0.887377 0.086670 0.126165
H297  H     H_    0.153526 0.932727 0.086167 0.166611
H298  H     H_    0.166383 0.855712 0.099081 0.118943
C322  C     C_3   0.077475 0.889612 0.119677 -0.361609
H299  H     H_    0.046432 0.927796 0.111125 0.236458
H300  H     H_    0.051241 0.846086 0.118446 0.219411
C323  C     C_3   0.100375 0.899574 0.166567 -0.962951
H301  H     H_    0.129694 0.860805 0.176978 0.274550
H302  H     H_    0.060824 0.902651 0.189518 0.272708
H303  H     H_    0.127021 0.942762 0.168556 0.268579
O154  O     O_3   0.869354 0.890055 0.046259 -0.615408
C324  C     C_3   0.889053 0.870194 0.088830 0.140668
H304  H     H_    0.935235 0.850067 0.085567 0.166621
H305  H     H_    0.861955 0.831947 0.102815 0.118610
C325  C     C_3   0.892373 0.923159 0.121881 -0.381047
H306  H     H_    0.929084 0.955436 0.111846 0.238008
H307  H     H_    0.848210 0.948120 0.122686 0.213399
C326  C     C_3   0.906390 0.900019 0.168215 -0.964257
H308  H     H_    0.868732 0.870090 0.180281 0.271906
H309  H     H_    0.910999 0.939387 0.190998 0.273659
H310  H     H_    0.949873 0.873932 0.168279 0.271512
O155  O     O_3   0.889675 0.125124 0.043156 -0.617607
C327  C     C_3   0.867291 0.110315 0.086236 0.133499
H311  H     H_    0.844828 0.064880 0.084829 0.169805
H312  H     H_    0.830878 0.140988 0.098808 0.113993
C328  C     C_3   0.919267 0.107441 0.119895 -0.366643
H313  H     H_    0.952184 0.071256 0.110473 0.241925
H314  H     H_    0.943697 0.152004 0.120686 0.211844
C329  C     C_3   0.894776 0.092745 0.165905 -0.986114
H315  H     H_    0.861508 0.128043 0.176600 0.268765
H316  H     H_    0.933183 0.091569 0.189703 0.275240
H317  H     H_    0.871753 0.047476 0.166085 0.274132
O156  O     O_3   0.129738 0.109351 0.047070 -0.612690
C330  C     C_3   0.109460 0.128086 0.089859 0.138118
H318  H     H_    0.063432 0.148576 0.086748 0.165417
H319  H     H_    0.136565 0.165728 0.104389 0.115392
C331  C     C_3   0.105313 0.074203 0.122295 -0.374046
H320  H     H_    0.068843 0.042237 0.111694 0.237468
H321  H     H_    0.149446 0.049193 0.123119 0.213188
C332  C     C_3   0.090031 0.096005 0.168782 -0.976237
H322  H     H_    0.126971 0.126193 0.181313 0.272011
H323  H     H_    0.085554 0.055989 0.191143 0.276253
H324  H     H_    0.046134 0.121388 0.168905 0.266372
O157  O     O_3   0.111301 0.125859 0.958406 -0.618119
C333  C     C_3   0.135317 0.111593 0.915744 0.122271
H325  H     H_    0.157008 0.065929 0.917316 0.168237
H326  H     H_    0.172793 0.142017 0.904216 0.116421
C334  C     C_3   0.084859 0.109907 0.880886 -0.365802
H327  H     H_    0.050651 0.074315 0.889560 0.242842
H328  H     H_    0.061601 0.154951 0.879526 0.211511
C335  C     C_3   0.111142 0.095059 0.835467 -0.988756
H329  H     H_    0.146196 0.129430 0.825802 0.267067
H330  H     H_    0.073978 0.095297 0.810656 0.279043
H331  H     H_    0.132579 0.049175 0.835670 0.270164
O158  O     O_3   0.876169 0.108094 0.953446 -0.611714
C336  C     C_3   0.892102 0.128887 0.910161 0.126309
H332  H     H_    0.936534 0.153314 0.912098 0.168510
H333  H     H_    0.860437 0.162990 0.895747 0.111736
C337  C     C_3   0.898792 0.075382 0.878021 -0.358067
H334  H     H_    0.934911 0.043863 0.889617 0.242072
H335  H     H_    0.854846 0.049939 0.876176 0.210603
C338  C     C_3   0.916714 0.097746 0.832051 -0.990280
H336  H     H_    0.882477 0.130725 0.819422 0.268804
H337  H     H_    0.919253 0.058280 0.809175 0.280676
H338  H     H_    0.962126 0.120476 0.832957 0.267817
O159  O     O_3   0.889611 0.873958 0.957903 -0.616470
C339  C     C_3   0.867957 0.887627 0.914617 0.118131
H339  H     H_    0.845311 0.932901 0.915450 0.164458
H340  H     H_    0.831913 0.856187 0.902394 0.113745
C340  C     C_3   0.920633 0.890368 0.881128 -0.359621
H341  H     H_    0.951971 0.928449 0.889574 0.236670
H342  H     H_    0.946677 0.846845 0.881904 0.218730
C341  C     C_3   0.896986 0.901080 0.834504 -0.962913
H343  H     H_    0.866796 0.862781 0.824294 0.274368
H344  H     H_    0.936127 0.903974 0.811159 0.275871
H345  H     H_    0.871093 0.944597 0.832895 0.262863
O160  O     O_3   0.125377 0.891980 0.953587 -0.612471
C342  C     C_3   0.109813 0.872070 0.910215 0.126602
H346  H     H_    0.065455 0.847456 0.912049 0.167300
H347  H     H_    0.141794 0.838341 0.895567 0.113066
C343  C     C_3   0.103105 0.926321 0.878604 -0.362675
H348  H     H_    0.064612 0.955645 0.889378 0.240335
H349  H     H_    0.145764 0.953963 0.878761 0.212768
C344  C     C_3   0.090245 0.904893 0.831708 -0.978319
H350  H     H_    0.128554 0.876448 0.819255 0.273516
H351  H     H_    0.085044 0.945132 0.809702 0.277751
H352  H     H_    0.047362 0.877643 0.830850 0.273455

loop_
_geom_bond_atom_site_label_1
_geom_bond_atom_site_label_2
_geom_bond_distance
_ccdc_geom_bond_type
C254  H142  1.109031 S    
N16   O80   1.301646 A    
O103  C267  1.420815 S    
C336  H332  1.109470 S    
O8    Zn2   2.036597 S    
C90   C106  1.400091 A    
C261  C262  1.529344 S    
O25   C13   1.299247 A    
C228  H80   1.107829 S    
C318  H290  1.109931 S    
C218  H58   1.109099 S    
O146  C300  1.429252 S    
C296  H240  1.110871 S    
C163  C187  1.433613 A    
C204  H24   1.108283 S    
O38   Zn10  2.040542 S    
C157  C173  1.410207 A    
C139  C155  1.442668 A    
O105  C273  1.418576 S    
N22   O123  1.297019 A    
C298  C299  1.525392 S    
C161  C185  1.435033 A    
N19   O118  1.299108 A    
O38   C196  1.282095 A    
C343  H348  1.108403 S    
C329  H316  1.110210 S    
C264  H164  1.109254 S    
O31   C15   1.298264 A    
C12   C37   1.482594 S    
C292  H230  1.110034 S    
O18   Zn2   2.039600 S    
C319  H292  1.109399 S    
C172  C192  1.407786 A    
C290  H226  1.111486 S    
C240  C241  1.530989 S    
C281  H203  1.111210 S    
C307  H265  1.110972 S    
C340  H341  1.108583 S    
N29   O137  1.301647 A    
C99   O101  1.384764 S    
C300  C301  1.536413 S    
C87   N23   1.421104 S    
C267  H171  1.108861 S    
C146  C162  1.410855 A    
O32   C16   1.299313 A    
O152  C318  1.429091 S    
C272  H182  1.111092 S    
C258  C259  1.526653 S    
C87   C167  1.442526 A    
O108  C282  1.417136 S    
C299  H245  1.111086 S    
C225  C226  1.529057 S    
C274  H188  1.109822 S    
C249  H129  1.110717 S    
O44   Zn11  2.038956 S    
C150  C166  1.413208 A    
C263  H163  1.111052 S    
C314  H280  1.110556 S    
C215  H50   1.110375 S    
C239  H105  1.110246 S    
C293  H233  1.111137 S    
C89   N25   1.440065 S    
C166  C186  1.439991 A    
C28   C50   1.396834 A    
N4    O56   1.302038 A    
C17   C43   1.406082 A    
O3    C3    1.288138 A    
C201  H17   1.109510 S    
C126  C142  1.401606 A    
C104  C120  1.375095 A    
C19   C33   1.419326 A    
C89   C105  1.403426 A    
C140  C156  1.445252 A    
C215  H51   1.110482 S    
C52   C62   1.394866 A    
C154  C182  1.434551 A    
C49   C61   1.401430 A    
C98   C114  1.370157 A    
C307  C308  1.524481 S    
N18   O116  1.298689 A    
C54   C64   1.401564 A    
C312  H276  1.108961 S    
C243  H115  1.110275 S    
C294  C295  1.527697 S    
C225  H74   1.114792 S    
C246  H123  1.114021 S    
O40   Zn10  2.038946 S    
C102  C118  1.373847 A    
C289  C290  1.526362 S    
C230  H86   1.109748 S    
C339  H340  1.110290 S    
C301  H250  1.108682 S    
C96   C112  1.401764 A    
N22   O124  1.301836 A    
C296  H238  1.110741 S    
C321  H298  1.110876 S    
C306  H263  1.110457 S    
C249  H130  1.119237 S    
O41   Zn11  2.036687 S    
C25   C37   1.425138 A    
C266  H168  1.110753 S    
C205  H26   1.111809 S    
C319  C320  1.527499 S    
C219  H60   1.111422 S    
C214  C215  1.526127 S    
O17   C9    1.299358 A    
C291  H227  1.108566 S    
C320  H296  1.110217 S    
C125  C141  1.402022 A    
C55   C79   1.401117 A    
C240  H108  1.110999 S    
C22   C48   1.400481 A    
C279  C280  1.529123 S    
O10   C6    1.284586 A    
C217  H55   1.110927 S    
C325  H306  1.108949 S    
C126  H14   1.081932 S    
C236  H100  1.109540 S    
C252  H137  1.112336 S    
C234  H95   1.119050 S    
C269  H175  1.111096 S    
C242  H113  1.110607 S    
C248  H128  1.108156 S    
C138  C154  1.444744 A    
C6    C190  1.462950 S    
C255  C256  1.530604 S    
C335  H329  1.110455 S    
C114  H2    1.082538 S    
C271  C272  1.526415 S    
C23   N7    1.434261 S    
C305  H259  1.110800 S    
C97   C113  1.371432 A    
C302  H253  1.110032 S    
C87   C103  1.400163 A    
N2    O51   1.299558 A    
C52   C76   1.396878 A    
O109  C285  1.416294 S    
C156  C184  1.435804 A    
C137  C153  1.439640 A    
C100  C116  1.370050 A    
C241  C242  1.525853 S    
C101  C117  1.368789 A    
C265  H166  1.111539 S    
C152  C168  1.409866 A    
C136  C152  1.445387 A    
O26   Zn6   2.039600 S    
C336  C337  1.532128 S    
C56   C64   1.399401 A    
C157  C183  1.429982 A    
C286  H215  1.110253 S    
C228  C229  1.526427 S    
C223  H69   1.107059 S    
C65   C78   1.419199 A    
C136  O152  1.386903 S    
N8    O63   1.299732 A    
N24   O128  1.299067 A    
C218  H56   1.110847 S    
O27   C13   1.294799 A    
C243  C244  1.542773 S    
O35   C195  1.286031 A    
C67   C80   1.416664 A    
C204  C205  1.532097 S    
O145  C297  1.429901 S    
C231  H87   1.111278 S    
C78   O94   1.390941 S    
C264  C265  1.527909 S    
C25   C51   1.411944 A    
C41   C65   1.413936 A    
C227  H77   1.110777 S    
C317  H289  1.110797 S    
C80   O96   1.390998 S    
C273  H185  1.106734 S    
C227  H79   1.108847 S    
C15   C34   1.474156 S    
C205  H27   1.108759 S    
O82   C204  1.411998 S    
C29   C55   1.396199 A    
C144  O160  1.387486 S    
C330  C331  1.536346 S    
C26   C52   1.396773 A    
C290  H224  1.111344 S    
C327  C328  1.532521 S    
C31   C53   1.412015 A    
C83   C163  1.436631 A    
C81   N17   1.425972 S    
C267  C268  1.528379 S    
C69   O85   1.389327 S    
C299  H247  1.108920 S    
C73   O89   1.391773 S    
C284  H211  1.110462 S    
C81   C161  1.436544 A    
C262  H160  1.110251 S    
C139  O155  1.388281 S    
C212  H42   1.110823 S    
C317  H288  1.109457 S    
O9    C5    1.292652 A    
N5    O58   1.300484 A    
C105  C121  1.395452 A    
C239  H107  1.108213 S    
C77   O93   1.386997 S    
C340  H342  1.111311 S    
O11   C7    1.292626 A    
C207  H31   1.110110 S    
O19   Zn3   2.038714 S    
C116  C132  1.390461 A    
C280  C281  1.526910 S    
C282  C283  1.532961 S    
C270  H178  1.109129 S    
C50   C74   1.396616 A    
C308  H267  1.110048 S    
C245  H119  1.110764 S    
O16   Zn6   2.036597 S    
C282  H206  1.110823 S    
C326  H308  1.111009 S    
C156  C172  1.406298 A    
C82   C162  1.436081 A    
C244  C245  1.525783 S    
C47   C71   1.434412 A    
O106  C276  1.418339 S    
N21   O121  1.294983 A    
C312  C313  1.533669 S    
C294  H234  1.117550 S    
O100  C258  1.415685 S    
N28   O136  1.299368 A    
C88   C168  1.437381 A    
C248  H127  1.110676 S    
C276  H192  1.110261 S    
C237  H102  1.118318 S    
C301  C302  1.525581 S    
C7    C191  1.466307 S    
C149  C179  1.427294 A    
O15   Zn7   2.040012 S    
O86   C216  1.421101 S    
C344  H351  1.110231 S    
C256  C257  1.526540 S    
C235  H97   1.108810 S    
N15   O78   1.301435 A    
C158  C174  1.413459 A    
N17   O113  1.299741 A    
C316  H286  1.111272 S    
C179  C194  1.425477 S    
C30   C56   1.399418 A    
C208  H33   1.106557 S    
C27   C37   1.416499 A    
C275  H191  1.110632 S    
C105  O111  1.395532 S    
C141  C157  1.443419 A    
C287  H217  1.110981 S    
C53   C63   1.399696 A    
C337  H335  1.110981 S    
C213  H45   1.108559 S    
C324  H304  1.106967 S    
C208  C209  1.524293 S    
C230  H85   1.110851 S    
O21   Zn1   2.038707 S    
C238  H103  1.110010 S    
C146  C178  1.426355 A    
C114  C130  1.394498 A    
O48   Zn12  2.038946 S    
O23   C11   1.298379 A    
C325  C326  1.525611 S    
C159  C175  1.409526 A    
C325  H307  1.111017 S    
C318  H291  1.108326 S    
C135  O151  1.384183 S    
C257  H147  1.111217 S    
N4    O55   1.297666 A    
O37   Zn10  2.039982 S    
C232  H90   1.110460 S    
C310  H271  1.109402 S    
C111  C127  1.393884 A    
C324  H305  1.106848 S    
C235  C236  1.526098 S    
C211  H40   1.106666 S    
C110  C126  1.382846 A    
C335  H331  1.109299 S    
C83   C99   1.400767 A    
C112  O108  1.394050 S    
O13   C7    1.293624 A    
C245  H121  1.110131 S    
C151  C177  1.425324 A    
O149  C309  1.427485 S    
O33   C193  1.284756 A    
N25   O130  1.299942 A    
C3    C187  1.474208 S    
C50   C62   1.395360 A    
C21   C47   1.402607 A    
C31   N15   1.439283 S    
C277  H195  1.110466 S    
C100  O104  1.387104 S    
C265  C266  1.527284 S    
C244  H117  1.108178 S    
C85   C101  1.398671 A    
C311  H273  1.111132 S    
O7    C1    1.302693 A    
O95   C243  1.420260 S    
C288  C289  1.528175 S    
C269  H176  1.110181 S    
C123  H11   1.081754 S    
O26   C14   1.297039 A    
C132  O148  1.385510 S    
O29   C15   1.296523 A    
O45   C197  1.288892 A    
C295  C296  1.526304 S    
C231  C232  1.525818 S    
C213  C214  1.532039 S    
O29   Zn5   2.038707 S    
C177  C196  1.425990 S    
N10   O68   1.301806 A    
C326  H310  1.110408 S    
C138  O154  1.392070 S    
C10   C39   1.483970 S    
C334  H328  1.111186 S    
N1    O49   1.300029 A    
C202  H20   1.111567 S    
N25   O129  1.301725 A    
C53   C77   1.412490 A    
C51   C61   1.402814 A    
C253  C254  1.525912 S    
C153  C169  1.408912 A    
O37   C193  1.285365 A    
C279  H200  1.118615 S    
C14   C35   1.475316 S    
C226  H76   1.111190 S    
C90   N26   1.444229 S    
C300  H248  1.106441 S    
C341  H344  1.110064 S    
C332  H323  1.110352 S    
C24   C36   1.417677 A    
C247  H125  1.111399 S    
C250  H132  1.109343 S    
C237  H101  1.111271 S    
O39   Zn10  2.036691 S    
C108  C124  1.393125 A    
C29   N13   1.443239 S    
C314  H282  1.110735 S    
C109  C125  1.382856 A    
C241  H110  1.110193 S    
C304  H258  1.111103 S    
C212  H44   1.108784 S    
C328  H314  1.110960 S    
O156  C330  1.430958 S    
C327  H311  1.108748 S    
C342  C343  1.532214 S    
C104  O100  1.385689 S    
C74   O90   1.387396 S    
C46   C70   1.411383 A    
C25   N9    1.440888 S    
C148  C164  1.414720 A    
C207  C208  1.531266 S    
C22   N6    1.444249 S    
C330  H318  1.107312 S    
C266  H169  1.110309 S    
N26   O132  1.299400 A    
C309  H270  1.111260 S    
C133  O149  1.384755 S    
C260  H154  1.111045 S    
C45   C59   1.419807 A    
C154  C170  1.405198 A    
C230  H84   1.110837 S    
C99   C115  1.370432 A    
O147  C303  1.430284 S    
C322  C323  1.525926 S    
C142  O158  1.387640 S    
C92   N28   1.444082 S    
N5    O57   1.302033 A    
C280  H202  1.110416 S    
C151  C167  1.411184 A    
C224  H72   1.110667 S    
C128  C144  1.402944 A    
C271  H180  1.111492 S    
C69   C74   1.410427 A    
C108  O112  1.389549 S    
O90   C228  1.425973 S    
N30   O140  1.298402 A    
C322  H299  1.109071 S    
C331  H321  1.111108 S    
N11   O69   1.300693 A    
C206  H29   1.109886 S    
C123  C139  1.401652 A    
C338  H338  1.109900 S    
C293  H232  1.110417 S    
C29   C39   1.415481 A    
C309  C310  1.536301 S    
O41   C197  1.287278 A    
C285  H214  1.112022 S    
C287  H219  1.110271 S    
C210  H38   1.110022 S    
O43   C199  1.289370 A    
C229  H82   1.111589 S    
C18   C34   1.420315 A    
C134  O150  1.384296 S    
O88   C222  1.411401 S    
C238  C239  1.524829 S    
C254  H141  1.110255 S    
O93   C237  1.425152 S    
C19   N3    1.446585 S    
O148  C306  1.428130 S    
C263  H161  1.110857 S    
C268  C269  1.527172 S    
O48   C198  1.285658 A    
C133  C149  1.447802 A    
C269  H177  1.111205 S    
C291  C292  1.533151 S    
C121  H9    1.079968 S    
C315  C316  1.536563 S    
C255  H144  1.119213 S    
C72   O88   1.395761 S    
C243  H116  1.110412 S    
C310  C311  1.525835 S    
C306  H262  1.107204 S    
C323  H303  1.110792 S    
C94   N30   1.432843 S    
C298  H244  1.111061 S    
C331  C332  1.525596 S    
C129  O145  1.387164 S    
O12   C8    1.285946 A    
O32   Zn6   2.041199 S    
C4    C188  1.469036 S    
C270  C271  1.531253 S    
O6    Zn4   2.036592 S    
O14   C6    1.300391 A    
C253  H138  1.111709 S    
C227  H78   1.110109 S    
C224  H70   1.110041 S    
C32   C54   1.404996 A    
C32   C40   1.422210 A    
C125  H13   1.081878 S    
C107  C123  1.389214 A    
C284  H210  1.111043 S    
C168  C188  1.434062 A    
C319  H293  1.110799 S    
C86   N22   1.427001 S    
C54   C78   1.409211 A    
C333  H325  1.108326 S    
O39   C195  1.283941 A    
C116  H4    1.080790 S    
C311  H275  1.110910 S    
C297  H242  1.110539 S    
C153  C181  1.429948 A    
O158  C336  1.430036 S    
C160  C176  1.410490 A    
C267  H172  1.118860 S    
C210  C211  1.533037 S    
C221  H64   1.110294 S    
C258  H151  1.112831 S    
C109  O107  1.384991 S    
C122  C138  1.410946 A    
O46   C200  1.287005 A    
O30   Zn8   2.039622 S    
O94   C240  1.422115 S    
C239  H106  1.110491 S    
C209  H35   1.110802 S    
C220  H62   1.109827 S    
C302  H252  1.110572 S    
N31   O142  1.300321 A    
C271  H181  1.109423 S    
C233  H91   1.110682 S    
C180  C195  1.427446 S    
C211  C212  1.524283 S    
C23   C45   1.401758 A    
C103  O97   1.386075 S    
C251  H133  1.110928 S    
C281  H205  1.111087 S    
N9    O66   1.301441 A    
C295  H237  1.111277 S    
O89   C225  1.421959 S    
C97   O103  1.384537 S    
C294  H235  1.112112 S    
C257  H149  1.110847 S    
C42   C58   1.404746 A    
C304  H257  1.109659 S    
C203  H23   1.111066 S    
C30   N14   1.443373 S    
N19   O117  1.299757 A    
C71   O87   1.388917 S    
C226  C227  1.525835 S    
N20   O120  1.301830 A    
C301  H251  1.110582 S    
C283  H208  1.111587 S    
C342  H346  1.109335 S    
C162  C186  1.435138 A    
O45   Zn12  2.039982 S    
C131  O147  1.387293 S    
O153  C321  1.428216 S    
C323  H301  1.110936 S    
C11   C38   1.473082 S    
C106  C122  1.392852 A    
C26   N10   1.436545 S    
C259  H152  1.110436 S    
C334  H327  1.108853 S    
C171  C191  1.421891 A    
C13   C36   1.472508 S    
C275  H190  1.110417 S    
O85   C213  1.416586 S    
C260  H156  1.109985 S    
C45   C69   1.434066 A    
C214  H48   1.108954 S    
C220  C221  1.526261 S    
C84   N20   1.424148 S    
C98   O102  1.384746 S    
C58   C63   1.382813 A    
C147  C163  1.411410 A    
N32   O143  1.301834 A    
N14   O76   1.301863 A    
C261  H157  1.109025 S    
C320  H294  1.111170 S    
C145  C161  1.412091 A    
C236  H99   1.110865 S    
C76   O92   1.387575 S    
C339  H339  1.109106 S    
O22   Zn4   2.039622 S    
C44   C58   1.411417 A    
C296  H239  1.110917 S    
C247  H124  1.110467 S    
C182  C197  1.437491 S    
O36   C196  1.287151 A    
O31   Zn7   2.042007 S    
C278  H196  1.111108 S    
C149  C165  1.413177 A    
C313  H278  1.110303 S    
C335  H330  1.110107 S    
C305  H260  1.109698 S    
O151  C315  1.426878 S    
C205  C206  1.525238 S    
O43   Zn11  2.039975 S    
C71   C76   1.410421 A    
C122  H10   1.080567 S    
C46   C60   1.408567 A    
O13   Zn5   2.040014 S    
O97   C249  1.421125 S    
C124  C140  1.410306 A    
C229  C230  1.526640 S    
C265  H167  1.111372 S    
N16   O79   1.300575 A    
C268  H173  1.111466 S    
C336  H333  1.109817 S    
O21   C11   1.297542 A    
C228  H81   1.119070 S    
C68   C79   1.416877 A    
O22   C12   1.298267 A    
N8    O64   1.301842 A    
C67   O83   1.390312 S    
C150  C178  1.428256 A    
C31   C39   1.424770 A    
O47   C199  1.287177 A    
C204  H25   1.103972 S    
C231  H88   1.118132 S    
C226  H75   1.111121 S    
N12   O72   1.301833 A    
C106  O110  1.389076 S    
C148  C180  1.427985 A    
C28   C38   1.413955 A    
C26   C38   1.413607 A    
C216  H53   1.112106 S    
C278  H198  1.111118 S    
C305  H261  1.109128 S    
C329  H315  1.110488 S    
C272  H183  1.110437 S    
C30   C40   1.419199 A    
C234  H94   1.107763 S    
O87   C219  1.416748 S    
C222  C223  1.531096 S    
C82   C98   1.399913 A    
N7    O62   1.300856 A    
C284  H212  1.110885 S    
O23   Zn3   2.042007 S    
O83   C207  1.421791 S    
C330  H319  1.106925 S    
O3    Zn3   2.037957 S    
C107  O109  1.391182 S    
C118  C134  1.392963 A    
C27   N11   1.443582 S    
C343  C344  1.525885 S    
C218  H57   1.110220 S    
C307  H264  1.108664 S    
C81   C97   1.401613 A    
C86   C102  1.398936 A    
C75   O91   1.387089 S    
C263  H162  1.110351 S    
C224  H71   1.110596 S    
O44   C200  1.287342 A    
C232  H89   1.110259 S    
C262  H159  1.111467 S    
O28   Zn8   2.041211 S    
C89   C169  1.428609 A    
C308  H268  1.110505 S    
C283  H209  1.110096 S    
C321  C322  1.533437 S    
C49   C73   1.406222 A    
O99   C255  1.420595 S    
C5    C189  1.464081 S    
C292  C293  1.525650 S    
C207  H32   1.111428 S    
C320  H295  1.110202 S    
C113  H1    1.083222 S    
C282  H207  1.115719 S    
C275  H189  1.111044 S    
C245  H120  1.110292 S    
O34   C194  1.285203 A    
O112  C294  1.416910 S    
C48   C60   1.403447 A    
C181  C200  1.435564 S    
C145  C177  1.426675 A    
C134  C150  1.444400 A    
C251  H135  1.110818 S    
C140  O156  1.392161 S    
C291  H228  1.115198 S    
N18   O115  1.299586 A    
C244  H118  1.111513 S    
O4    Zn4   2.038652 S    
C303  H255  1.108714 S    
C312  H277  1.110229 S    
C66   C77   1.424111 A    
C85   N21   1.419859 S    
C225  H73   1.111278 S    
C246  C247  1.531146 S    
N27   O133  1.301717 A    
C329  H317  1.109954 S    
O9    Zn5   2.037956 S    
C112  C128  1.393308 A    
N17   O114  1.299267 A    
C124  H12   1.080614 S    
N7    O61   1.302134 A    
O11   Zn7   2.037957 S    
O102  C264  1.420551 S    
C281  H204  1.110471 S    
C95   N31   1.440720 S    
C344  H350  1.110408 S    
C306  C307  1.535471 S    
N24   O127  1.300068 A    
C256  H146  1.109456 S    
N12   O71   1.301681 A    
C314  H281  1.110398 S    
O42   Zn11  2.040544 S    
O1    C1    1.289160 A    
C16   C33   1.477001 S    
C84   C100  1.398829 A    
C323  H302  1.110139 S    
N9    O65   1.300274 A    
C19   C41   1.404746 A    
C241  H111  1.111382 S    
C219  H59   1.108191 S    
C85   C165  1.442893 A    
C287  H218  1.110196 S    
C213  H46   1.111642 S    
C220  H61   1.111638 S    
C278  H197  1.110549 S    
C103  C119  1.370143 A    
C144  C160  1.442617 A    
O5    C3    1.303739 A    
C94   C174  1.425085 A    
C8    C192  1.462047 S    
C266  H170  1.111197 S    
N23   O126  1.301729 A    
C234  C235  1.526268 S    
O7    Zn3   2.040012 S    
C328  H313  1.108654 S    
C68   O84   1.390028 S    
N26   O131  1.301423 A    
C184  C199  1.438247 S    
O28   C14   1.298466 A    
C28   N12   1.436553 S    
C273  C274  1.532352 S    
N13   O73   1.301147 A    
C308  H266  1.110481 S    
O15   C5    1.292697 A    
C211  H41   1.110914 S    
C285  C286  1.527849 S    
C313  C314  1.525645 S    
C95   C111  1.404604 A    
C277  H194  1.111550 S    
C44   C68   1.418056 A    
C51   C75   1.415739 A    
C165  C187  1.444721 A    
C302  H254  1.110494 S    
C273  H186  1.115489 S    
O18   C10   1.304065 A    
C141  O157  1.388511 S    
O81   C201  1.420464 S    
O42   C198  1.287875 A    
O17   Zn1   2.041998 S    
O5    Zn1   2.040014 S    
C57   C64   1.384007 A    
N13   O74   1.301925 A    
N15   O77   1.299934 A    
C48   C72   1.411684 A    
C268  H174  1.110754 S    
C59   C62   1.384233 A    
O150  C312  1.427029 S    
C311  H274  1.110137 S    
C43   C57   1.406194 A    
C338  H336  1.110129 S    
C113  C129  1.393893 A    
C280  H201  1.111530 S    
C288  H221  1.112558 S    
C119  H7    1.081364 S    
C223  H68   1.111880 S    
N14   O75   1.300640 A    
C143  O159  1.387720 S    
O160  C342  1.429055 S    
C299  H246  1.109516 S    
N32   O144  1.298986 A    
C117  C133  1.391035 A    
C249  C250  1.531187 S    
C17   N1    1.445630 S    
O111  C291  1.417244 S    
O14   Zn8   2.036592 S    
C206  H28   1.109274 S    
C326  H309  1.110255 S    
O92   C234  1.425979 S    
C110  O106  1.386251 S    
O2    C2    1.290625 A    
O25   Zn5   2.041998 S    
C290  H225  1.111087 S    
C202  H19   1.105789 S    
C222  H66   1.108446 S    
C92   C172  1.420594 A    
C286  C287  1.527043 S    
N23   O125  1.295708 A    
C217  H54   1.107900 S    
C242  H114  1.108557 S    
C274  H187  1.111594 S    
C254  H140  1.110903 S    
C147  C179  1.426971 A    
C332  H322  1.110970 S    
C21   C35   1.419603 A    
C247  C248  1.525639 S    
C250  H131  1.111449 S    
O8    C4    1.289185 A    
C23   C35   1.420275 A    
C84   C164  1.445890 A    
C88   N24   1.428216 S    
N6    O59   1.298196 A    
C158  C182  1.436676 A    
N2    O52   1.301835 A    
C216  H52   1.109084 S    
C248  H126  1.110816 S    
C262  C263  1.526701 S    
C212  H43   1.110322 S    
C135  C151  1.444527 A    
C317  H287  1.110816 S    
C342  H347  1.110292 S    
C343  H349  1.110408 S    
C17   C33   1.421003 A    
C256  H145  1.111497 S    
C94   C110  1.400783 A    
C27   C49   1.397079 A    
C178  C193  1.427528 S    
O154  C324  1.430251 S    
C252  H136  1.115661 S    
O34   Zn9   2.040544 S    
C20   C34   1.415288 A    
C315  H283  1.107867 S    
N20   O119  1.296208 A    
C60   C61   1.384343 A    
C222  H67   1.104190 S    
C176  C192  1.417542 A    
C341  H343  1.110881 S    
C20   C42   1.399956 A    
C167  C185  1.443187 A    
C95   C175  1.430087 A    
C20   N4    1.444122 S    
O110  C288  1.416963 S    
C322  H300  1.111320 S    
C237  C238  1.526906 S    
O1    Zn1   2.037956 S    
C258  H150  1.114759 S    
N28   O135  1.301269 A    
C159  C181  1.429568 A    
C276  H193  1.118062 S    
C2    C186  1.469251 S    
O36   Zn9   2.038956 S    
C257  H148  1.110366 S    
C344  H352  1.110307 S    
C120  H8    1.083843 S    
C42   C66   1.414775 A    
O104  C270  1.421017 S    
C315  H284  1.110161 S    
O16   C8    1.298301 A    
C119  C135  1.391353 A    
O98   C252  1.414795 S    
C316  C317  1.525502 S    
C338  H337  1.110380 S    
C221  H65   1.110803 S    
C130  C146  1.448222 A    
O84   C210  1.421408 S    
C1    C185  1.474021 S    
C201  C202  1.541180 S    
C219  C220  1.531545 S    
C203  H21   1.110698 S    
C292  H229  1.111574 S    
C137  O153  1.387144 S    
C337  H334  1.108001 S    
C229  H83   1.109048 S    
C264  H165  1.118471 S    
C47   C59   1.420551 A    
C238  H104  1.109701 S    
C253  H139  1.111680 S    
C32   N16   1.442914 S    
O6    C2    1.300062 A    
C276  C277  1.529482 S    
C24   C46   1.407230 A    
C82   N18   1.424350 S    
C55   C63   1.396244 A    
O27   Zn7   2.038714 S    
C160  C184  1.435894 A    
C318  C319  1.531285 S    
C93   C109  1.401537 A    
C183  C198  1.433576 S    
N11   O70   1.301958 A    
N29   O138  1.299020 A    
C232  C233  1.525720 S    
C242  H112  1.110841 S    
C310  H272  1.111283 S    
C297  H241  1.109251 S    
C324  C325  1.535889 S    
N21   O122  1.301811 A    
C298  H243  1.109237 S    
N6    O60   1.302029 A    
C223  C224  1.525148 S    
C277  C278  1.526904 S    
C143  C159  1.439632 A    
C270  H179  1.119239 S    
C341  H345  1.110329 S    
C93   N29   1.435597 S    
C155  C171  1.409914 A    
C208  H34   1.111132 S    
C18   C44   1.410406 A    
C216  C217  1.530603 S    
C66   O82   1.395575 S    
C88   C104  1.401932 A    
O19   C9    1.298389 A    
C333  H326  1.109302 S    
O107  C279  1.418819 S    
C115  H3    1.082584 S    
C246  H122  1.110896 S    
C340  C341  1.525883 S    
C65   O81   1.389446 S    
O101  C261  1.420799 S    
O24   C12   1.302911 A    
C210  H39   1.110761 S    
C169  C189  1.422227 A    
C255  H143  1.110632 S    
C91   C107  1.402673 A    
C70   C73   1.415313 A    
O24   Zn2   2.041199 S    
O12   Zn8   2.038652 S    
C91   C171  1.427971 A    
C130  O146  1.387381 S    
C101  O99   1.386078 S    
C313  H279  1.111378 S    
N10   O67   1.301575 A    
C128  H16   1.080133 S    
C118  H6    1.083574 S    
O47   Zn12  2.036691 S    
C334  C335  1.526462 S    
C209  H36   1.110035 S    
N1    O50   1.301876 A    
O2    Zn2   2.038653 S    
C24   N8    1.445716 S    
C202  C203  1.524887 S    
O33   Zn9   2.036687 S    
C90   C170  1.420350 A    
C164  C188  1.442960 A    
C152  C180  1.424947 A    
C127  H15   1.080359 S    
C233  H92   1.110077 S    
C217  C218  1.524893 S    
C303  H256  1.109934 S    
N3    O53   1.299758 A    
C274  C275  1.526109 S    
C102  O98   1.385480 S    
C215  H49   1.110438 S    
C333  C334  1.532044 S    
C251  H134  1.110458 S    
C295  H236  1.110773 S    
C332  H324  1.110346 S    
C117  H5    1.081659 S    
O155  C327  1.429687 S    
O40   C194  1.283981 A    
C321  H297  1.109329 S    
C339  C340  1.533441 S    
C250  C251  1.526580 S    
C127  C143  1.399933 A    
C22   C36   1.416573 A    
O159  C339  1.429129 S    
C70   O86   1.389348 S    
C175  C189  1.422133 A    
C92   C108  1.400386 A    
O30   C16   1.298241 A    
C120  C136  1.395482 A    
C56   C80   1.405199 A    
C91   N27   1.436401 S    
O35   Zn9   2.039975 S    
C18   N2    1.445471 S    
C289  H222  1.111001 S    
C297  C298  1.533466 S    
C173  C191  1.421925 A    
C328  C329  1.526014 S    
C201  H18   1.109519 S    
N31   O141  1.301728 A    
C300  H249  1.109580 S    
O4    C4    1.301479 A    
C286  H216  1.111593 S    
C209  H37   1.109027 S    
O46   Zn12  2.040542 S    
C259  H153  1.111590 S    
C303  C304  1.533514 S    
C131  C147  1.448213 A    
C252  C253  1.527146 S    
C93   C173  1.427485 A    
C240  H109  1.113458 S    
C233  H93   1.110482 S    
C309  H269  1.108642 S    
O157  C333  1.429901 S    
C129  C145  1.447952 A    
C260  H155  1.110344 S    
C214  H47   1.111383 S    
C86   C166  1.444179 A    
C155  C183  1.431448 A    
O20   Zn4   2.041211 S    
C288  H220  1.118091 S    
C41   C57   1.403636 A    
C132  C148  1.445561 A    
C79   O95   1.390185 S    
C21   N5    1.433746 S    
O20   C10   1.297799 A    
C279  H199  1.110321 S    
C272  H184  1.111009 S    
C289  H223  1.112163 S    
C43   C67   1.414177 A    
C235  H96   1.111543 S    
C304  C305  1.525763 S    
C261  H158  1.118811 S    
C72   C75   1.423782 A    
C236  H98   1.110740 S    
O10   Zn6   2.038653 S    
C83   N19   1.425888 S    
C170  C190  1.407390 A    
C283  C284  1.525917 S    
O91   C231  1.424474 S    
C115  C131  1.394346 A    
C203  H22   1.110316 S    
N30   O139  1.301639 A    
C259  C260  1.526924 S    
C327  H312  1.109648 S    
C331  H320  1.108552 S    
O96   C246  1.421630 S    
C206  H30   1.110234 S    
C316  H285  1.107217 S    
C221  H63   1.109944 S    
C9    C40   1.478225 S    
C142  C158  1.445456 A    
N27   O134  1.298907 A    
C285  H213  1.116714 S    
C96   N32   1.436129 S    
C121  C137  1.401144 A    
C293  H231  1.110902 S    
C337  C338  1.526053 S    
C111  O105  1.393812 S    
N3    O54   1.301922 A    
C96   C176  1.423378 A    
C174  C190  1.420258 A    
