data_mof_unit_7694.cif
_audit_creation_date              2012-12-10T19:58:56-0500
_audit_creation_method            fapswitch 2.2
_symmetry_space_group_name_H-M    P1
_symmetry_Int_Tables_number       1
_space_group_crystal_system       triclinic
_cell_length_a                    18.400953
_cell_length_b                    18.467043
_cell_length_c                    22.344691
_cell_angle_alpha                 90.017746
_cell_angle_beta                  90.082461
_cell_angle_gamma                 90.388057
_cell_volume                      7592.79364321

loop_
_atom_site_label
_atom_site_type_symbol
_atom_type_description
_atom_site_fract_x
_atom_site_fract_y
_atom_site_fract_z
_atom_type_partial_charge
C1    C     C_R   0.499994 0.999992 0.340167 0.827651
C2    C     C_R   0.861459 0.641608 0.498297 0.783754
C3    C     C_2   0.623725 0.265420 0.374359 0.429224
C4    C     C_2   0.260689 0.629162 0.368339 0.499493
C5    C     C_2   0.575598 0.687401 0.445399 0.484675
C6    C     C_2   0.736842 0.371529 0.369436 0.493149
C7    C     C_2   0.423116 0.312236 0.442022 0.482094
C8    C     C_2   0.188574 0.079251 0.943272 0.503577
C9    C     C_2   0.879672 0.229951 0.876441 0.413799
C10   C     C_2   0.785197 0.892611 0.890289 0.475630
C11   C     C_2   0.126627 0.763444 0.872410 0.463051
C12   C     C_2   0.766312 0.123341 0.870697 0.527870
C13   C     C_R   0.361157 0.859134 0.501216 0.779479
C14   C     C_2   0.077004 0.187133 0.941892 0.472907
C15   C     C_2   0.240947 0.868599 0.866687 0.495861
C16   C     C_2   0.891728 0.780487 0.884034 0.513426
C17   C     C_3   0.752828 0.637957 0.357376 -0.402232
C18   C     C_3   0.725306 0.575236 0.317929 -0.304995
C19   C     C_3   0.760919 0.576378 0.256346 -0.851302
C20   C     C_3   0.284658 0.840556 0.358809 -0.442271
C21   C     C_3   0.323485 0.854661 0.298857 -0.282378
C22   C     C_3   0.300763 0.926864 0.271668 -0.837403
C23   C     C_3   0.242891 0.359146 0.356270 -0.415935
C24   C     C_R   0.138479 0.358363 0.498300 0.785593
C25   C     C_3   0.267623 0.421794 0.315568 -0.320294
C26   C     C_3   0.228063 0.420058 0.255468 -0.790116
C27   C     C_3   0.713881 0.160069 0.358617 -0.442296
C28   C     C_3   0.673838 0.145839 0.299141 -0.279191
C29   C     C_3   0.696530 0.073908 0.271452 -0.837090
C30   C     C_3   0.160226 0.723040 0.359281 -0.520037
C31   C     C_3   0.158093 0.724755 0.290527 -0.302353
C32   C     C_3   0.082995 0.746070 0.267794 -0.823811
C33   C     C_3   0.634527 0.756399 0.358911 -0.486165
C34   C     C_3   0.599183 0.716002 0.305884 -0.352220
C35   C     C_R   0.358347 0.138312 0.498351 0.841786
C36   C     C_3   0.555761 0.767526 0.266202 -0.693838
C37   C     C_3   0.837615 0.278344 0.358417 -0.519914
C38   C     C_3   0.838278 0.277179 0.289637 -0.293658
C39   C     C_3   0.912923 0.256155 0.265892 -0.842651
C40   C     C_3   0.362285 0.241368 0.357384 -0.486040
C41   C     C_3   0.395225 0.281266 0.303146 -0.357040
C42   C     C_3   0.436606 0.229413 0.262390 -0.711704
C43   C     C_3   0.257243 0.141117 0.856213 -0.419466
C44   C     C_3   0.233044 0.078218 0.815461 -0.314211
C45   C     C_3   0.272554 0.080268 0.755437 -0.788970
C46   C     C_R   0.140705 0.639215 0.500921 0.784804
C47   C     C_3   0.789514 0.334646 0.858143 -0.433513
C48   C     C_3   0.830468 0.347869 0.799034 -0.273981
C49   C     C_3   0.809783 0.420401 0.771398 -0.852732
C50   C     C_3   0.683936 0.806884 0.852505 -0.433427
C51   C     C_3   0.686382 0.847484 0.792256 -0.261776
C52   C     C_3   0.621717 0.827419 0.752649 -0.882808
C53   C     C_3   0.216318 0.657150 0.859254 -0.443108
C54   C     C_3   0.176819 0.641645 0.799721 -0.274166
C55   C     C_3   0.199878 0.569235 0.773121 -0.843425
C56   C     C_3   0.665809 0.216816 0.858859 -0.519167
C57   C     C_R   0.641547 0.861541 0.498557 0.842433
C58   C     C_3   0.665230 0.216985 0.790088 -0.292787
C59   C     C_3   0.590779 0.238386 0.765972 -0.836215
C60   C     C_3   0.137241 0.258344 0.857382 -0.488159
C61   C     C_3   0.104438 0.218272 0.803085 -0.352089
C62   C     C_3   0.063284 0.270030 0.762028 -0.709271
C63   C     C_3   0.340824 0.774047 0.859585 -0.513858
C64   C     C_3   0.342876 0.772128 0.790833 -0.299800
C65   C     C_3   0.413551 0.739310 0.768246 -0.834969
C66   C     C_3   0.799627 0.683273 0.853161 -0.486927
C67   C     C_3   0.803236 0.692854 0.784729 -0.320227
C68   C     C_R   0.859281 0.360774 0.500885 0.786742
C69   C     C_3   0.814934 0.620555 0.753176 -0.843723
C70   C     C_2   0.784269 0.893239 0.555891 0.516542
C71   C     C_2   0.199410 0.688664 0.617453 0.465736
C72   C     C_2   0.215185 0.105823 0.554363 0.503612
C73   C     C_2   0.802119 0.310081 0.617486 0.459254
C74   C     C_2   0.302463 0.811361 0.617324 0.521710
C75   C     C_2   0.894933 0.784461 0.553791 0.497291
C76   C     C_2   0.700292 0.186711 0.617148 0.528274
C77   C     C_2   0.105663 0.215893 0.554608 0.504142
C78   C     C_2   0.284800 0.394020 0.054738 0.501644
C79   C     C_R   0.138941 0.640793 0.001187 0.770513
C80   C     C_2   0.695359 0.192917 0.117743 0.466183
C81   C     C_2   0.793545 0.682223 0.115706 0.473920
C82   C     C_2   0.299770 0.812599 0.117289 0.456844
C83   C     C_2   0.798858 0.314629 0.117200 0.511501
C84   C     C_2   0.394415 0.284051 0.054877 0.501057
C85   C     C_2   0.197941 0.688879 0.117229 0.522069
C86   C     C_2   0.677450 0.788675 0.115358 0.511023
C87   C     C_R   0.361512 0.141648 0.998287 0.786599
C88   C     C_R   0.861199 0.359035 0.001273 0.786254
C89   C     C_R   0.999967 0.500004 0.340119 0.820785
C90   C     C_R   0.641015 0.861033 0.001124 0.777065
C91   C     C_R   0.860554 0.640577 0.000789 0.807261
C92   C     C_R   0.640817 0.139076 0.001029 0.787086
C93   C     C_R   0.141653 0.361647 0.998397 0.842923
C94   C     C_R   0.359302 0.860766 0.000846 0.791007
C95   C     C_R   0.696757 0.749310 0.459220 0.083559
C96   C     C_R   0.234358 0.714446 0.452759 0.080346
C97   C     C_R   0.302566 0.250234 0.458554 0.083251
C98   C     C_R   0.765240 0.285593 0.452784 0.080441
C99   C     C_R   0.287073 0.765201 0.453021 -0.067681
C100  C     C_R   0.000034 0.499983 0.840167 0.822662
C101  C     C_R   0.748521 0.697748 0.458711 -0.078876
C102  C     C_R   0.712588 0.234792 0.453127 -0.066974
C103  C     C_R   0.250829 0.301831 0.458253 -0.081944
C104  C     C_R   0.197322 0.249668 0.958600 0.084209
C105  C     C_R   0.737742 0.210782 0.953645 0.083995
C106  C     C_R   0.792482 0.741025 0.954380 0.080547
C107  C     C_R   0.266196 0.784767 0.952510 0.085249
C108  C     C_R   0.790031 0.262013 0.953850 -0.066603
C109  C     C_R   0.249133 0.198158 0.958246 -0.083025
C110  C     C_R   0.213539 0.733936 0.952804 -0.065697
C111  C     C_R   0.499968 0.999958 0.840119 0.818596
C112  C     C_R   0.741411 0.793128 0.954656 -0.068423
C113  C     C_R   0.702023 0.811053 0.494760 -0.153883
C114  C     C_R   0.198830 0.692407 0.504493 -0.144625
C115  C     C_R   0.297696 0.188648 0.494308 -0.158216
C116  C     C_R   0.801266 0.307483 0.504433 -0.143562
C117  C     C_R   0.308805 0.800514 0.504907 -0.169381
C118  C     C_R   0.810947 0.702300 0.494094 -0.169809
C119  C     C_R   0.691507 0.199168 0.504939 -0.169448
C120  C     C_R   0.188930 0.297595 0.494115 -0.172819
C121  C     C_R   0.202251 0.311261 0.994420 -0.158750
C122  C     C_R   0.500034 0.999957 0.659899 0.837482
C123  C     C_R   0.699368 0.191759 0.004820 -0.148089
C124  C     C_R   0.807091 0.698279 0.004186 -0.144770
C125  C     C_R   0.301231 0.807557 0.004343 -0.146041
C126  C     C_R   0.809173 0.300026 0.005203 -0.172272
C127  C     C_R   0.311079 0.202404 0.994145 -0.173415
C128  C     C_R   0.191487 0.699232 0.004796 -0.169964
C129  C     C_R   0.699527 0.808406 0.004844 -0.177085
C130  C     C_R   0.768516 0.822597 0.526617 -0.102865
C131  C     C_R   0.223493 0.721732 0.560075 -0.037261
C132  C     C_R   0.231359 0.177076 0.526235 -0.095891
C133  C     C_R   0.000009 0.500000 0.659855 0.834750
C134  C     C_R   0.777514 0.277518 0.559982 -0.035134
C135  C     C_R   0.277571 0.777768 0.560167 -0.035709
C136  C     C_R   0.823110 0.768433 0.526030 -0.065719
C137  C     C_R   0.723696 0.221286 0.560070 -0.039592
C138  C     C_R   0.177054 0.231567 0.526219 -0.059362
C139  C     C_R   0.268635 0.322824 0.026441 -0.094776
C140  C     C_R   0.721777 0.223396 0.060155 -0.037919
C141  C     C_R   0.770154 0.715391 0.058408 -0.043788
C142  C     C_R   0.276323 0.778738 0.059959 -0.034663
C143  C     C_R   0.775954 0.279262 0.060211 -0.036885
C144  C     C_R   0.000032 0.500014 0.159897 0.842656
C145  C     C_R   0.322978 0.268378 0.026383 -0.057147
C146  C     C_R   0.222534 0.722437 0.060062 -0.036776
C147  C     C_R   0.715512 0.770050 0.058680 -0.043100
C148  C     C_1   0.999953 0.500015 0.276746 -0.171812
C149  C     C_1   0.499986 0.999984 0.276762 -0.168405
C150  C     C_1   0.499956 0.999944 0.776748 -0.168553
C151  C     C_1   0.000131 0.499940 0.776763 -0.169526
C152  C     C_1   0.500045 0.999938 0.723284 -0.155012
C153  C     C_1   0.000108 0.499971 0.723279 -0.164166
C154  C     C_1   0.000041 0.500019 0.223282 -0.158883
C155  C     C_R   0.500005 0.000005 0.159854 0.829874
C156  C     C_1   0.499990 0.000003 0.223279 -0.168894
C157  C     C_3   0.707867 0.649098 0.415855 -0.012164
C158  C     C_3   0.299000 0.764038 0.386407 0.040621
C159  C     C_3   0.290011 0.349595 0.413958 -0.001267
C160  C     C_3   0.699567 0.236385 0.386655 0.038329
C161  C     C_3   0.235978 0.704592 0.385848 0.008450
C162  C     C_3   0.647093 0.709771 0.416252 0.011876
C163  C     C_3   0.762319 0.296088 0.385972 0.009142
C164  C     C_3   0.350953 0.289051 0.414282 0.013154
C165  C     C_3   0.210091 0.150339 0.913829 -0.000795
C166  C     C_R   0.638906 0.140809 0.501249 0.779694
C167  C     C_3   0.803635 0.258987 0.887473 0.037969
C168  C     C_3   0.754376 0.815950 0.890861 -0.001017
C169  C     C_3   0.201983 0.734157 0.886116 0.010557
C170  C     C_3   0.740967 0.199137 0.886950 -0.011570
C171  C     C_3   0.148966 0.210696 0.914234 0.016563
C172  C     C_3   0.265143 0.793469 0.885489 0.004000
C173  C     C_3   0.813577 0.753648 0.889982 -0.006273
C174  C     C_2   0.686881 0.578914 0.446994 0.505927
C175  C     C_2   0.374504 0.734806 0.373324 0.424543
C176  C     C_2   0.311850 0.420534 0.443548 0.506273
H1    H     H_    0.717785 0.559467 0.485044 0.099279
H2    H     H_    0.920739 0.232321 0.911258 0.112390
H3    H     H_    0.197359 0.615231 0.891352 0.191678
H4    H     H_    0.548575 0.199349 0.781379 0.246395
H5    H     H_    0.576512 0.293688 0.781369 0.258477
H6    H     H_    0.591762 0.238111 0.716300 0.259617
H7    H     H_    0.706108 0.255544 0.772546 0.270658
H8    H     H_    0.678072 0.162184 0.772832 0.237465
H9    H     H_    0.626138 0.174948 0.873843 0.214769
H10   H     H_    0.644852 0.269014 0.876276 0.207465
H11   H     H_    0.016855 0.294605 0.786188 0.255249
H12   H     H_    0.100117 0.313723 0.745861 0.248946
H13   H     H_    0.778219 0.928057 0.928549 0.140182
H14   H     H_    0.041686 0.239854 0.722801 0.291529
H15   H     H_    0.148427 0.193871 0.776244 0.249838
H16   H     H_    0.066592 0.174600 0.817322 0.246263
H17   H     H_    0.099614 0.302518 0.869360 0.251882
H18   H     H_    0.188385 0.286096 0.843788 0.190834
H19   H     H_    0.460854 0.770066 0.786078 0.247013
H20   H     H_    0.417511 0.681856 0.782521 0.259952
H21   H     H_    0.414861 0.741470 0.718591 0.263482
H22   H     H_    0.296970 0.739912 0.772907 0.273732
H23   H     H_    0.338643 0.828022 0.772867 0.228867
H24   H     H_    0.084804 0.764196 0.906557 0.143055
H25   H     H_    0.380755 0.815725 0.874666 0.205547
H26   H     H_    0.360447 0.722113 0.878547 0.212605
H27   H     H_    0.867404 0.596473 0.767198 0.262364
H28   H     H_    0.769813 0.582495 0.763887 0.256294
H29   H     H_    0.816243 0.629065 0.703985 0.270273
H30   H     H_    0.751377 0.714953 0.767988 0.239381
H31   H     H_    0.847831 0.730240 0.771651 0.241614
H32   H     H_    0.841614 0.643417 0.866560 0.226603
H33   H     H_    0.746640 0.658041 0.865292 0.197138
H34   H     H_    0.784120 0.942531 0.529443 0.032526
H35   H     H_    0.773075 0.108729 0.824057 0.108542
H36   H     H_    0.142420 0.679395 0.626869 0.104885
H37   H     H_    0.217397 0.056885 0.527524 0.036893
H38   H     H_    0.859160 0.319478 0.626742 0.100961
H39   H     H_    0.358844 0.827636 0.622889 0.041398
H40   H     H_    0.943827 0.781626 0.526791 0.037506
H41   H     H_    0.644082 0.170311 0.623379 0.041389
H42   H     H_    0.056464 0.217535 0.527794 0.034752
H43   H     H_    0.282650 0.443006 0.027973 0.037117
H44   H     H_    0.637862 0.186686 0.126756 0.102019
H45   H     H_    0.789255 0.624266 0.122559 0.098008
H46   H     H_    0.039344 0.154247 0.916080 0.102557
H47   H     H_    0.356528 0.823335 0.126751 0.097710
H48   H     H_    0.855116 0.330693 0.123886 0.045952
H49   H     H_    0.443575 0.282398 0.028131 0.034627
H50   H     H_    0.141648 0.672384 0.122805 0.040030
H51   H     H_    0.663999 0.844523 0.125260 0.052797
H52   H     H_    0.238907 0.882655 0.819611 0.087158
H53   H     H_    0.913693 0.792757 0.840204 0.103875
H54   H     H_    0.745844 0.626518 0.232162 0.290145
H55   H     H_    0.821010 0.573784 0.260696 0.272475
H56   H     H_    0.741880 0.529000 0.229875 0.264835
H57   H     H_    0.416749 0.736194 0.407203 0.109835
H58   H     H_    0.739206 0.523311 0.339697 0.264760
H59   H     H_    0.665401 0.577110 0.312613 0.248122
H60   H     H_    0.756098 0.688477 0.330904 0.214086
H61   H     H_    0.810079 0.625920 0.368901 0.223549
H62   H     H_    0.241579 0.926467 0.261809 0.281633
H63   H     H_    0.313595 0.971982 0.302931 0.235516
H64   H     H_    0.330862 0.936106 0.229276 0.261835
H65   H     H_    0.383215 0.856608 0.306233 0.232734
H66   H     H_    0.311584 0.810577 0.266536 0.275908
H67   H     H_    0.225930 0.850910 0.353487 0.210833
H68   H     H_    0.282535 0.440589 0.482171 0.101332
H69   H     H_    0.304347 0.882917 0.390276 0.192052
H70   H     H_    0.240449 0.369241 0.231043 0.281569
H71   H     H_    0.168413 0.423828 0.262347 0.253934
H72   H     H_    0.246052 0.466731 0.227748 0.285490
H73   H     H_    0.254966 0.473932 0.337664 0.264238
H74   H     H_    0.327122 0.420112 0.307868 0.252372
H75   H     H_    0.239657 0.308194 0.330338 0.201153
H76   H     H_    0.185815 0.370232 0.368886 0.222162
H77   H     H_    0.755516 0.074747 0.260958 0.282127
H78   H     H_    0.684613 0.028575 0.302688 0.235697
H79   H     H_    0.582438 0.264860 0.408944 0.112105
H80   H     H_    0.665689 0.064643 0.229349 0.261086
H81   H     H_    0.614289 0.143435 0.307251 0.234659
H82   H     H_    0.684718 0.190124 0.266835 0.276898
H83   H     H_    0.772561 0.150215 0.352482 0.210977
H84   H     H_    0.695288 0.117409 0.390190 0.192361
H85   H     H_    0.041388 0.706488 0.283349 0.250612
H86   H     H_    0.068712 0.800999 0.284071 0.258675
H87   H     H_    0.082944 0.746611 0.218098 0.260486
H88   H     H_    0.198259 0.764071 0.273015 0.270902
H89   H     H_    0.170941 0.670497 0.272165 0.235486
H90   H     H_    0.264222 0.614346 0.321501 0.083695
H91   H     H_    0.120879 0.680881 0.374356 0.210862
H92   H     H_    0.139846 0.774922 0.377774 0.207423
H93   H     H_    0.510290 0.791702 0.291820 0.254059
H94   H     H_    0.591432 0.811666 0.249136 0.255840
H95   H     H_    0.532682 0.737316 0.227550 0.277660
H96   H     H_    0.641971 0.691649 0.277715 0.261193
H97   H     H_    0.562263 0.672208 0.321412 0.234913
H98   H     H_    0.598246 0.801583 0.370900 0.251668
H99   H     H_    0.685686 0.782961 0.343854 0.197332
H100  H     H_    0.954775 0.295730 0.281131 0.247685
H101  H     H_    0.536664 0.654998 0.420462 0.100112
H102  H     H_    0.927661 0.201160 0.281730 0.259205
H103  H     H_    0.911923 0.255896 0.216204 0.259920
H104  H     H_    0.797789 0.237951 0.272372 0.270436
H105  H     H_    0.824940 0.331560 0.271765 0.234535
H106  H     H_    0.877022 0.320618 0.373281 0.211282
H107  H     H_    0.858685 0.226444 0.376356 0.206842
H108  H     H_    0.483001 0.204980 0.286812 0.258207
H109  H     H_    0.399884 0.185614 0.246136 0.249690
H110  H     H_    0.458286 0.259476 0.223201 0.289872
H111  H     H_    0.351264 0.305492 0.276059 0.250549
H112  H     H_    0.732509 0.386964 0.322781 0.081310
H113  H     H_    0.432950 0.325066 0.317441 0.241471
H114  H     H_    0.399632 0.196939 0.369354 0.251530
H115  H     H_    0.310958 0.213920 0.343709 0.190773
H116  H     H_    0.259691 0.130951 0.730989 0.281226
H117  H     H_    0.332243 0.077038 0.762432 0.252683
H118  H     H_    0.254970 0.033420 0.727678 0.287109
H119  H     H_    0.246167 0.026190 0.837576 0.266035
H120  H     H_    0.173525 0.079398 0.807628 0.255608
H121  H     H_    0.260030 0.192066 0.830282 0.201318
H122  H     H_    0.314435 0.130543 0.868925 0.221870
H123  H     H_    0.461273 0.344230 0.416049 0.101573
H124  H     H_    0.750823 0.421291 0.760729 0.284834
H125  H     H_    0.822916 0.465128 0.802929 0.238203
H126  H     H_    0.840966 0.429063 0.729463 0.264029
H127  H     H_    0.889949 0.349059 0.807666 0.235310
H128  H     H_    0.818887 0.303879 0.766542 0.273071
H129  H     H_    0.730949 0.344280 0.851033 0.210494
H130  H     H_    0.807355 0.378034 0.889360 0.195882
H131  H     H_    0.621239 0.768400 0.743061 0.261563
H132  H     H_    0.570250 0.842590 0.775112 0.248708
H133  H     H_    0.625458 0.857268 0.709608 0.281262
H134  H     H_    0.217580 0.059575 0.982247 0.099221
H135  H     H_    0.684468 0.906807 0.800542 0.255930
H136  H     H_    0.737523 0.835846 0.767951 0.258512
H137  H     H_    0.670730 0.748983 0.845233 0.205036
H138  H     H_    0.636962 0.828655 0.877668 0.206916
H139  H     H_    0.258959 0.569985 0.762983 0.281073
H140  H     H_    0.187737 0.524481 0.804865 0.235520
H141  H     H_    0.169466 0.559149 0.730931 0.262329
H142  H     H_    0.117197 0.639362 0.807501 0.242376
H143  H     H_    0.187942 0.685174 0.766793 0.276652
H144  H     H_    0.274964 0.646935 0.853496 0.215263
O1    O     O_3   0.500000 1.000000 0.500000 -0.483643
O2    O     O_R   0.560750 0.000000 0.867980 -0.642860
O3    O     O_R   1.000000 0.560750 0.867980 -0.649123
O4    O     O_R   0.439250 0.000000 0.867980 -0.650688
O5    O     O_R   0.560720 0.000000 0.632020 -0.628669
O6    O     O_R   0.000000 0.560720 0.632020 -0.630035
O7    O     O_R   0.439280 0.000000 0.632020 -0.631965
O8    O     O_R   0.000000 0.439280 0.632020 -0.638102
O9    O     O_R   0.060720 0.500000 0.132020 -0.630656
O10   O     O_R   0.500000 0.060720 0.132020 -0.634353
O11   O     O_R   0.939280 0.500000 0.132020 -0.642772
O12   O     O_3   0.000000 0.500000 0.500000 -0.482998
O13   O     O_R   0.500000 0.939280 0.132020 -0.647801
O14   O     O_R   0.585450 0.146130 0.465380 -0.647634
O15   O     O_R   0.853870 0.585450 0.465380 -0.663006
O16   O     O_R   0.414550 0.853870 0.465380 -0.648242
O17   O     O_R   0.146130 0.414550 0.465380 -0.662659
O18   O     O_R   0.414550 0.146130 0.465380 -0.636941
O19   O     O_R   0.146130 0.585450 0.465380 -0.602418
O20   O     O_R   0.585450 0.853870 0.465380 -0.638981
O21   O     O_R   0.853870 0.414550 0.465380 -0.603666
O22   O     O_R   0.085450 0.646130 0.965380 -0.645851
O23   O     O_3   1.000000 0.500000 0.000000 -0.483498
O24   O     O_R   0.353870 0.085450 0.965380 -0.662818
O25   O     O_R   0.914550 0.353870 0.965380 -0.647287
O26   O     O_R   0.646130 0.914550 0.965380 -0.654177
O27   O     O_R   0.914550 0.646130 0.965380 -0.608084
O28   O     O_R   0.646130 0.085450 0.965380 -0.601661
O29   O     O_R   0.085450 0.353870 0.965380 -0.636292
O30   O     O_R   0.353870 0.914550 0.965380 -0.603226
O31   O     O_R   0.353850 0.914510 0.534610 -0.652943
O32   O     O_R   0.085490 0.353850 0.534610 -0.638003
O33   O     O_R   0.646150 0.085490 0.534610 -0.652351
O34   O     O_3   0.500000 0.000000 0.000000 -0.482376
O35   O     O_R   0.914510 0.646150 0.534610 -0.637411
O36   O     O_R   0.646150 0.914510 0.534610 -0.650563
O37   O     O_R   0.914510 0.353850 0.534610 -0.677772
O38   O     O_R   0.353850 0.085490 0.534610 -0.649828
O39   O     O_R   0.085490 0.646150 0.534610 -0.675625
O40   O     O_R   0.853850 0.414510 0.034610 -0.649294
O41   O     O_R   0.585490 0.853850 0.034610 -0.645651
O42   O     O_R   0.146150 0.585490 0.034610 -0.653178
O43   O     O_R   0.414510 0.146150 0.034610 -0.637934
O44   O     O_R   0.146150 0.414510 0.034610 -0.649990
O45   O     O_R   0.500000 0.939250 0.367980 -0.662410
O46   O     O_R   0.414510 0.853850 0.034610 -0.668255
O47   O     O_R   0.853850 0.585490 0.034610 -0.674211
O48   O     O_R   0.585490 0.146150 0.034610 -0.679531
O49   O     O_2   0.635270 0.542939 0.429239 -0.545921
O50   O     O_2   0.388709 0.709246 0.324344 -0.602737
O51   O     O_2   0.362482 0.456363 0.423934 -0.546088
O52   O     O_2   0.608242 0.290155 0.325330 -0.602619
O53   O     O_2   0.279805 0.585374 0.406020 -0.543328
O54   O     O_2   0.561160 0.703963 0.496950 -0.570404
O55   O     O_2   0.717887 0.414557 0.407750 -0.544978
O56   O     O_R   0.060750 0.500000 0.367980 -0.649278
O57   O     O_2   0.438957 0.296777 0.493555 -0.568106
O58   O     O_2   0.138487 0.042927 0.923202 -0.540279
O59   O     O_2   0.895714 0.203695 0.828107 -0.596416
O60   O     O_2   0.818336 0.915452 0.846830 -0.556585
O61   O     O_2   0.112128 0.786900 0.822749 -0.571498
O62   O     O_2   0.781777 0.078899 0.909055 -0.550150
O63   O     O_2   0.060789 0.203284 0.993169 -0.570765
O64   O     O_2   0.220846 0.912999 0.903494 -0.538906
O65   O     O_2   0.930204 0.790832 0.927864 -0.552464
O66   O     O_2   0.794075 0.897064 0.609838 -0.483640
O67   O     O_R   0.500000 0.060750 0.367980 -0.661862
O68   O     O_2   0.244167 0.670126 0.654708 -0.587539
O69   O     O_2   0.202583 0.101049 0.607826 -0.511042
O70   O     O_2   0.757675 0.327874 0.655142 -0.588893
O71   O     O_2   0.259885 0.823026 0.658013 -0.565949
O72   O     O_2   0.900215 0.797680 0.607145 -0.492517
O73   O     O_2   0.743965 0.174340 0.656986 -0.561928
O74   O     O_2   0.101097 0.204390 0.608253 -0.519198
O75   O     O_2   0.297335 0.398693 0.108250 -0.514551
O76   O     O_2   0.738761 0.173551 0.155772 -0.591830
O77   O     O_2   0.817794 0.720154 0.155904 -0.577779
O78   O     O_R   0.939250 0.500000 0.367980 -0.648212
O79   O     O_2   0.254662 0.830256 0.154451 -0.588089
O80   O     O_2   0.754833 0.327863 0.156484 -0.575808
O81   O     O_2   0.399066 0.295573 0.108532 -0.522501
O82   O     O_2   0.240732 0.677436 0.157905 -0.570445
O83   O     O_2   0.659515 0.741659 0.150885 -0.595697
O84   O     O_R   1.000000 0.439250 0.867980 -0.662078
Zn1   Zn    Zn3+2 0.586760 1.000000 0.549450 0.992066
Zn2   Zn    Zn3+2 0.913280 0.500000 0.450540 0.961002
Zn3   Zn    Zn3+2 0.500000 0.913280 0.450540 0.945882
Zn4   Zn    Zn3+2 0.086720 0.500000 0.450540 0.961145
Zn5   Zn    Zn3+2 0.000000 0.586720 0.950540 0.970446
Zn6   Zn    Zn3+2 0.413280 0.000000 0.950540 0.963067
Zn7   Zn    Zn3+2 0.000000 0.413280 0.950540 0.950104
Zn8   Zn    Zn3+2 0.586720 0.000000 0.950540 0.971310
Zn9   Zn    Zn3+2 0.000000 0.586760 0.549450 0.975935
Zn10  Zn    Zn3+2 0.413240 1.000000 0.549450 0.987088
Zn11  Zn    Zn3+2 1.000000 0.413240 0.549450 0.967410
Zn12  Zn    Zn3+2 0.086760 0.500000 0.049450 0.984729
Zn13  Zn    Zn3+2 0.500000 0.086760 0.049450 0.965403
Zn14  Zn    Zn3+2 0.913240 0.500000 0.049450 0.968503
Zn15  Zn    Zn3+2 0.500000 0.913240 0.049450 0.961568
Zn16  Zn    Zn3+2 0.500000 0.086720 0.450540 0.947985

loop_
_geom_bond_atom_site_label_1
_geom_bond_atom_site_label_2
_ccdc_geom_bond_type
C39   H100  S    
C16   C173  S    
C89   C148  S    
O12   Zn11  S    
C63   H26   S    
C64   H22   S    
C142  C146  A    
C86   C147  S    
C62   H14   S    
C84   C145  S    
C44   C45   S    
C62   H12   S    
C49   H126  S    
C93   C121  S    
C22   H63   S    
C4    O53   D    
C33   H98   S    
O12   Zn4   S    
C96   C99   A    
C126  C143  A    
O23   Zn12  S    
C105  C123  A    
C41   C42   S    
O21   Zn2   S    
C25   H73   S    
C109  C127  A    
C52   H132  S    
C35   C115  S    
C29   H77   S    
C112  C129  A    
C97   C115  A    
C144  O11   A    
C5    O54   D    
C72   H37   S    
C43   H121  S    
C20   C158  S    
C21   C22   S    
C96   C114  A    
O47   Zn14  S    
C55   H141  S    
C26   H72   S    
C72   C132  S    
C133  O8    A    
C24   C120  S    
C51   C52   S    
C160  C163  S    
C77   C138  S    
C92   C123  S    
C102  C160  S    
C75   C136  S    
C98   C102  A    
C58   H7    S    
C59   H6    S    
C43   C44   S    
C37   C38   S    
C16   O65   D    
C78   H43   S    
C13   C117  S    
C9    C167  S    
C76   H41   S    
C97   C164  S    
C5    H101  S    
C85   C146  S    
C174  H1    S    
C42   H110  S    
C68   C116  S    
C104  C171  S    
C11   C169  S    
C45   H118  S    
C107  C110  A    
O23   Zn7   S    
C73   H38   S    
C120  C138  A    
C89   O78   A    
C117  C135  A    
C14   C171  S    
C118  C136  A    
C85   O82   D    
C21   H65   S    
C51   H136  S    
O10   Zn13  S    
O46   Zn15  S    
C18   H58   S    
O44   Zn12  S    
O36   Zn1   S    
O17   Zn4   S    
O3    Zn5   S    
O5    Zn1   S    
C13   O16   A    
C55   H140  S    
C64   C65   S    
C83   C143  S    
C63   C172  S    
O1    Zn16  S    
C106  C173  S    
C15   C172  S    
C151  C153  T    
C144  C154  S    
C129  C147  A    
C141  C147  A    
C79   C128  S    
C110  C169  S    
C6    C163  S    
O37   Zn11  S    
C10   C168  S    
C44   H120  S    
C100  O3    A    
C8    H134  S    
C155  C156  S    
C61   H15   S    
C36   H94   S    
C4    C161  S    
C30   H91   S    
C54   H142  S    
C174  O49   D    
C108  C126  A    
C80   O76   D    
C4    H90   S    
C157  C162  S    
C14   O63   D    
C26   H70   S    
C110  C128  A    
C165  C171  S    
C20   H67   S    
O14   Zn16  S    
C6    O55   D    
C140  C143  A    
C111  O4    A    
C74   O71   D    
C57   O20   A    
C53   C54   S    
C68   O37   A    
O9    Zn12  S    
C101  C118  A    
C59   H4    S    
O22   Zn5   S    
C40   C164  S    
O4    Zn6   S    
C15   O64   D    
O40   Zn14  S    
C38   C39   S    
O25   Zn7   S    
C16   H53   S    
C40   H115  S    
C11   H24   S    
C38   H105  S    
C90   C129  S    
C175  H57   S    
C23   C159  S    
C175  O50   D    
C23   H75   S    
O23   Zn5   S    
C17   C157  S    
C157  C174  S    
C65   H20   S    
C66   C67   S    
C86   H51   S    
C100  O84   A    
C84   H49   S    
C53   H3    S    
C60   H17   S    
C115  C132  A    
C34   H97   S    
O34   Zn8   S    
O56   Zn4   S    
C10   H13   S    
C113  C130  A    
C46   O19   A    
C107  C125  A    
O28   Zn8   S    
C92   O28   A    
C57   C113  S    
C25   C26   S    
C79   O22   A    
C122  C152  S    
C99   C117  A    
C31   C32   S    
O30   Zn6   S    
C86   O83   D    
O32   Zn11  S    
C17   C18   S    
C47   H129  S    
C84   O81   D    
C20   C21   S    
C1    C149  S    
C13   O31   A    
C20   H69   S    
C28   H82   S    
C159  C176  S    
C24   O32   A    
C91   O27   A    
C83   O80   D    
C70   H34   S    
C53   H144  S    
C124  C141  A    
C111  O2    A    
C106  C124  A    
O19   Zn4   S    
C94   C125  S    
C91   O47   A    
C54   C55   S    
C63   H25   S    
C56   C170  S    
C60   C171  S    
C12   H35   S    
O1    Zn10  S    
C69   H29   S    
C121  C139  A    
C49   H125  S    
C41   H111  S    
C50   C168  S    
C39   H102  S    
C128  C146  A    
O18   Zn16  S    
C56   C58   S    
C34   C36   S    
O1    Zn1   S    
C32   H85   S    
C8    C165  S    
C102  C119  A    
C71   C131  S    
C63   C64   S    
C158  C175  S    
C77   O74   D    
C69   H28   S    
C159  C164  S    
C21   H66   S    
C65   H19   S    
C57   O36   A    
C95   C101  A    
O34   Zn6   S    
O13   Zn15  S    
C74   H39   S    
C31   H89   S    
O31   Zn10  S    
C114  C131  A    
C103  C120  A    
C82   C142  S    
C48   H127  S    
C34   H96   S    
C134  C137  A    
C98   C163  S    
C2    C118  S    
C27   H84   S    
O11   Zn14  S    
C28   C29   S    
O45   Zn3   S    
C30   C31   S    
C17   H60   S    
C116  C134  A    
C132  C138  A    
C70   C130  S    
C58   H8    S    
C18   C19   S    
C59   H5    S    
C93   O29   A    
C158  C161  S    
C50   H137  S    
C82   O79   D    
C1    O67   A    
C40   H114  S    
C19   H56   S    
C37   H107  S    
C22   H64   S    
C53   C169  S    
C176  H68   S    
C101  C157  S    
C78   C139  S    
C148  C154  T    
C9    O59   D    
C51   H135  S    
C107  C172  S    
C43   C165  S    
C105  C170  S    
C18   H59   S    
O39   Zn9   S    
C82   H47   S    
C33   H99   S    
C58   C59   S    
C76   C137  S    
C31   H88   S    
O24   Zn6   S    
O1    Zn3   S    
C32   H87   S    
C6    H112  S    
C55   H139  S    
C122  O7    A    
C155  O10   A    
C66   H32   S    
C25   H74   S    
C35   O38   A    
C74   C135  S    
C50   C51   S    
C52   H131  S    
C76   O73   D    
C73   O70   D    
C67   H30   S    
C109  C165  S    
C166  O33   A    
C83   H48   S    
C10   O60   D    
C38   H104  S    
C48   C49   S    
C43   H122  S    
C56   H10   S    
C41   H113  S    
C3    O52   D    
O35   Zn9   S    
C30   H92   S    
C54   H143  S    
O26   Zn8   S    
C111  C150  S    
C26   H71   S    
C94   O30   A    
C71   O68   D    
C42   H108  S    
O27   Zn5   S    
C81   H45   S    
C7    C164  S    
C15   H52   S    
O6    Zn9   S    
C22   H62   S    
C5    C162  S    
C33   C162  S    
C80   C140  S    
O2    Zn8   S    
C68   O21   A    
O67   Zn16  S    
C81   O77   D    
C35   O18   A    
C19   H54   S    
C42   H109  S    
C39   H103  S    
O23   Zn14  S    
C71   H36   S    
C64   H23   S    
O33   Zn1   S    
C60   C61   S    
C30   C161  S    
C9    H2    S    
C62   H11   S    
C155  O13   A    
O16   Zn3   S    
C24   O17   A    
C89   O56   A    
C87   O24   A    
O38   Zn10  S    
C87   C127  S    
O34   Zn15  S    
C60   H18   S    
C106  C112  A    
C52   H133  S    
O48   Zn13  S    
C23   H76   S    
O8    Zn11  S    
C133  C153  S    
C149  C156  T    
C95   C113  A    
C2    O35   A    
C131  C135  A    
C122  O5    A    
C104  C109  A    
C77   H42   S    
C112  C168  S    
C75   H40   S    
C96   C161  S    
C29   H80   S    
C88   C126  S    
C36   H95   S    
O43   Zn13  S    
C90   O41   A    
C44   H119  S    
C61   H16   S    
C36   H93   S    
O41   Zn15  S    
C66   C173  S    
O84   Zn7   S    
C46   O39   A    
C37   C163  S    
C81   C141  S    
C78   O75   D    
C8    O58   D    
C72   O69   D    
C61   C62   S    
C167  C170  S    
C100  C151  S    
C168  C173  S    
C105  C108  A    
O12   Zn9   S    
C46   C114  S    
C119  C137  A    
O29   Zn7   S    
C87   O43   A    
C88   O25   A    
C95   C162  S    
C12   C170  S    
C104  C121  A    
C27   C160  S    
C29   H78   S    
C123  C140  A    
C67   C69   S    
C49   H124  S    
C47   C167  S    
C98   C116  A    
C47   C48   S    
O12   Zn2   S    
C125  C142  A    
C33   C34   S    
C97   C103  A    
C73   C134  S    
C66   H33   S    
C32   H86   S    
C119  C166  S    
O15   Zn2   S    
C65   H21   S    
C40   C41   S    
C11   O61   D    
C108  C167  S    
C127  C145  A    
C69   H27   S    
C91   C124  S    
C93   O44   A    
C3    C160  S    
C169  C172  S    
C150  C152  T    
C90   O26   A    
C144  O9    A    
C70   O66   D    
O34   Zn13  S    
C67   H31   S    
O7    Zn10  S    
C139  C145  A    
C2    O15   A    
C166  O14   A    
C1    O45   A    
C75   O72   D    
C45   H117  S    
C14   H46   S    
C130  C136  A    
C48   H128  S    
C80   H44   S    
C133  O6    A    
C7    H123  S    
C27   H83   S    
O78   Zn2   S    
C103  C159  S    
C7    O57   D    
C176  O51   D    
O42   Zn12  S    
C88   O40   A    
C45   H116  S    
C47   H130  S    
C23   C25   S    
C3    H79   S    
C50   H138  S    
O20   Zn3   S    
C12   O62   D    
C56   H9    S    
C28   H81   S    
C99   C158  S    
C27   C28   S    
C92   O48   A    
C85   H50   S    
C19   H55   S    
C37   H106  S    
C94   O46   A    
C79   O42   A    
C17   H61   S    
