data_mof_unit_20099.cif
_audit_creation_date              2012-12-10T17:41:03-0500
_audit_creation_method            fapswitch 2.2
_symmetry_space_group_name_H-M    P1
_symmetry_Int_Tables_number       1
_space_group_crystal_system       triclinic
_cell_length_a                    14.886619
_cell_length_b                    15.310385
_cell_length_c                    9.901824
_cell_angle_alpha                 90.99961
_cell_angle_beta                  89.007974
_cell_angle_gamma                 90.638573
_cell_volume                      2256.00804036

loop_
_atom_site_label
_atom_site_type_symbol
_atom_type_description
_atom_site_fract_x
_atom_site_fract_y
_atom_site_fract_z
_atom_type_partial_charge
C1    C     C_R   0.380454 0.880045 0.499724 0.836946
C2    C     C_R   0.664332 0.268041 0.473865 -0.160138
C3    C     C_R   0.226175 0.287152 0.383774 -0.104023
C4    C     C_R   0.164318 0.768053 0.473961 -0.160171
C5    C     C_R   0.673631 0.802172 0.499361 -0.098697
C6    C     C_R   0.688838 0.182719 0.500352 -0.062751
C7    C     C_R   0.173637 0.302177 0.499366 -0.098698
C8    C     C_R   0.188836 0.682722 0.500356 -0.062743
C9    C     C_R   0.335604 0.993973 0.143779 -0.146655
C10   C     C_R   0.835604 0.493968 0.143779 -0.146599
C11   C     C_R   0.254931 0.988867 0.075206 -0.155842
C12   C     C_R   0.383049 0.123260 0.502819 0.851947
C13   C     C_R   0.754932 0.488854 0.075206 -0.155934
C14   C     C_R   0.255095 0.988751 0.935444 -0.174214
C15   C     C_R   0.755096 0.488738 0.935444 -0.174257
C16   C     C_R   0.335980 0.993979 0.863540 -0.159351
C17   C     C_R   0.835981 0.493974 0.863540 -0.159296
C18   C     C_R   0.419114 0.996806 0.929538 0.167572
C19   C     C_R   0.919115 0.496805 0.929539 0.167572
C20   C     C_R   0.419067 0.996796 0.074185 0.185624
C21   C     C_R   0.919067 0.496795 0.074185 0.185627
C22   C     C_R   0.577385 0.003372 0.069565 -0.020734
C23   C     C_R   0.880458 0.380041 0.499723 0.836965
C24   C     C_R   0.077386 0.503369 0.069565 -0.020727
C25   C     C_R   0.619698 0.119603 0.500086 0.880348
C26   C     C_R   0.614764 0.875566 0.499107 0.860915
C27   C     C_R   0.119698 0.619603 0.500086 0.880333
C28   C     C_R   0.114765 0.375567 0.499108 0.860912
C29   C     C_R   0.577363 0.003060 0.926369 -0.061280
C30   C     C_R   0.077363 0.503059 0.926369 -0.061281
C31   C     C_R   0.299770 0.195518 0.764154 -0.172123
C32   C     C_R   0.435062 0.701524 0.533724 -0.196293
C33   C     C_R   0.799756 0.695509 0.764150 -0.172062
C34   C     C_R   0.883048 0.623259 0.502819 0.851947
C35   C     C_R   0.935054 0.201524 0.533842 -0.196299
C36   C     C_R   0.241333 0.202222 0.875368 -0.245204
C37   C     C_R   0.459036 0.615861 0.560295 -0.211194
C38   C     C_R   0.741316 0.702210 0.875360 -0.245251
C39   C     C_R   0.959021 0.115867 0.560468 -0.211216
C40   C     C_R   0.653100 0.727879 0.857786 0.449753
C41   C     C_R   0.892904 0.050891 0.571102 0.510286
C42   C     C_R   0.153117 0.227893 0.857798 0.449789
C43   C     C_R   0.392923 0.550882 0.570928 0.510287
C44   C     C_R   0.627384 0.756661 0.731501 -0.260134
C45   C     C_R   0.295689 0.229820 0.387782 -0.147729
C46   C     C_R   0.802905 0.071871 0.550788 -0.265098
C47   C     C_R   0.127399 0.256672 0.731516 -0.260229
C48   C     C_R   0.302919 0.571863 0.550665 -0.265071
C49   C     C_R   0.688917 0.757124 0.620389 0.031297
C50   C     C_R   0.778097 0.158830 0.524422 0.017332
C51   C     C_R   0.188927 0.257132 0.620397 0.031290
C52   C     C_R   0.278103 0.658828 0.524355 0.017334
C53   C     C_R   0.270469 0.213897 0.631921 0.140679
C54   C     C_R   0.344309 0.724270 0.519566 0.115453
C55   C     C_R   0.770460 0.713890 0.631917 0.140687
C56   C     C_R   0.228853 0.832518 0.473868 -0.221112
C57   C     C_R   0.844306 0.224270 0.519631 0.115448
C58   C     C_R   0.318490 0.192569 0.510194 -0.076431
C59   C     C_R   0.317443 0.810767 0.498069 -0.040286
C60   C     C_R   0.818485 0.692565 0.510192 -0.076438
C61   C     C_R   0.817448 0.310762 0.498063 -0.040300
C62   C     C_R   0.795683 0.729815 0.387778 -0.147811
C63   C     C_R   0.728868 0.332505 0.473769 -0.221064
C64   C     C_R   0.726167 0.787144 0.383768 -0.104091
H1    H     H_    0.333011 0.216358 0.294916 0.172676
H2    H     H_    0.140573 0.505296 0.870880 0.165066
H3    H     H_    0.368308 0.179861 0.786112 0.201571
H4    H     H_    0.487799 0.749551 0.522279 0.133306
H5    H     H_    0.868294 0.679853 0.786113 0.201565
H6    H     H_    0.987795 0.249547 0.522384 0.133296
H7    H     H_    0.264606 0.185976 0.974791 0.183817
H8    H     H_    0.529237 0.600514 0.572056 0.155995
H9    H     H_    0.764586 0.685962 0.974784 0.183818
H10   H     H_    0.029219 0.100519 0.572264 0.155976
H11   H     H_    0.559187 0.778418 0.721702 0.199445
H12   H     H_    0.209931 0.899439 0.455533 0.127546
H13   H     H_    0.753000 0.020036 0.555729 0.167960
H14   H     H_    0.059202 0.278433 0.721726 0.199468
H15   H     H_    0.253015 0.520027 0.555609 0.167932
H16   H     H_    0.714972 0.821019 0.290592 0.203815
H17   H     H_    0.595057 0.284613 0.455067 0.182635
H18   H     H_    0.214986 0.321032 0.290603 0.203829
H19   H     H_    0.095035 0.784630 0.455232 0.182650
H20   H     H_    0.640609 0.005807 0.121812 0.152308
H21   H     H_    0.140609 0.505803 0.121812 0.152313
H22   H     H_    0.329454 0.996190 0.250908 0.198596
H23   H     H_    0.833005 0.716353 0.294913 0.172680
H24   H     H_    0.829455 0.496188 0.250908 0.198586
H25   H     H_    0.191860 0.986053 0.131141 0.181823
H26   H     H_    0.691862 0.486034 0.131142 0.181776
H27   H     H_    0.566016 0.588649 0.013391 0.357375
H28   H     H_    0.067996 0.943140 0.606521 0.340809
H29   H     H_    0.065878 0.088676 0.013337 0.357457
H30   H     H_    0.568024 0.443135 0.606140 0.340801
H31   H     H_    0.709955 0.399419 0.455363 0.127527
H32   H     H_    0.192125 0.986530 0.882283 0.178348
H33   H     H_    0.692126 0.486512 0.882282 0.178345
H34   H     H_    0.330544 0.997806 0.756799 0.204145
H35   H     H_    0.830544 0.497803 0.756800 0.204149
H36   H     H_    0.640573 0.005299 0.870880 0.165073
N1    N     N_R   0.498810 0.000000 0.142780 -0.119305
N2    N     N_R   0.998810 0.500000 0.142780 -0.119313
N3    N     N_R   0.498740 0.000000 0.857170 -0.130470
N4    N     N_R   0.998740 0.500000 0.857170 -0.130470
O1    O     O_R   0.408390 0.908380 0.614690 -0.632565
O2    O     O_R   0.591620 0.908390 0.614640 -0.618918
O3    O     O_R   0.091620 0.591610 0.614640 -0.608828
O4    O     O_R   0.091620 0.408390 0.614640 -0.618927
O5    O     O_R   0.591610 0.091610 0.385310 -0.615905
O6    O     O_R   0.591610 0.908390 0.385310 -0.590211
O7    O     O_R   0.091610 0.591610 0.385310 -0.615897
O8    O     O_R   0.091610 0.408390 0.385310 -0.590200
O9    O     O_2   0.600737 0.802915 0.089782 -0.294391
O10   O     O_2   0.482085 0.740223 0.948970 -0.289321
O11   O     O_3   0.583853 0.634632 0.079568 -0.545155
O12   O     O_R   0.408390 0.091620 0.614690 -0.659224
O13   O     O_2   0.852866 0.903742 0.700493 -0.275946
O14   O     O_2   0.925953 0.889931 0.478228 -0.344055
O15   O     O_3   0.023274 0.940660 0.681619 -0.554825
O16   O     O_2   0.100813 0.302893 0.089848 -0.294427
O17   O     O_2   0.982113 0.240323 0.949011 -0.289368
O18   O     O_3   0.083812 0.134621 0.079514 -0.545178
O19   O     O_2   0.352936 0.403735 0.700348 -0.275932
O20   O     O_2   0.425911 0.389924 0.478002 -0.344058
O21   O     O_3   0.523339 0.440635 0.681285 -0.554811
O22   O     O_R   0.908390 0.408380 0.614690 -0.632565
O23   O     O_R   0.908390 0.591620 0.614690 -0.659225
O24   O     O_R   0.408370 0.908380 0.385360 -0.612689
O25   O     O_R   0.408370 0.091620 0.385360 -0.648256
O26   O     O_R   0.908370 0.408380 0.385360 -0.612694
O27   O     O_R   0.908370 0.591620 0.385360 -0.648253
O28   O     O_R   0.591620 0.091610 0.614640 -0.608834
S1    S     S_3+6 0.576724 0.728715 0.995682 0.019643
S2    S     S_3+6 0.922506 0.942914 0.607364 0.003537
S3    S     S_3+6 0.076746 0.228736 0.995698 0.019610
S4    S     S_3+6 0.422534 0.442902 0.607146 0.003541
Zn1   Zn    Zn3+2 0.500010 0.000000 0.653130 0.955997
Zn2   Zn    Zn3+2 0.000010 0.500000 0.653130 0.956000
Zn3   Zn    Zn3+2 0.499980 0.000000 0.346870 0.984942
Zn4   Zn    Zn3+2 0.999980 0.500000 0.346870 0.984949

loop_
_geom_bond_atom_site_label_1
_geom_bond_atom_site_label_2
_ccdc_geom_bond_type
C44   C49   A    
C33   C55   A    
C38   C40   A    
C56   H12   S    
C22   C29   A    
C13   H26   S    
O8    Zn4   S    
C36   C42   A    
C1    O24   A    
C4    C8    A    
O26   Zn4   S    
C26   O2    A    
N1    Zn3   S    
C39   C41   A    
C28   O8    A    
C31   H3    S    
C10   H24   S    
C22   N1    A    
C48   H15   S    
O6    Zn3   S    
C19   C21   A    
H28   O15   S    
C3    C7    A    
N3    Zn1   S    
C11   C14   A    
C6    C25   S    
C23   C61   S    
C63   H31   S    
C29   N3    A    
C60   C62   A    
C39   H10   S    
C14   H32   S    
C61   C63   A    
C62   C64   A    
O27   Zn4   S    
C35   H6    S    
N4    Zn2   S    
C34   O23   A    
C40   S1    S    
C41   C46   A    
O23   Zn2   S    
C24   H21   S    
C8    C52   A    
C40   C44   A    
C24   N2    A    
O14   S2    D    
C36   H7    S    
C33   H5    S    
C32   H4    S    
C12   C58   S    
C27   O7    A    
O9    S1    D    
C55   C60   A    
C4    C56   A    
C34   C60   S    
C64   H16   S    
C5    C49   A    
C2    C6    A    
C15   H33   S    
O13   S2    D    
C32   C54   A    
C41   S2    S    
C52   C54   A    
O7    Zn4   S    
C54   C59   A    
C10   C21   A    
C45   C58   A    
O15   S2    S    
C12   O25   A    
O20   S4    D    
H29   O18   S    
O2    Zn1   S    
C47   C51   A    
C20   N1    A    
O11   S1    S    
O28   Zn1   S    
C49   C55   A    
C3    C45   A    
C31   C53   A    
C7    C28   S    
C5    C64   A    
C42   S3    S    
C51   C53   A    
C22   H20   S    
C37   C43   A    
C44   H11   S    
C35   C39   A    
C9    H22   S    
C9    C11   A    
C19   N4    A    
C11   H25   S    
C9    C20   A    
O25   Zn3   S    
C27   O3    A    
C3    H18   S    
N2    Zn4   S    
C32   C37   A    
O17   S3    D    
C17   H35   S    
C30   H2    S    
C23   O22   A    
C21   N2    A    
O21   S4    S    
C34   O27   A    
C13   C15   A    
C45   H1    S    
C14   C16   A    
C2    C63   A    
O12   Zn1   S    
C43   C48   A    
H30   O21   S    
C15   C17   A    
C26   O6    A    
O22   Zn2   S    
C6    C50   A    
C29   H36   S    
C50   C57   A    
O24   Zn3   S    
C10   C13   A    
C46   H13   S    
C53   C58   A    
C57   C61   A    
C25   O5    A    
C62   H23   S    
C46   C50   A    
C33   C38   A    
C56   C59   A    
O5    Zn3   S    
O19   S4    D    
C35   C57   A    
O16   S3    D    
O3    Zn2   S    
C1    C59   S    
C7    C51   A    
O4    Zn2   S    
C16   H34   S    
C4    H19   S    
C28   O4    A    
C17   C19   A    
O10   S1    D    
H27   O11   S    
C18   C20   A    
C18   N3    A    
C43   S4    S    
C24   C30   A    
O18   S3    S    
O1    Zn1   S    
C5    C26   S    
C48   C52   A    
C42   C47   A    
C23   O26   A    
C16   C18   A    
C37   H8    S    
C30   N4    A    
C8    C27   S    
C31   C36   A    
C2    H17   S    
C47   H14   S    
C25   O28   A    
C1    O1    A    
C12   O12   A    
C38   H9    S    
