data_mof_unit_61711.cif
_audit_creation_date              2012-12-10T19:14:27-0500
_audit_creation_method            fapswitch 2.2
_symmetry_space_group_name_H-M    P1
_symmetry_Int_Tables_number       1
_space_group_crystal_system       triclinic
_cell_length_a                    16.014323
_cell_length_b                    14.742467
_cell_length_c                    10.794814
_cell_angle_alpha                 90.011379
_cell_angle_beta                  89.999091
_cell_angle_gamma                 90.491572
_cell_volume                      2548.46057244

loop_
_atom_site_label
_atom_site_type_symbol
_atom_type_description
_atom_site_fract_x
_atom_site_fract_y
_atom_site_fract_z
_atom_type_partial_charge
C1    C     C_R   0.340902 0.499677 0.500039 0.829004
C2    C     C_R   0.659096 0.500279 0.499973 0.845657
C3    C     C_R   0.954751 0.421006 0.498149 0.302091
C4    C     C_R   0.043146 0.420639 0.494384 0.302835
C5    C     C_1   0.822851 0.502403 0.499264 0.128195
C6    C     C_1   0.177069 0.500589 0.501138 0.108239
C7    C     C_1   0.251978 0.499375 0.500548 -0.132595
C8    C     C_1   0.747960 0.501168 0.499636 -0.057493
C9    C     C_R   0.576570 0.952673 0.503149 0.466699
C10   C     C_R   0.423876 0.951303 0.496356 0.420748
C11   C     C_R   0.500203 0.902627 0.499787 -0.344256
C12   C     C_R   0.423884 0.047178 0.496392 0.425028
C13   C     C_R   0.576584 0.048578 0.503268 0.439370
C14   C     C_R   0.500228 0.097279 0.499883 -0.355469
C15   C     C_1   0.500120 0.802528 0.499915 0.261959
C16   C     C_1   0.500148 0.197443 0.499956 0.258088
C17   C     C_R   0.513696 0.500239 0.262851 0.856669
C18   C     C_R   0.513718 0.500253 0.737138 0.856265
C19   C     C_R   0.574573 0.666931 0.127034 0.215174
C20   C     C_R   0.574536 0.666990 0.873119 0.214722
C21   C     C_R   0.565911 0.749579 0.064789 0.212786
C22   C     C_R   0.565895 0.749610 0.935507 0.212586
C23   C     C_R   0.554047 0.584262 0.934333 -0.084527
C24   C     C_R   0.554051 0.584239 0.065725 -0.084542
C25   C     C_R   0.539173 0.501130 0.130130 -0.184924
C26   C     C_R   0.539205 0.501159 0.869851 -0.184806
C27   C     C_R   0.549115 0.418523 0.064859 0.234311
C28   C     C_R   0.549166 0.418544 0.935052 0.234053
C29   C     C_R   0.957301 0.587317 0.502618 0.375333
C30   C     C_R   0.044619 0.586764 0.506358 0.362652
C31   C     C_R   0.912545 0.504104 0.498814 -0.164245
C32   C     C_R   0.087382 0.503101 0.501891 -0.159253
Cu1   Cu    Cu3+1 0.500000 0.589220 0.500000 1.057533
Cu2   Cu    Cu3+1 0.500000 0.410780 0.500000 1.080114
N1    N     N_1   0.500000 0.276710 0.500000 -0.125826
N2    N     N_1   0.500000 0.723290 0.500000 -0.121277
O1    O     O_R   0.380310 0.575320 0.500020 -0.580176
O2    O     O_R   0.619690 0.575320 0.499980 -0.527441
O3    O     O_R   0.380310 0.424640 0.499960 -0.555864
O4    O     O_R   0.619690 0.424640 0.500040 -0.565092
O5    O     O_R   0.500000 0.575360 0.319640 -0.562010
O6    O     O_R   0.500000 0.575360 0.680360 -0.562282
O7    O     O_R   0.500000 0.424670 0.319580 -0.544707
O8    O     O_R   0.500000 0.424670 0.680420 -0.544767
Br1   Br    Br    0.568776 0.304266 0.149266 -0.331347
Br2   Br    Br    0.569039 0.304345 0.850537 -0.333319
Br3   Br    Br    0.654704 0.668092 0.259902 -0.401019
Br4   Br    Br    0.654583 0.668237 0.740132 -0.399533
Br5   Br    Br    0.570063 0.861883 0.155938 -0.312839
Br6   Br    Br    0.570036 0.861972 0.844572 -0.311848
O9    O     O_3   0.085114 0.670019 0.512730 -0.610162
H1    H     H_    0.146190 0.661962 0.518491 0.331323
O10   O     O_3   0.918801 0.671077 0.504515 -0.593386
H2    H     H_    0.857528 0.663941 0.498151 0.351838
O11   O     O_3   0.907937 0.341843 0.503012 -0.665899
H3    H     H_    0.941311 0.294197 0.543899 0.358781
O12   O     O_3   0.088010 0.341465 0.481679 -0.672665
H4    H     H_    0.053476 0.296431 0.436278 0.356556
O13   O     O_3   0.653856 0.091406 0.506794 -0.593666
H5    H     H_    0.647536 0.158019 0.506746 0.346805
O14   O     O_3   0.346599 0.088551 0.492904 -0.612321
H6    H     H_    0.352869 0.155282 0.493143 0.336937
O15   O     O_3   0.653821 0.911207 0.506496 -0.578330
H7    H     H_    0.647486 0.844476 0.505848 0.362528
O16   O     O_3   0.346589 0.908491 0.492851 -0.616181
H8    H     H_    0.352855 0.841875 0.492895 0.329188

loop_
_geom_bond_atom_site_label_1
_geom_bond_atom_site_label_2
_ccdc_geom_bond_type
C4    O12   S    
C5    C8    T    
C6    C32   S    
C23   C24   A    
C17   O7    A    
C29   C30   A    
C13   O13   S    
C18   O8    A    
C25   C27   A    
C2    O2    A    
C26   C28   A    
Cu1   O2    S    
C18   C26   S    
C20   C23   A    
C1    O1    A    
C22   Br6   S    
C17   C25   S    
C27   Br1   S    
O11   H3    S    
C21   Br5   S    
Cu1   Cu2   S    
Cu1   O5    S    
O13   H5    S    
C29   C31   A    
C4    C32   A    
O10   H2    S    
O16   H8    S    
C3    C31   A    
C12   O14   S    
C9    C11   A    
C28   Br2   S    
O12   H4    S    
C6    C7    T    
C10   C12   A    
Cu2   O4    S    
Cu1   O6    S    
C21   C22   A    
C19   C21   A    
C30   O9    S    
C12   C14   A    
C19   C24   A    
C19   Br3   S    
C18   O6    A    
C16   N1    T    
O14   H6    S    
C14   C16   S    
C23   C26   A    
C17   O5    A    
C10   C11   A    
C1    O3    A    
C3    C4    A    
C30   C32   A    
C2    O4    A    
C15   N2    T    
Cu1   N2    S    
Cu2   O8    S    
C24   C25   A    
Cu1   O1    S    
Cu2   N1    S    
C10   O16   S    
C27   C28   A    
C9    C13   A    
C5    C31   S    
C20   Br4   S    
C13   C14   A    
C1    C7    S    
C3    O11   S    
C9    O15   S    
C11   C15   S    
Cu2   O3    S    
C2    C8    S    
Cu2   O7    S    
O9    H1    S    
C20   C22   A    
O15   H7    S    
C29   O10   S    
