data_mof_unit_43650.cif
_audit_creation_date              2013-03-05T16:21:47-0500
_audit_creation_method            fapswitch 2.2
_symmetry_space_group_name_H-M    P1
_symmetry_Int_Tables_number       1
_space_group_crystal_system       triclinic
_cell_length_a                    15.708769
_cell_length_b                    14.976343
_cell_length_c                    27.597391
_cell_angle_alpha                 90.747844
_cell_angle_beta                  89.955286
_cell_angle_gamma                 90.230561
_cell_volume                      6491.95247361

loop_
_atom_site_label
_atom_site_type_symbol
_atom_site_description
_atom_site_fract_x
_atom_site_fract_y
_atom_site_fract_z
_atom_type_partial_charge
O1    O     O_R   0.377210 0.574260 0.500050 -0.594899
O2    O     O_R   0.377210 0.425740 0.500050 -0.580331
C1    C     C_R   0.337930 0.499759 0.500021 0.920676
O3    O     O_R   0.500080 0.574220 0.428810 -0.597028
O4    O     O_R   0.500080 0.425780 0.428810 -0.596390
C2    C     C_R   0.500020 0.499396 0.405675 0.940157
Zn1   Zn    Zn3+2 0.500090 0.599130 0.500070 1.094180
Zn2   Zn    Zn3+2 0.500090 0.400870 0.500070 1.139331
O5    O     O_R   0.622930 0.574200 0.500050 -0.610861
O6    O     O_R   0.622930 0.425800 0.500050 -0.589557
O7    O     O_R   0.500060 0.574240 0.571300 -0.619631
O8    O     O_R   0.500060 0.425760 0.571300 -0.563649
C3    C     C_R   0.662324 0.500147 0.499885 0.874966
C4    C     C_R   0.499250 0.500662 0.594413 0.978654
C5    C     C_R   0.444598 0.491426 0.173617 0.676502
O9    O     O_2   0.370550 0.480893 0.197430 -0.407503
N1    N     N_R   0.517904 0.495570 0.199971 -0.351038
C6    C     C_R   0.596202 0.502006 0.179064 0.672816
C7    C     C_R   0.522219 0.415951 0.277153 0.377808
C8    C     C_R   0.517707 0.417744 0.327567 -0.220714
C9    C     C_R   0.490180 0.576801 0.327072 -0.247632
C10   C     C_R   0.495982 0.577045 0.276733 0.380872
C11   C     C_R   0.512128 0.496155 0.251651 0.049760
C12   C     C_R   0.528584 0.505279 0.100447 -0.114833
C13   C     C_R   0.446992 0.499964 0.122793 -0.131254
C14   C     C_R   0.372603 0.504045 0.093133 0.387859
C15   C     C_R   0.604124 0.501708 0.128435 -0.127736
C16   C     C_R   0.502126 0.497870 0.352681 -0.145343
H1    H     H_    0.476315 0.638194 0.346415 0.228041
C17   C     C_R   0.506432 0.504142 0.647288 -0.258768
C18   C     C_R   0.471235 0.562732 0.974323 -0.066918
C19   C     C_R   0.616080 0.502142 0.974831 -0.043953
C20   C     C_R   0.545736 0.536798 0.949176 0.045165
C21   C     C_R   0.410626 0.617196 0.950733 0.181052
C22   C     C_R   0.418635 0.632988 0.900705 0.356298
C23   C     C_R   0.479921 0.583749 0.873735 -0.181245
C24   C     C_R   0.547490 0.541494 0.898323 -0.114341
C25   C     C_R   0.615104 0.501522 0.872104 -0.152649
C26   C     C_R   0.608507 0.496599 0.821215 0.675235
N2    N     N_R   0.539010 0.530576 0.798566 -0.340134
C27   C     C_R   0.475085 0.572421 0.823230 0.710840
C28   C     C_R   0.487396 0.444536 0.728073 0.220352
C29   C     C_R   0.470903 0.438574 0.677883 0.335888
C30   C     C_R   0.552407 0.576235 0.667093 -0.311617
C31   C     C_R   0.563747 0.585553 0.716667 0.407657
C32   C     C_R   0.530891 0.519730 0.747258 -0.009247
O10   O     O_2   0.404996 0.597531 0.798825 -0.418890
C33   C     C_R   0.461822 0.534940 0.022773 0.051297
C34   C     C_R   0.534849 0.515515 0.049822 0.109516
C35   C     C_R   0.614195 0.507923 0.026230 0.040174
C36   C     C_R   0.381804 0.522308 0.043964 -0.190639
H2    H     H_    0.325787 0.523623 0.021404 0.208230
O11   O     O_2   0.665325 0.511040 0.207705 -0.426275
C37   C     C_R   0.684429 0.503212 0.104895 0.326075
H3    H     H_    0.527194 0.356816 0.347343 0.233336
C38   C     C_R   0.683680 0.461537 0.948419 0.176715
C39   C     C_R   0.683917 0.463150 0.897501 0.248682
O12   O     O_2   0.669067 0.456119 0.794231 -0.434846
C40   C     C_R   0.688268 0.507878 0.054556 -0.156299
H4    H     H_    0.579858 0.625868 0.643494 0.222712
H5    H     H_    0.750388 0.513089 0.038014 0.214869
C41   C     C_3   0.047330 0.588968 0.514845 0.575905
C42   C     C_3   0.047498 0.408977 0.522670 0.561501
C43   C     C_3   0.949549 0.426883 0.525092 -0.478410
C44   C     C_3   0.952938 0.590946 0.498672 -0.463493
H6    H     H_    0.910479 0.622856 0.526089 0.238049
H7    H     H_    0.929725 0.449664 0.561125 0.263622
H8    H     H_    0.911925 0.364219 0.522148 0.259764
H9    H     H_    0.946705 0.636322 0.468221 0.283949
C45   C     C_1   0.750984 0.500086 0.495488 -0.059192
C46   C     C_3   0.083014 0.492423 0.490017 -0.385324
C47   C     C_3   0.917871 0.495428 0.485905 -0.134401
C48   C     C_3   0.946655 0.468715 0.431727 0.288768
C49   C     C_3   0.051443 0.477981 0.431329 0.354746
C50   C     C_1   0.825984 0.498601 0.490805 0.180893
C51   C     C_1   0.174208 0.495461 0.493165 0.216549
C52   C     C_1   0.249336 0.498480 0.496735 0.065414
C53   C     C_3   0.415231 0.052035 0.513401 -0.364500
C54   C     C_3   0.419539 0.949185 0.520101 -0.344113
C55   C     C_3   0.572579 0.054133 0.528683 0.045428
C56   C     C_3   0.578951 0.949446 0.523619 0.007206
H10   H     H_    0.420113 0.934819 0.559369 0.266698
H11   H     H_    0.397185 0.084620 0.548261 0.241394
H12   H     H_    0.634539 0.082270 0.517223 0.194135
H13   H     H_    0.635862 0.934782 0.501821 0.188781
N3    N     N_1   0.498630 0.731150 0.499030 -0.047432
N4    N     N_1   0.498630 0.268850 0.499030 -0.039098
C57   C     C_3   0.501226 0.090242 0.494178 -0.238000
C58   C     C_3   0.500061 0.909766 0.494702 -0.216848
C59   C     C_3   0.500966 0.943413 0.439187 0.443126
C60   C     C_3   0.517973 0.053356 0.439700 0.428357
C61   C     C_1   0.499028 0.809086 0.497465 0.379989
C62   C     C_1   0.499233 0.190877 0.497326 0.360828
H14   H     H_    0.362157 0.069007 0.489397 0.289062
H15   H     H_    0.360172 0.916528 0.507264 0.242166
S1    S     S_3+6 0.540402 0.313020 0.246633 0.134811
O13   O     O_2   0.471683 0.297153 0.209645 -0.183807
O14   O     O_2   0.624875 0.315930 0.221086 -0.218576
O15   O     O_3   0.540085 0.227763 0.285688 -0.413989
H16   H     H_    0.596649 0.230125 0.301502 0.385811
N5    N     N_R   0.763040 0.494948 0.130808 0.263564
O16   O     O_R   0.824789 0.551023 0.122812 -0.259864
O17   O     O_R   0.779385 0.421277 0.153431 -0.209865
N6    N     N_R   0.745708 0.407022 0.972139 0.216671
O18   O     O_R   0.826645 0.419960 0.964799 -0.249272
O19   O     O_R   0.721107 0.340481 0.998659 -0.276399
N7    N     N_R   0.753037 0.421510 0.872061 0.277929
O20   O     O_R   0.813846 0.470295 0.854193 -0.222693
O21   O     O_R   0.759233 0.334918 0.870652 -0.222092
S2    S     S_3+6 0.620870 0.679209 0.739572 0.132480
O22   O     O_2   0.565961 0.730343 0.774697 -0.167984
O23   O     O_2   0.699155 0.648393 0.765679 -0.233400
O24   O     O_3   0.649861 0.747764 0.694575 -0.432107
H17   H     H_    0.700220 0.719187 0.679414 0.372369
S3    S     S_3+6 0.039159 0.614545 0.581472 0.130960
O25   O     O_2   0.124016 0.627132 0.605777 -0.130896
O26   O     O_2   0.995858 0.703930 0.585495 -0.215656
O27   O     O_3   0.979507 0.547102 0.615621 -0.531849
H18   H     H_    0.978216 0.575829 0.648150 0.422618
S4    S     S_3+6 0.102430 0.399238 0.582366 0.152699
O28   O     O_2   0.162099 0.473942 0.594187 -0.231599
O29   O     O_2   0.038515 0.388302 0.622435 -0.186389
O30   O     O_3   0.167219 0.309676 0.584008 -0.442572
H19   H     H_    0.180418 0.301241 0.618740 0.403119
S5    S     S_3+6 0.055681 0.290120 0.504195 0.139676
O31   O     O_2   0.990162 0.257945 0.468765 -0.194761
O32   O     O_2   0.143881 0.267729 0.486861 -0.189266
O33   O     O_3   0.035041 0.226691 0.552952 -0.448881
H20   H     H_    0.052409 0.165432 0.543369 0.407452
S6    S     S_3+6 0.106566 0.692547 0.497089 0.128329
O34   O     O_2   0.174875 0.677690 0.460245 -0.248132
O35   O     O_2   0.045122 0.761540 0.479254 -0.212494
O36   O     O_3   0.158392 0.742282 0.543614 -0.436791
H21   H     H_    0.181796 0.798475 0.530386 0.389247
S7    S     S_3+6 0.483631 0.679246 0.245940 0.126946
O37   O     O_2   0.558237 0.693860 0.212849 -0.198077
O38   O     O_2   0.403727 0.676150 0.216036 -0.220215
O39   O     O_3   0.477945 0.765540 0.285412 -0.422019
H22   H     H_    0.418798 0.764301 0.297860 0.398948
S8    S     S_3+6 0.081369 0.570368 0.389990 0.149726
O40   O     O_2   0.176724 0.579250 0.388265 -0.196355
O41   O     O_2   0.054016 0.549805 0.338914 -0.158919
O42   O     O_3   0.035886 0.669118 0.401630 -0.477889
H23   H     H_    0.060862 0.710503 0.377723 0.425946
S9    S     S_3+6 0.112703 0.385751 0.398759 0.177181
O43   O     O_2   0.201473 0.380050 0.418447 -0.245661
O44   O     O_2   0.076521 0.293379 0.399524 -0.152741
O45   O     O_3   0.126574 0.404484 0.339205 -0.389340
H24   H     H_    0.076046 0.378221 0.322844 0.413273
N8    N     N_R   0.904439 0.528747 0.395797 0.246598
O46   O     O_R   0.854489 0.593899 0.408917 -0.344590
O47   O     O_R   0.900204 0.504471 0.350384 -0.207981
N9    N     N_R   0.915846 0.377541 0.418712 0.249983
O48   O     O_R   0.930660 0.345459 0.375469 -0.241215
O49   O     O_R   0.851341 0.342678 0.441452 -0.317771
N10   N     N_R   0.561604 0.085687 0.579232 0.266515
O50   O     O_R   0.504341 0.051754 0.607772 -0.273106
O51   O     O_R   0.613532 0.145759 0.596830 -0.271251
N11   N     N_R   0.596026 0.907641 0.570770 0.264363
O52   O     O_R   0.541099 0.856031 0.592101 -0.331502
O53   O     O_R   0.669175 0.921907 0.591638 -0.246569
S10   S     S_3+6 0.452412 0.116312 0.396273 0.144314
O54   O     O_2   0.486587 0.209920 0.392866 -0.281742
O55   O     O_2   0.458917 0.074982 0.346562 -0.104786
O56   O     O_3   0.349269 0.126607 0.411194 -0.503378
H25   H     H_    0.323762 0.162006 0.384877 0.423293
S11   S     S_3+6 0.398898 0.907972 0.410306 0.112846
O57   O     O_2   0.405133 0.913973 0.356135 -0.148406
O58   O     O_2   0.380967 0.811836 0.421754 -0.273114
O59   O     O_3   0.312723 0.965353 0.428343 -0.528393
H26   H     H_    0.264456 0.937863 0.410442 0.417644
S12   S     S_3+6 0.627130 0.087641 0.420964 0.103764
O60   O     O_2   0.642771 0.183094 0.436168 -0.278871
O61   O     O_2   0.697222 0.033205 0.442403 -0.251679
O62   O     O_3   0.637127 0.083384 0.360287 -0.407644
H27   H     H_    0.693801 0.109644 0.353501 0.408834
S13   S     S_3+6 0.578826 0.878187 0.403109 0.135277
O63   O     O_2   0.588883 0.917442 0.353655 -0.101730
O64   O     O_2   0.664732 0.870320 0.426353 -0.261971
O65   O     O_3   0.542789 0.773197 0.394911 -0.523770
H28   H     H_    0.590003 0.740944 0.378606 0.396789
S14   S     S_3+6 0.266259 0.489597 0.114146 0.177381
O66   O     O_2   0.257695 0.400479 0.138140 -0.125845
O67   O     O_2   0.244556 0.562297 0.150131 -0.163146
O68   O     O_3   0.196060 0.492915 0.068147 -0.464282
H29   H     H_    0.186732 0.557251 0.062213 0.394788
S15   S     S_3+6 0.399553 0.355297 0.654909 0.120594
O69   O     O_2   0.346108 0.392908 0.614949 -0.279689
O70   O     O_2   0.450516 0.278102 0.635341 -0.217606
O71   O     O_3   0.333763 0.318668 0.698545 -0.441547
H30   H     H_    0.302422 0.267901 0.683535 0.395438
N12   N     N_R   0.463228 0.373179 0.759541 0.262148
O72   O     O_R   0.416146 0.388477 0.797519 -0.300178
O73   O     O_R   0.491143 0.292766 0.751168 -0.226360
S16   S     S_3+6 0.361048 0.723173 0.874536 0.180348
O74   O     O_2   0.411256 0.763800 0.833945 -0.178383
O75   O     O_2   0.277627 0.688372 0.855280 -0.162090
O76   O     O_3   0.341991 0.804118 0.915940 -0.445077
H31   H     H_    0.305064 0.847391 0.899199 0.412310
N13   N     N_R   0.346616 0.663790 0.978242 0.232016
O77   O     O_R   0.368030 0.713149 0.015475 -0.278671
O78   O     O_R   0.266660 0.655964 0.966543 -0.279117

loop_
_geom_bond_atom_site_label_1
_geom_bond_atom_site_label_2
_geom_bond_distance
_ccdc_geom_bond_type
S7    O39   1.681915 S    
N5    O16   1.301085 A    
C56   N11   1.476586 S    
C59   S11   1.863304 S    
C48   C49   1.651408 S    
C41   S6    1.876124 S    
C49   S9    1.902322 S    
S6    O35   1.504509 D    
C7    C8    1.392939 A    
C12   C15   1.417949 A    
C55   H12   1.106633 S    
O33   H20   0.990784 S    
C54   H10   1.107651 S    
N6    O19   1.301397 A    
S9    O43   1.500131 D    
O68   H29   0.990936 S    
C15   C37   1.418728 A    
O30   H19   0.990643 S    
S11   O58   1.503511 D    
C31   C32   1.402809 A    
C30   C31   1.384960 A    
Zn1   O7    2.005564 S    
O56   H25   0.990601 S    
C60   S12   1.862723 S    
C35   C40   1.402327 A    
C43   H8    1.109172 S    
C23   C24   1.416080 A    
S8    O41   1.501643 D    
S10   O54   1.503222 D    
C8    H3    1.080243 S    
O4    C2    1.281225 A    
C48   N8    1.503463 S    
O7    C4    1.280432 A    
C5    C13   1.410543 A    
Zn1   N3    1.977984 S    
C3    C45   1.397926 S    
S14   O67   1.504034 D    
O42   H23   0.990808 S    
S10   O56   1.678654 S    
S1    O15   1.681630 S    
C38   C39   1.405731 A    
Zn1   O5    1.966924 S    
C21   C22   1.409258 A    
C28   C32   1.412140 A    
O5    C3    1.272134 A    
O27   H18   0.990637 S    
S15   O71   1.682253 S    
C37   N5    1.434075 S    
C6    O11   1.348889 S    
S14   O66   1.503114 D    
C53   H11   1.110148 S    
C33   C36   1.399143 A    
C2    C16   1.462727 S    
N11   O52   1.301600 A    
S4    O29   1.503110 D    
N13   O77   1.301578 A    
S3    O26   1.506766 D    
S1    O14   1.502904 D    
S5    O33   1.687671 S    
N7    O20   1.300947 A    
S8    O42   1.672297 S    
C60   S10   1.850725 S    
O76   H31   0.990562 S    
N9    O49   1.302506 A    
S4    O30   1.688090 S    
C22   S16   1.788978 S    
S16   O76   1.682574 S    
C56   C58   1.583993 S    
S13   O65   1.681597 S    
S5    O31   1.494247 D    
C59   S13   1.850343 S    
N5    O17   1.301369 A    
C9    C10   1.392190 A    
N7    O21   1.300952 A    
C17   C30   1.401782 A    
C23   C27   1.403980 A    
C4    C17   1.463897 S    
C47   C50   1.450567 S    
N6    O18   1.301435 A    
S9    O44   1.493877 D    
S12   O61   1.499279 D    
C55   N10   1.477231 S    
S11   O59   1.678075 S    
S10   O55   1.501252 D    
C37   C40   1.393139 A    
C25   C26   1.409258 A    
C40   H5    1.079984 S    
C54   C58   1.560005 S    
C18   C20   1.413329 A    
C36   H2    1.078724 S    
C43   H7    1.092591 S    
S7    O37   1.502286 D    
C12   C13   1.424286 A    
C38   N6    1.437297 S    
O3    C2    1.282447 A    
S11   O57   1.501937 D    
C31   S2    1.771943 S    
C55   C56   1.575803 S    
C8    C16   1.400226 A    
S13   O64   1.500363 D    
C13   C14   1.429208 A    
C42   C43   1.564139 S    
C26   O12   1.348643 S    
C49   S8    1.863346 S    
C20   C24   1.406327 A    
S2    O22   1.501573 D    
O1    C1    1.272820 A    
S14   O68   1.683535 S    
N12   O73   1.301091 A    
C7    C11   1.409611 A    
O71   H30   0.990517 S    
C54   H15   1.107586 S    
C24   C25   1.415152 A    
C21   N13   1.437001 S    
C46   C49   1.705062 S    
C25   C39   1.416566 A    
O62   H27   0.990541 S    
C57   C60   1.616688 S    
C29   S15   1.784067 S    
Zn2   O8    1.996004 S    
S3    O27   1.674004 S    
S1    O13   1.502362 D    
N11   O53   1.301374 A    
N1    C6    1.361753 A    
C27   O10   1.348458 S    
C18   C21   1.420107 A    
N1    C11   1.428967 S    
S8    O40   1.504044 D    
C58   C61   1.510754 S    
C51   C52   1.184975 T    
S2    O24   1.682922 S    
C19   C35   1.420266 A    
C42   S5    1.850164 S    
S13   O63   1.501050 D    
C14   S14   1.781190 S    
N13   O78   1.301536 A    
C33   C34   1.402696 A    
C39   N7    1.433043 S    
C9    C16   1.398524 A    
O8    C4    1.283268 A    
C44   H6    1.112681 S    
C18   C33   1.413032 A    
O36   H21   0.990943 S    
N8    O47   1.302070 A    
C17   C29   1.416037 A    
S6    O36   1.684617 S    
C28   C29   1.410936 A    
N2    C32   1.428888 S    
S12   O60   1.503890 D    
C1    C52   1.394777 S    
C26   N2    1.362093 A    
S9    O45   1.684737 S    
S4    O28   1.489696 D    
O24   H17   0.990740 S    
C53   C57   1.560233 S    
C12   C34   1.410813 A    
S7    O38   1.502963 D    
C57   C62   1.508959 S    
N2    C27   1.362832 A    
C41   C44   1.549345 S    
O1    Zn1   1.964428 S    
O2    Zn2   1.967374 S    
C6    C15   1.402617 A    
C42   C46   1.645634 S    
C47   C48   1.607722 S    
O6    C3    1.271747 A    
O4    Zn2   2.006443 S    
S12   O62   1.682143 S    
C5    N1    1.363256 A    
C53   H14   1.097958 S    
C44   C47   1.566776 S    
N8    O46   1.302065 A    
O15   H16   0.990540 S    
C10   S7    1.771761 S    
Zn2   N4    1.977050 S    
C19   C20   1.416739 A    
N10   O51   1.301516 A    
O2    C1    1.270870 A    
N9    O48   1.301802 A    
S15   O69   1.503242 D    
C55   C57   1.573376 S    
N3    C61   1.168555 T    
C14   C36   1.395016 A    
N12   O72   1.300722 A    
C42   S4    1.868036 S    
C53   C54   1.555508 S    
C59   C60   1.666892 S    
C46   C51   1.435742 S    
C9    H1    1.079990 S    
C30   H4    1.082708 S    
C44   H9    1.092341 S    
C5    O9    1.345315 S    
N4    C62   1.168161 T    
C41   C46   1.689493 S    
S6    O34   1.493028 D    
O45   H24   0.990962 S    
C43   C47   1.582686 S    
S2    O23   1.502989 D    
S15   O70   1.503186 D    
O39   H22   0.990549 S    
C7    S1    1.771040 S    
S16   O74   1.503218 D    
C28   N12   1.435556 S    
C41   S3    1.877700 S    
N10   O50   1.301323 A    
O3    Zn1   1.996875 S    
Zn2   O6    1.963977 S    
C34   C35   1.410089 A    
O59   H26   0.990562 S    
C48   N9    1.486560 S    
C45   C50   1.185384 T    
S5    O32   1.503150 D    
C10   C11   1.411163 A    
C22   C23   1.419469 A    
C58   C59   1.619098 S    
C19   C38   1.421676 A    
C56   H13   1.098481 S    
O65   H28   0.991254 S    
S3    O25   1.502802 D    
S16   O75   1.503217 D    
