data_mof_unit_14564.cif
_audit_creation_date              2012-12-10T17:21:15-0500
_audit_creation_method            fapswitch 2.2
_symmetry_space_group_name_H-M    P1
_symmetry_Int_Tables_number       1
_space_group_crystal_system       triclinic
_cell_length_a                    9.619838
_cell_length_b                    10.780815
_cell_length_c                    13.878619
_cell_angle_alpha                 92.75239
_cell_angle_beta                  84.830347
_cell_angle_gamma                 89.907722
_cell_volume                      1431.81323751

loop_
_atom_site_label
_atom_site_type_symbol
_atom_type_description
_atom_site_fract_x
_atom_site_fract_y
_atom_site_fract_z
_atom_type_partial_charge
C1    C     C_R   0.499352 0.737411 0.503912 0.786634
C2    C     C_1   0.463516 0.500473 0.786051 -0.143701
C3    C     C_R   0.327347 0.880132 0.655968 -0.249923
C4    C     C_R   0.242162 0.948865 0.726820 0.035487
C5    C     C_R   0.242372 0.078539 0.725622 -0.178867
C6    C     C_R   0.326028 0.138779 0.655338 -0.204322
C7    C     C_R   0.410179 0.070647 0.582566 0.107256
C8    C     C_R   0.410520 0.939509 0.582686 0.076145
C9    C     C_R   0.498347 0.871706 0.511282 -0.085866
C10   C     C_R   0.588691 0.932617 0.445155 -0.192701
C11   C     C_R   0.588619 0.060476 0.445507 -0.207371
C12   C     C_R   0.477286 0.500497 0.682825 0.797059
C13   C     C_R   0.498290 0.129635 0.511520 -0.078995
C14   C     C_R   0.874376 0.337260 0.368151 -0.160946
C15   C     C_R   0.956058 0.260929 0.300734 0.159341
C16   C     C_R   0.099581 0.260817 0.303087 -0.244818
C17   C     C_R   0.161504 0.337158 0.369736 -0.167903
C18   C     C_R   0.083318 0.419819 0.435889 0.208607
C19   C     C_R   0.934019 0.419826 0.435582 0.170915
C20   C     C_R   0.918120 0.576340 0.561052 -0.039709
C21   C     C_R   0.065854 0.576353 0.560990 -0.043047
C22   C     C_R   0.499429 0.263053 0.504027 0.761938
C23   C     C_R   0.522596 0.500434 0.317219 0.799781
C24   C     C_1   0.535753 0.501933 0.214067 -0.178592
C25   C     C_2   0.556929 0.503150 0.023506 -0.161722
C26   C     C_2   0.441769 0.500316 0.976678 -0.149231
C27   C     C_1   0.452618 0.500409 0.872956 0.032493
C28   C     C_1   0.546188 0.502740 0.127196 0.010367
Cu1   Cu    Cu3+1 0.359340 0.500010 0.500010 0.940833
Cu2   Cu    Cu3+1 0.640660 0.499990 0.499990 0.942114
H1    H     H_    0.338905 0.497807 0.015929 0.165010
H2    H     H_    0.765155 0.328384 0.364589 0.197809
H3    H     H_    0.165037 0.200998 0.252858 0.151621
H4    H     H_    0.271543 0.327369 0.365418 0.207010
H5    H     H_    0.114235 0.639092 0.610997 0.161199
H6    H     H_    0.659804 0.505497 0.984258 0.162695
H7    H     H_    0.657360 0.880722 0.391419 0.153237
H8    H     H_    0.330198 0.780353 0.660110 0.171624
H9    H     H_    0.179144 0.134128 0.780076 0.184763
H10   H     H_    0.325678 0.239080 0.660234 0.165507
H11   H     H_    0.656868 0.106107 0.392392 0.134883
H12   H     H_    0.856567 0.639063 0.611119 0.145793
N1    N     N_R   0.852210 0.498790 0.499090 -0.194338
N2    N     N_R   0.148080 0.498710 0.499060 -0.198356
O1    O     O_R   0.381190 0.680360 0.500010 -0.577455
O2    O     O_R   0.618760 0.680340 0.500000 -0.574056
O3    O     O_R   0.364420 0.499990 0.637850 -0.574386
O4    O     O_R   0.601990 0.499960 0.637840 -0.569449
O5    O     O_R   0.381240 0.319660 0.500000 -0.603628
O6    O     O_R   0.618810 0.319640 0.499990 -0.589982
O7    O     O_R   0.398010 0.500040 0.362160 -0.583287
O8    O     O_R   0.635580 0.500010 0.362150 -0.589648
C29   C     C_3   0.890621 0.178236 0.226403 -0.413396
C30   C     C_3   0.819281 0.254100 0.154802 -0.799982
H13   H     H_    0.729418 0.306388 0.192482 0.241496
H14   H     H_    0.894160 0.320055 0.119633 0.261481
H15   H     H_    0.779918 0.190936 0.097941 0.248388
H16   H     H_    0.970807 0.117824 0.184635 0.214396
H17   H     H_    0.813809 0.115689 0.262993 0.189152
C31   C     C_2   0.154437 0.885632 0.802997 0.826341
O9    O     O_2   0.154344 0.772241 0.804394 -0.618743
O10   O     O_R   0.071258 0.955698 0.873612 -0.772934
H18   H     H_    0.016363 0.902100 0.921445 0.335979

loop_
_geom_bond_atom_site_label_1
_geom_bond_atom_site_label_2
_ccdc_geom_bond_type
C23   O8    A    
C20   H12   S    
C23   C24   S    
Cu1   Cu2   S    
C21   H5    S    
C18   N2    A    
C16   H3    S    
C21   N2    A    
C9    C10   A    
C23   O7    A    
C12   O4    A    
C29   H16   S    
C2    C12   S    
C4    C31   S    
O10   H18   S    
C12   O3    A    
C17   C18   A    
C29   H17   S    
C26   H1    S    
Cu1   O5    S    
C29   C30   S    
C25   C28   S    
C11   C13   A    
C1    O1    A    
C26   C27   S    
C2    C27   T    
Cu1   O3    S    
C22   O5    A    
C4    C5    A    
C15   C29   S    
Cu2   O4    S    
C19   N1    A    
C13   C22   S    
C11   H11   S    
C6    C7    A    
C6    H10   S    
C10   C11   A    
C5    H9    S    
Cu1   N2    S    
Cu2   O6    S    
C5    C6    A    
Cu2   N1    S    
C30   H14   S    
C1    O2    A    
C3    C8    A    
C17   H4    S    
C25   H6    S    
C15   C16   A    
C24   C28   T    
C22   O6    A    
C7    C8    A    
C20   N1    A    
C1    C9    S    
C20   C21   A    
C10   H7    S    
C18   C19   A    
Cu1   O7    S    
Cu1   O1    S    
Cu2   O8    S    
C14   C15   A    
C16   C17   A    
C7    C13   A    
C25   C26   D    
C30   H13   S    
C14   C19   A    
Cu2   O2    S    
C31   O9    D    
C31   O10   S    
C3    C4    A    
C3    H8    S    
C14   H2    S    
C8    C9    A    
C30   H15   S    
