data_mof_unit_52958.cif
_audit_creation_date              2013-03-05T16:09:50-0500
_audit_creation_method            fapswitch 2.2
_symmetry_space_group_name_H-M    P1
_symmetry_Int_Tables_number       1
_space_group_crystal_system       triclinic
_cell_length_a                    6.949788
_cell_length_b                    13.374381
_cell_length_c                    14.692126
_cell_angle_alpha                 98.939653
_cell_angle_beta                  90.190724
_cell_angle_gamma                 89.971031
_cell_volume                      1349.02380873

loop_
_atom_site_label
_atom_site_type_symbol
_atom_site_description
_atom_site_fract_x
_atom_site_fract_y
_atom_site_fract_z
_atom_type_partial_charge
O1    O     O_R   0.354890 0.151580 0.148210 -0.592403
O2    O     O_R   0.645110 0.848420 0.851790 -0.592404
O3    O     O_R   0.682370 0.152980 0.336770 -0.558294
O4    O     O_R   0.317630 0.847020 0.663230 -0.558293
O5    O     O_R   0.854980 0.348430 0.351800 -0.597572
O6    O     O_R   0.145020 0.651570 0.648200 -0.597572
C1    C     C_R   0.514482 0.131386 0.366326 0.998541
C2    C     C_R   0.485518 0.868614 0.633674 0.998540
O7    O     O_R   0.684450 0.139580 0.148000 -0.586302
O8    O     O_R   0.315550 0.860420 0.852000 -0.586302
O9    O     O_R   0.857080 0.334940 0.161680 -0.591204
O10   O     O_R   0.142920 0.665060 0.838320 -0.591204
C3    C     C_R   0.515439 0.112683 0.114051 0.995679
C4    C     C_R   0.484561 0.887317 0.885949 0.995679
O11   O     O_R   0.352790 0.165070 0.338330 -0.567213
O12   O     O_R   0.647210 0.834930 0.661670 -0.567212
O13   O     O_3   0.522170 0.314120 0.254710 -0.293513
O14   O     O_3   0.477830 0.685880 0.745290 -0.293513
V1    V     V_3+5 0.796120 0.238110 0.249130 1.255697
V2    V     V_3+5 0.203880 0.761890 0.750870 1.255697
O15   O     O_R   0.186930 0.347040 0.163240 -0.605477
O16   O     O_R   0.813070 0.652960 0.836760 -0.605477
C5    C     C_R   0.018112 0.368741 0.133738 1.015325
C6    C     C_R   0.981888 0.631259 0.866262 1.015325
O17   O     O_R   0.184850 0.360440 0.352010 -0.597153
O18   O     O_R   0.815150 0.639560 0.647990 -0.597152
C7    C     C_R   0.015945 0.387280 0.385983 1.011853
C8    C     C_R   0.984055 0.612720 0.614017 1.011853
V3    V     V_3+5 0.296410 0.261900 0.250880 1.227891
V4    V     V_3+5 0.703590 0.738100 0.749120 1.227891
O19   O     O_3   0.020490 0.185890 0.245290 -0.237440
O20   O     O_3   0.979510 0.814110 0.754710 -0.237439
C9    C     C_1   0.005280 0.466896 0.466348 -0.228554
C10   C     C_1   0.994720 0.533104 0.533652 -0.228555
C11   C     C_3   0.078125 0.588232 0.033300 0.892470
C12   C     C_3   0.921875 0.411768 0.966700 0.892470
C13   C     C_3   0.903136 0.541846 0.075995 -0.336732
C14   C     C_3   0.096864 0.458153 0.924004 -0.336732
H1    H     H_    0.825434 0.576816 0.138858 0.174709
H2    H     H_    0.174566 0.423184 0.861142 0.174709
C15   C     C_3   0.009180 0.439102 0.063337 -0.331508
C16   C     C_3   0.990820 0.560898 0.936663 -0.331509
C17   C     C_3   0.185731 0.486132 0.021983 -0.291488
C18   C     C_3   0.814268 0.513868 0.978017 -0.291488
H3    H     H_    0.338533 0.475974 0.040847 0.173846
H4    H     H_    0.661467 0.524026 0.959153 0.173846
C19   C     C_3   0.325623 0.026205 0.479427 0.518579
C20   C     C_3   0.674377 0.973794 0.520573 0.518579
C21   C     C_3   0.398271 0.916017 0.465846 -0.233361
C22   C     C_3   0.601729 0.083983 0.534154 -0.233361
H5    H     H_    0.312332 0.848038 0.438324 0.194672
H6    H     H_    0.687668 0.151962 0.561676 0.194672
C23   C     C_3   0.491096 0.938551 0.563047 -0.301430
C24   C     C_3   0.508903 0.061449 0.436953 -0.301429
C25   C     C_3   0.413357 0.048561 0.576947 -0.239163
C26   C     C_3   0.586643 0.951438 0.423053 -0.239162
H7    H     H_    0.338944 0.087623 0.639233 0.189444
H8    H     H_    0.661056 0.912377 0.360767 0.189444
C27   C     C_1   0.504827 0.033103 0.033671 -0.192165
C28   C     C_1   0.495173 0.966897 0.966329 -0.192164
F1    F     F_    0.159855 0.680727 0.067529 -0.702635
F2    F     F_    0.840145 0.319273 0.932471 -0.702635
N1    N     N_R   0.134713 0.057519 0.454231 0.249799
O21   O     O_R   0.055406 0.013261 0.378240 -0.389118
O22   O     O_R   0.064276 0.142723 0.495389 -0.425781
N2    N     N_R   0.865287 0.942481 0.545768 0.249799
O23   O     O_R   0.944594 0.986739 0.621760 -0.389118
O24   O     O_R   0.935724 0.857276 0.504610 -0.425781

loop_
_geom_bond_atom_site_label_1
_geom_bond_atom_site_label_2
_geom_bond_distance
_ccdc_geom_bond_type
N2    O24   1.300434 A    
N1    O22   1.300434 A    
O13   V3    1.714923 S    
O4    C2    1.294629 A    
V1    O19   1.705781 S    
C19   C21   1.541123 S    
C7    C9    1.463973 S    
O9    V1    2.007164 S    
C22   C24   1.551368 S    
C11   C13   1.544071 S    
C14   C16   1.544824 S    
O3    C1    1.294628 A    
C19   N1    1.455039 S    
O12   V4    1.998674 S    
C6    C16   1.503751 S    
C11   C16   1.533237 S    
O7    C3    1.303310 A    
O5    C7    1.299762 A    
O7    V1    1.982758 S    
O6    C8    1.299762 A    
O8    V2    1.982758 S    
C21   H5    1.109736 S    
C22   H6    1.109736 S    
O3    V1    2.010608 S    
O14   V4    1.714922 S    
V4    O20   2.166172 S    
C11   C17   1.542985 S    
C20   C22   1.541123 S    
N2    O23   1.300585 A    
C8    C10   1.463973 S    
C27   C28   1.222622 T    
C2    O12   1.299573 A    
C15   C17   1.547524 S    
C12   C15   1.533237 S    
C16   C18   1.547524 S    
C12   F2    1.382499 S    
C18   H4    1.110217 S    
O11   V3    1.998673 S    
C23   C25   1.550781 S    
O17   V3    1.985880 S    
C20   C23   1.526885 S    
C24   C26   1.550781 S    
O8    C4    1.303309 A    
C1    O11   1.299573 A    
O15   V3    1.995441 S    
O10   V2    2.007162 S    
O1    V3    1.982254 S    
C9    C10   1.222937 T    
C11   F1    1.382498 S    
C17   H3    1.110217 S    
C19   C24   1.526886 S    
C3    C27   1.463475 S    
O18   V4    1.985879 S    
C25   H7    1.110006 S    
O16   C6    1.297691 A    
C12   C18   1.542985 S    
O1    C3    1.299795 A    
C12   C14   1.544071 S    
C4    C28   1.463475 S    
C19   C25   1.541178 S    
V2    O20   1.705781 S    
C20   C26   1.541179 S    
O16   V4    1.995438 S    
C2    C23   1.501699 S    
O5    V1    1.981039 S    
O17   C7    1.305262 A    
C21   C26   1.559569 S    
O6    V2    1.981039 S    
O10   C6    1.298696 A    
O18   C8    1.305263 A    
C22   C25   1.559569 S    
C5    C15   1.503751 S    
O2    V4    1.982255 S    
C13   C18   1.555816 S    
O15   C5    1.297691 A    
C14   C17   1.555816 S    
V3    O19   2.166172 S    
C14   H2    1.110040 S    
C21   C23   1.551368 S    
O9    C5    1.298695 A    
O13   V1    2.153640 S    
C26   H8    1.110006 S    
O14   V2    2.153640 S    
C13   C15   1.544824 S    
O2    C4    1.299794 A    
N1    O21   1.300585 A    
O4    V2    2.010607 S    
C13   H1    1.110040 S    
C1    C24   1.501699 S    
C20   N2    1.455039 S    
