data_mof_unit_45681.cif
_audit_creation_date              2012-12-10T17:11:27-0500
_audit_creation_method            fapswitch 2.2
_symmetry_space_group_name_H-M    P1
_symmetry_Int_Tables_number       1
_space_group_crystal_system       triclinic
_cell_length_a                    14.996651
_cell_length_b                    13.02044
_cell_length_c                    11.76945
_cell_angle_alpha                 100.390803
_cell_angle_beta                  95.245936
_cell_angle_gamma                 90.665942
_cell_volume                      2250.05411421

loop_
_atom_site_label
_atom_site_type_symbol
_atom_type_description
_atom_site_fract_x
_atom_site_fract_y
_atom_site_fract_z
_atom_type_partial_charge
C1    C     C_R   0.500152 0.299635 0.478636 0.790682
C2    C     C_R   0.499896 0.700322 0.521332 0.791567
C3    C     C_R   0.046922 0.322083 0.550305 0.138772
C4    C     C_R   0.951554 0.668602 0.432079 0.145371
C5    C     C_R   0.504217 0.813150 0.532239 -0.063496
C6    C     C_R   0.496142 0.186697 0.467617 -0.064646
C7    C     C_R   0.409221 0.028641 0.392619 -0.218255
C8    C     C_R   0.591536 0.970970 0.606688 -0.215084
C9    C     C_R   0.426143 0.133203 0.394103 -0.252130
C10   C     C_R   0.574834 0.866305 0.604811 -0.255276
C11   C     C_R   0.553886 0.134406 0.538939 0.100289
C12   C     C_R   0.446071 0.865608 0.461628 0.090662
C13   C     C_R   0.536928 0.026634 0.536819 0.118655
C14   C     C_R   0.463239 0.973293 0.463453 0.101657
C15   C     C_R   0.396049 0.432271 0.019800 0.351276
C16   C     C_R   0.591151 0.590721 0.984160 0.351695
C17   C     C_R   0.410156 0.428118 0.140277 0.242810
C18   C     C_R   0.584278 0.581344 0.861055 0.244858
C19   C     C_R   0.542520 0.533673 0.158420 -0.016895
C20   C     C_R   0.456691 0.468206 0.842290 -0.031510
C21   C     C_R   0.532945 0.532896 0.036307 -0.130097
C22   C     C_R   0.462010 0.476721 0.965556 -0.144274
C23   C     C_R   0.328870 0.498689 0.498856 0.798709
C24   C     C_R   0.671120 0.500269 0.500973 0.795313
C25   C     C_R   0.811521 0.582870 0.466581 -0.257286
C26   C     C_R   0.187941 0.412019 0.526122 -0.275308
C27   C     C_R   0.767699 0.501275 0.502881 -0.034303
C28   C     C_R   0.232241 0.496589 0.496045 -0.036831
C29   C     C_R   0.815265 0.419013 0.536794 -0.240393
C30   C     C_R   0.184685 0.578673 0.461881 -0.245162
C31   C     C_R   0.907598 0.415753 0.531461 0.074774
C32   C     C_R   0.091985 0.579814 0.462554 0.076382
C33   C     C_R   0.953113 0.498826 0.497192 0.028890
C34   C     C_R   0.046318 0.495899 0.494936 0.031665
C35   C     C_R   0.905142 0.584485 0.465184 0.056798
C36   C     C_R   0.094049 0.409020 0.524143 0.060042
C37   C     C_R   0.953939 0.328864 0.557009 -0.217606
C38   C     C_R   0.045155 0.664404 0.431591 -0.212330
Cu1   Cu    Cu3+1 0.506660 0.507730 0.615930 0.919354
Cu2   Cu    Cu3+1 0.493340 0.492270 0.384070 0.922924
H1    H     H_    0.771309 0.644735 0.440734 0.119055
H2    H     H_    0.227830 0.349297 0.550463 0.123250
H3    H     H_    0.779923 0.355921 0.563712 0.116536
H4    H     H_    0.220168 0.642698 0.436985 0.117036
H5    H     H_    0.915975 0.265949 0.580300 0.157343
H6    H     H_    0.083020 0.726814 0.407132 0.155221
H7    H     H_    0.620037 0.825387 0.657230 0.137668
H8    H     H_    0.381327 0.173836 0.340935 0.139719
H9    H     H_    0.352341 0.993163 0.335787 0.160468
H10   H     H_    0.648857 0.006150 0.662804 0.155986
H11   H     H_    0.404182 0.420525 0.787691 0.181006
H12   H     H_    0.597281 0.577216 0.212863 0.181521
N1    N     N_R   0.516670 0.519360 0.790130 -0.217257
N2    N     N_R   0.483330 0.480640 0.209870 -0.223455
O1    O     O_R   0.504720 0.354460 0.582000 -0.572791
O2    O     O_R   0.495280 0.645540 0.418000 -0.576523
O3    O     O_R   0.493480 0.341410 0.386200 -0.601504
O4    O     O_R   0.506520 0.658590 0.613800 -0.604208
O5    O     O_R   0.375880 0.506510 0.597910 -0.583257
O6    O     O_R   0.624120 0.493490 0.402090 -0.576706
O7    O     O_R   0.364640 0.493450 0.402110 -0.581078
O8    O     O_R   0.635360 0.506550 0.597890 -0.586512
O9    O     O_3   0.317962 0.390037 0.955155 -0.618007
C39   C     C_3   0.261481 0.472722 0.934182 0.028737
H13   H     H_    0.294720 0.527936 0.888297 0.145693
H14   H     H_    0.241762 0.518191 0.017059 0.144076
C40   C     C_3   0.177418 0.427219 0.858042 -0.318648
H15   H     H_    0.197729 0.384406 0.774672 0.218763
H16   H     H_    0.142412 0.371517 0.901354 0.219799
C41   C     C_3   0.113402 0.512543 0.833395 -0.902964
H17   H     H_    0.093189 0.557942 0.915830 0.250607
H18   H     H_    0.052342 0.476467 0.779987 0.263475
H19   H     H_    0.145811 0.566069 0.784868 0.261730
O10   O     O_3   0.657643 0.654337 0.052932 -0.621594
C42   C     C_3   0.620707 0.750332 0.101264 0.023074
H20   H     H_    0.552542 0.740296 0.129026 0.132869
H21   H     H_    0.615817 0.802989 0.036562 0.141116
C43   C     C_3   0.681817 0.802322 0.207628 -0.325141
H22   H     H_    0.749704 0.816089 0.181555 0.226118
H23   H     H_    0.687428 0.749594 0.272283 0.208951
C44   C     C_3   0.645313 0.906188 0.263908 -0.905522
H24   H     H_    0.642124 0.961866 0.202510 0.254378
H25   H     H_    0.689863 0.940449 0.342568 0.253924
H26   H     H_    0.577270 0.893982 0.289844 0.270504
C45   C     C_3   0.096030 0.222766 0.566795 -0.386945
C46   C     C_3   0.037601 0.129612 0.581079 -0.862032
H27   H     H_    0.003926 0.147850 0.662264 0.249799
H28   H     H_    0.987122 0.107716 0.505041 0.253004
H29   H     H_    0.080479 0.061431 0.586925 0.242777
H30   H     H_    0.133195 0.196811 0.489620 0.201453
H31   H     H_    0.145548 0.240432 0.644029 0.197012
C47   C     C_3   0.900309 0.760895 0.397982 -0.392596
C48   C     C_3   0.956370 0.849218 0.367368 -0.868538
H32   H     H_    0.004395 0.883963 0.442317 0.252192
H33   H     H_    0.992736 0.820120 0.290363 0.252299
H34   H     H_    0.911374 0.911548 0.345839 0.244932
H35   H     H_    0.852212 0.730959 0.321402 0.204389
H36   H     H_    0.861775 0.795886 0.471002 0.200004
C49   C     C_3   0.364347 0.807944 0.390123 -0.389879
C50   C     C_3   0.378583 0.776559 0.261384 -0.826822
H37   H     H_    0.432719 0.719682 0.249180 0.269785
H38   H     H_    0.316031 0.739187 0.212981 0.227511
H39   H     H_    0.396572 0.844923 0.223183 0.235532
H40   H     H_    0.347120 0.736530 0.423054 0.193285
H41   H     H_    0.303935 0.855920 0.400691 0.179974
C51   C     C_3   0.634370 0.192781 0.612632 -0.414741
C52   C     C_3   0.617804 0.222645 0.740781 -0.769475
H42   H     H_    0.676574 0.268423 0.789514 0.229349
H43   H     H_    0.557802 0.271125 0.751258 0.274219
H44   H     H_    0.607553 0.152680 0.779979 0.233732
H45   H     H_    0.695600 0.146128 0.603133 0.178333
H46   H     H_    0.651408 0.264946 0.581046 0.196104
C53   C     C_3   0.655488 0.641909 0.814311 -0.322353
C54   C     C_3   0.745916 0.588521 0.818759 -0.774002
H47   H     H_    0.738300 0.504177 0.780228 0.257035
H48   H     H_    0.792778 0.626068 0.769737 0.227253
H49   H     H_    0.775975 0.595999 0.909694 0.268591
H50   H     H_    0.637133 0.657095 0.727383 0.230726
H51   H     H_    0.664506 0.722001 0.865910 0.167348
C55   C     C_3   0.345037 0.357111 0.184178 -0.309412
C56   C     C_3   0.250964 0.400718 0.193747 -0.797131
H52   H     H_    0.217876 0.367331 0.260108 0.232959
H53   H     H_    0.253537 0.487185 0.219061 0.252347
H54   H     H_    0.208498 0.377425 0.110747 0.254852
H55   H     H_    0.339595 0.280124 0.124643 0.181233
H56   H     H_    0.368881 0.337844 0.267495 0.230179

loop_
_geom_bond_atom_site_label_1
_geom_bond_atom_site_label_2
_ccdc_geom_bond_type
C48   H32   S    
Cu2   O6    S    
C3    C45   S    
C24   C27   S    
C6    C9    A    
C54   H47   S    
C45   H31   S    
C47   H36   S    
C51   H46   S    
C45   C46   S    
C23   O5    A    
C16   C21   A    
C16   O10   S    
C19   C21   A    
C20   H11   S    
C55   H56   S    
C27   C29   A    
C51   C52   S    
C7    C9    A    
C47   C48   S    
C56   H54   S    
C18   N1    A    
C33   C35   A    
C53   H51   S    
C19   H12   S    
C15   C22   A    
Cu1   O1    S    
Cu2   O2    S    
C52   H42   S    
C31   C33   A    
C41   H17   S    
C32   C38   A    
C17   C55   S    
C49   H40   S    
C4    C35   A    
C48   H33   S    
C21   C22   A    
C29   H3    S    
C52   H43   S    
C30   H4    S    
C41   H19   S    
C18   C53   S    
C44   H25   S    
C47   H35   S    
C44   H24   S    
C51   H45   S    
C7    C14   A    
C49   H41   S    
C38   H6    S    
O10   C42   S    
C46   H28   S    
C40   H15   S    
C39   C40   S    
C7    H9    S    
C5    C12   A    
C25   H1    S    
C6    C11   A    
C46   H27   S    
O9    C39   S    
Cu1   O4    S    
C50   H39   S    
Cu2   O7    S    
C31   C37   A    
C40   H16   S    
C39   H14   S    
C42   H20   S    
C1    O3    A    
C49   C50   S    
C24   O6    A    
Cu1   O5    S    
C11   C51   S    
C50   H38   S    
C33   C34   A    
C43   H23   S    
C16   C18   A    
C23   C28   S    
C42   H21   S    
C56   H52   S    
C25   C35   A    
C19   N2    A    
C26   C36   A    
C12   C14   A    
C48   H34   S    
Cu2   N2    S    
C52   H44   S    
C2    C5    S    
C37   H5    S    
C8    H10   S    
Cu1   Cu2   S    
C44   H26   S    
C55   C56   S    
C26   H2    S    
C53   C54   S    
C15   C17   A    
Cu1   O8    S    
C24   O8    A    
Cu2   O3    S    
C1    C6    S    
C43   H22   S    
C20   C22   A    
C20   N1    A    
C46   H29   S    
C54   H48   S    
C45   H30   S    
C12   C49   S    
C25   C27   A    
C26   C28   A    
C40   C41   S    
C39   H13   S    
C28   C30   A    
C1    O1    A    
C5    C10   A    
C29   C31   A    
C2    O2    A    
C30   C32   A    
C11   C13   A    
C43   C44   S    
Cu1   N1    S    
C3    C36   A    
C50   H37   S    
C55   H55   S    
C34   C36   A    
C2    O4    A    
C42   C43   S    
C56   H53   S    
C54   H49   S    
C53   H50   S    
C8    C13   A    
C23   O7    A    
C3    C37   A    
C9    H8    S    
C8    C10   A    
C10   H7    S    
C15   O9    S    
C4    C38   A    
C41   H18   S    
C13   C14   A    
C17   N2    A    
C32   C34   A    
C4    C47   S    
