data_mof_unit_34692.cif
_audit_creation_date              2013-03-05T15:54:45-0500
_audit_creation_method            fapswitch 2.2
_symmetry_space_group_name_H-M    P1
_symmetry_Int_Tables_number       1
_space_group_crystal_system       triclinic
_cell_length_a                    12.362661
_cell_length_b                    13.196818
_cell_length_c                    15.049856
_cell_angle_alpha                 77.272346
_cell_angle_beta                  101.062641
_cell_angle_gamma                 116.406709
_cell_volume                      2132.69595213

loop_
_atom_site_label
_atom_site_type_symbol
_atom_site_description
_atom_site_fract_x
_atom_site_fract_y
_atom_site_fract_z
_atom_type_partial_charge
O1    O     O_R   0.972510 0.318130 0.526570 -0.543181
O2    O     O_R   0.806530 0.359650 0.490890 -0.623442
C1    C     C_R   0.855173 0.287300 0.503909 0.786075
O3    O     O_R   0.082980 0.479210 0.647590 -0.541201
O4    O     O_R   0.917000 0.520730 0.611900 -0.614405
C2    C     C_R   0.999688 0.500306 0.670965 0.816416
Cu1   Cu    Cu3+1 0.098270 0.475420 0.521130 1.017696
Cu2   Cu    Cu3+1 0.901730 0.524580 0.478870 0.983930
O5    O     O_R   0.193470 0.640350 0.509110 -0.603644
O6    O     O_R   0.027490 0.681870 0.473430 -0.545610
O7    O     O_R   0.083000 0.479270 0.388100 -0.581858
O8    O     O_R   0.917020 0.520790 0.352410 -0.552318
C3    C     C_R   0.145176 0.713549 0.488934 0.817093
C4    C     C_R   0.999752 0.499415 0.328990 0.816281
C5    C     C_R   0.106913 0.523705 0.198164 -0.146695
C6    C     C_R   0.999094 0.499260 0.232053 -0.080777
C7    C     C_R   0.891414 0.477355 0.172856 -0.165481
C8    C     C_R   0.891590 0.479788 0.079732 0.109345
C9    C     C_R   0.000829 0.503743 0.045891 0.060296
C10   C     C_R   0.108669 0.525327 0.105616 0.027617
C11   C     C_R   0.784586 0.458713 0.020020 -0.158261
C12   C     C_R   0.785429 0.460835 0.927167 -0.177559
C13   C     C_R   0.893221 0.483788 0.893082 0.129554
C14   C     C_R   0.002043 0.505919 0.952489 0.027440
C15   C     C_R   0.111503 0.529394 0.918678 -0.026179
C16   C     C_R   0.220175 0.553472 0.978930 0.320181
C17   C     C_R   0.216910 0.549654 0.072046 -0.197167
C18   C     C_R   0.893606 0.483990 0.800604 -0.225048
C19   C     C_R   0.000311 0.503005 0.767376 -0.078445
C20   C     C_R   0.108190 0.525002 0.826103 -0.113126
H1    H     H_    0.189727 0.544165 0.243817 0.232919
H2    H     H_    0.807568 0.458038 0.199300 0.167597
H3    H     H_    0.700308 0.440444 0.045161 0.174201
H4    H     H_    0.701649 0.443909 0.882049 0.160508
H5    H     H_    0.189008 0.538236 0.798805 0.216593
H6    H     H_    0.299985 0.567826 0.118084 0.239049
C21   C     C_R   0.269321 0.034612 0.426457 -0.164747
H7    H     H_    0.439705 0.238393 0.370120 0.175687
H8    H     H_    0.234988 0.099529 0.401646 0.160086
C22   C     C_R   0.229173 0.835609 0.477836 -0.059109
C23   C     C_R   0.819917 0.083481 0.527416 -0.133060
C24   C     C_R   0.743500 0.967664 0.535462 -0.121372
C25   C     C_R   0.618522 0.931510 0.516896 -0.155250
C26   C     C_R   0.566981 0.011500 0.484399 0.087479
C27   C     C_R   0.646734 0.129325 0.465887 0.077667
C28   C     C_R   0.439123 0.978959 0.469924 0.079263
C29   C     C_R   0.394020 0.063347 0.434003 0.147959
C30   C     C_R   0.473505 0.174958 0.403922 -0.209428
C31   C     C_R   0.597485 0.206193 0.416016 -0.188135
C32   C     C_R   0.354342 0.865423 0.491080 -0.218825
C33   C     C_R   0.187593 0.921604 0.450010 -0.130195
C34   C     C_R   0.773041 0.165826 0.496861 -0.116778
H9    H     H_    0.383430 0.798004 0.517509 0.156871
H10   H     H_    0.916109 0.108299 0.546153 0.204401
H11   H     H_    0.565690 0.840249 0.527364 0.131530
H12   H     H_    0.781203 0.905181 0.559161 0.156281
H13   H     H_    0.652704 0.290726 0.383314 0.183092
C35   C     C_R   0.349158 0.329271 0.646863 -0.321430
H14   H     H_    0.548966 0.296461 0.677376 0.157027
H15   H     H_    0.351256 0.265618 0.705869 0.180601
N1    N     N_R   0.246280 0.438190 0.553160 -0.258935
C36   C     C_R   0.753597 0.640086 0.371008 0.457901
C37   C     C_R   0.648288 0.654588 0.335015 -0.315767
C38   C     C_R   0.541693 0.590841 0.376135 0.282148
C39   C     C_R   0.543978 0.521774 0.462249 -0.107125
C40   C     C_R   0.651613 0.502497 0.493839 0.165796
C41   C     C_R   0.442974 0.467855 0.516565 0.017367
C42   C     C_R   0.446001 0.385198 0.593541 0.096196
C43   C     C_R   0.546796 0.360268 0.618528 -0.243334
C44   C     C_R   0.648001 0.419109 0.570927 -0.129213
C45   C     C_R   0.341130 0.495713 0.500799 0.003683
C46   C     C_R   0.249504 0.356161 0.625710 0.529201
N2    N     N_R   0.754320 0.561190 0.447410 -0.271277
H16   H     H_    0.337209 0.565325 0.449322 0.182843
H17   H     H_    0.647309 0.709378 0.269871 0.226984
H18   H     H_    0.720988 0.394968 0.596472 0.201550
N3    N     N_R   0.154140 0.299953 0.683728 0.141838
O9    O     O_R   0.171876 0.331941 0.763072 -0.349805
O10   O     O_R   0.073991 0.197177 0.672926 -0.380338
N4    N     N_R   0.856567 0.702586 0.320705 0.157605
O11   O     O_R   0.926845 0.806690 0.334944 -0.383231
O12   O     O_R   0.850470 0.677001 0.240656 -0.347219
N5    N     N_R   0.430403 0.580174 0.320997 0.093854
O13   O     O_R   0.348874 0.478661 0.307306 -0.400060
O14   O     O_R   0.421199 0.670063 0.270040 -0.393910
H19   H     H_    0.810197 0.466740 0.754938 0.147906
N6    N     N_R   0.334720 0.584064 0.947045 0.132398
O15   O     O_R   0.372500 0.666906 0.879178 -0.350719
O16   O     O_R   0.410854 0.545094 0.996240 -0.318788
H20   H     H_    0.092314 0.901741 0.445202 0.204446

loop_
_geom_bond_atom_site_label_1
_geom_bond_atom_site_label_2
_geom_bond_distance
_ccdc_geom_bond_type
N6    O15   1.301318 A    
C8    C11   1.400550 A    
C23   C24   1.386075 A    
C9    C10   1.407694 A    
Cu1   Cu2   2.712261 S    
N3    O9    1.300577 A    
Cu1   O7    1.966015 S    
C16   C17   1.398869 A    
C36   C37   1.389342 A    
C20   H5    1.080841 S    
C36   N4    1.426425 S    
C18   C19   1.398798 A    
C33   H20   1.078144 S    
O4    C2    1.303302 A    
C21   C33   1.390991 A    
O7    C4    1.307310 A    
C11   H3    1.083751 S    
C35   H15   1.084780 S    
C5    C6    1.395278 A    
C31   H13   1.078129 S    
C8    C9    1.412941 A    
O5    C3    1.302297 A    
Cu1   N1    2.044190 S    
C3    C22   1.470071 S    
C46   N3    1.426302 S    
C24   H12   1.082992 S    
C42   C43   1.390216 A    
C29   C30   1.389072 A    
C16   N6    1.437174 S    
C39   C41   1.441811 A    
C13   C14   1.413692 A    
C36   N2    1.372259 A    
C21   C29   1.401810 A    
C23   C34   1.402107 A    
H7    C30   1.084494 S    
N1    C45   1.368024 A    
C11   C12   1.393481 A    
O3    Cu1   1.961845 S    
C26   C28   1.426778 A    
N3    O10   1.299153 A    
C5    C10   1.392479 A    
C12   H4    1.083910 S    
C32   H9    1.073717 S    
C41   C42   1.412869 A    
C14   C15   1.417045 A    
N4    O12   1.301089 A    
C6    C7    1.401932 A    
C27   C34   1.427633 A    
C15   C16   1.416995 A    
C40   N2    1.388398 A    
O1    C1    1.316211 A    
C25   C26   1.417990 A    
C38   N5    1.429132 S    
C19   C20   1.400160 A    
C45   H16   1.076143 S    
N5    O13   1.301496 A    
C27   C31   1.414769 A    
Cu2   O8    1.961845 S    
C7    C8    1.395177 A    
C13   C18   1.392129 A    
H14   C43   1.084672 S    
N1    C46   1.366197 A    
C35   C42   1.394223 A    
C30   C31   1.384306 A    
N5    O14   1.301529 A    
O8    C4    1.299483 A    
N6    O16   1.301496 A    
C18   H19   1.084259 S    
C4    C6    1.457806 S    
O3    C2    1.303348 A    
C24   C25   1.389348 A    
C26   C27   1.420696 A    
C25   H11   1.076150 S    
C15   C20   1.399180 A    
Cu1   O5    1.945491 S    
C28   C29   1.419420 A    
O1    Cu1   1.958565 S    
O2    Cu2   1.945492 S    
N4    O11   1.297985 A    
O6    C3    1.310601 A    
O4    Cu2   1.966016 S    
C1    C34   1.482505 S    
C5    H1    1.076592 S    
C10   C17   1.398144 A    
C17   H6    1.083233 S    
C22   C33   1.397988 A    
C28   C32   1.402102 A    
C38   C39   1.414060 A    
C9    C14   1.402473 A    
C21   H8    1.084051 S    
C44   H18   1.063987 S    
C35   C46   1.390560 A    
C40   C44   1.404487 A    
C37   H17   1.083985 S    
C22   C32   1.401319 A    
Cu2   N2    2.032212 S    
O2    C1    1.301809 A    
C41   C45   1.426643 A    
C43   C44   1.384301 A    
C23   H10   1.080055 S    
C37   C38   1.387354 A    
C2    C19   1.457699 S    
Cu2   O6    1.958563 S    
C39   C40   1.437497 A    
C7    H2    1.084620 S    
C12   C13   1.401975 A    
