data_mof_unit_52816.cif
_audit_creation_date              2013-03-05T15:47:46-0500
_audit_creation_method            fapswitch 2.2
_symmetry_space_group_name_H-M    P1
_symmetry_Int_Tables_number       1
_space_group_crystal_system       triclinic
_cell_length_a                    10.886226
_cell_length_b                    13.104755
_cell_length_c                    11.632588
_cell_angle_alpha                 99.938582
_cell_angle_beta                  93.494704
_cell_angle_gamma                 90.203675
_cell_volume                      1631.4096498

loop_
_atom_site_label
_atom_site_type_symbol
_atom_site_description
_atom_site_fract_x
_atom_site_fract_y
_atom_site_fract_z
_atom_type_partial_charge
O1    O     O_R   0.506570 0.354460 0.582000 -0.543243
O2    O     O_R   0.493430 0.645540 0.418000 -0.547810
O3    O     O_R   0.490940 0.341410 0.386200 -0.555374
O4    O     O_R   0.509060 0.658590 0.613800 -0.540281
C1    C     C_R   0.499483 0.299249 0.478692 0.903792
C2    C     C_R   0.497293 0.700778 0.520910 0.904386
O5    O     O_R   0.327470 0.506520 0.597900 -0.596328
O6    O     O_R   0.672530 0.493480 0.402100 -0.589706
O7    O     O_R   0.311840 0.493460 0.402100 -0.619991
O8    O     O_R   0.688160 0.506540 0.597900 -0.610461
C3    C     C_R   0.263058 0.513362 0.502452 0.830500
C4    C     C_R   0.738506 0.504654 0.499228 0.829515
Cu1   Cu    Cu3+1 0.509250 0.507730 0.615930 1.044392
Cu2   Cu    Cu3+1 0.490750 0.492270 0.384070 1.042620
H1    H     H_    0.084265 0.525766 0.104891 0.201468
H2    H     H_    0.899029 0.721244 0.868850 0.205935
C5    C     C_R   0.127558 0.592608 0.723927 -0.122817
C6    C     C_R   0.882685 0.447391 0.284265 -0.164357
C7    C     C_R   0.064607 0.641625 0.819280 -0.001391
C8    C     C_R   0.938663 0.452478 0.179814 -0.016662
C9    C     C_R   0.942769 0.670336 0.800160 -0.218536
C10   C     C_R   0.047053 0.511293 0.184936 -0.225869
C11   C     C_R   0.883575 0.646515 0.688356 -0.039360
C12   C     C_R   0.105122 0.554847 0.293248 -0.027782
C13   C     C_R   0.938985 0.576374 0.600168 0.040226
C14   C     C_R   0.059130 0.530940 0.397300 0.029694
C15   C     C_R   0.067765 0.564991 0.610754 0.067080
C16   C     C_R   0.936272 0.497894 0.393452 0.055586
C17   C     C_R   0.872578 0.523023 0.497784 -0.125057
C18   C     C_R   0.129917 0.537389 0.505306 -0.128442
H3    H     H_    0.223742 0.583111 0.741622 0.215914
H4    H     H_    0.798632 0.403146 0.278050 0.238082
C19   C     C_R   0.487960 0.813758 0.530716 -0.303735
C20   C     C_R   0.502930 0.186186 0.466787 -0.283565
C21   C     C_R   0.550731 0.018785 0.356141 -0.129622
C22   C     C_R   0.436822 0.981065 0.640262 -0.144149
C23   C     C_R   0.549057 0.125804 0.366409 0.263700
C24   C     C_R   0.444580 0.874320 0.632333 0.314718
C25   C     C_R   0.462211 0.137747 0.557519 0.311218
C26   C     C_R   0.519898 0.862036 0.436343 0.250937
C27   C     C_R   0.471468 0.029969 0.549000 -0.057984
C28   C     C_R   0.513689 0.969968 0.446618 -0.052917
H5    H     H_    0.586903 0.974645 0.278392 0.234449
H6    H     H_    0.400540 0.024906 0.718055 0.228691
N1    N     N_R   0.523180 0.519350 0.790130 -0.204628
N2    N     N_R   0.476820 0.480650 0.209870 -0.193583
C29   C     C_R   0.368036 0.418509 0.024101 -0.238068
C30   C     C_R   0.632099 0.580465 0.976198 -0.247918
C31   C     C_R   0.383053 0.423736 0.145844 0.148554
C32   C     C_R   0.618015 0.574252 0.854459 0.161383
C33   C     C_R   0.559262 0.532283 0.155757 0.162962
C34   C     C_R   0.439994 0.468309 0.844376 0.123450
C35   C     C_R   0.548262 0.528694 0.033439 0.047552
C36   C     C_R   0.451000 0.471437 0.966827 0.065329
H7    H     H_    0.365726 0.424285 0.792287 0.165934
H8    H     H_    0.633304 0.576628 0.207870 0.158764
H9    H     H_    0.684160 0.612564 0.811469 0.147449
H10   H     H_    0.318464 0.382978 0.189327 0.133293
H11   H     H_    0.292205 0.373599 0.975376 0.172337
H12   H     H_    0.708608 0.624572 0.024824 0.172595
C37   C     C_2   0.132254 0.677082 0.934151 0.896846
O9    O     O_2   0.076594 0.714431 0.019333 -0.562689
O10   O     O_R   0.260581 0.670252 0.944404 -0.728655
H13   H     H_    0.297420 0.703512 0.024131 0.399118
C38   C     C_2   0.878363 0.403704 0.065425 0.853875
O11   O     O_2   0.925029 0.411898 0.974330 -0.591355
O12   O     O_R   0.767502 0.348475 0.061324 -0.721968
H14   H     H_    0.734674 0.320310 0.978422 0.365179
C39   C     C_2   0.791847 0.721480 0.655539 0.835318
O13   O     O_2   0.729651 0.771124 0.729199 -0.575985
O14   O     O_R   0.787461 0.744198 0.542503 -0.725533
H15   H     H_    0.740942 0.809980 0.536875 0.349830
C40   C     C_2   0.196776 0.639761 0.297559 0.939390
O15   O     O_2   0.258632 0.643317 0.214179 -0.576141
O16   O     O_R   0.209394 0.717780 0.396147 -0.741532
H16   H     H_    0.268796 0.774687 0.385840 0.347181
N3    N     N_R   0.557849 0.801968 0.329391 0.124166
O17   O     O_R   0.673246 0.779669 0.317927 -0.347281
O18   O     O_R   0.480887 0.784731 0.237919 -0.327597
N4    N     N_R   0.408098 0.197439 0.656596 0.116741
O19   O     O_R   0.468545 0.214424 0.758232 -0.353364
O20   O     O_R   0.299793 0.237308 0.644223 -0.365801
N5    N     N_R   0.399274 0.828397 0.724989 0.160896
O21   O     O_R   0.431311 0.867357 0.833307 -0.273969
O22   O     O_R   0.307440 0.762915 0.702460 -0.351806
N6    N     N_R   0.601911 0.171819 0.277217 0.152803
O23   O     O_R   0.574471 0.134684 0.167491 -0.286365
O24   O     O_R   0.695053 0.235546 0.304890 -0.354171

loop_
_geom_bond_atom_site_label_1
_geom_bond_atom_site_label_2
_geom_bond_distance
_ccdc_geom_bond_type
H2    C9    1.083925 S    
C24   N5    1.433095 S    
C20   C23   1.413179 A    
C27   C28   1.412069 A    
C11   C39   1.482547 S    
O16   H16   1.012711 S    
C29   C31   1.405430 A    
C35   C36   1.406473 A    
O5    C3    1.293219 A    
N2    C31   1.364959 A    
O1    C1    1.289100 A    
C16   C17   1.424237 A    
C7    C9    1.395255 A    
C12   C14   1.420407 A    
C39   O13   1.223658 D    
C4    C17   1.479993 S    
N6    O24   1.300223 A    
C12   C40   1.484278 S    
C39   O14   1.395509 S    
C33   H8    1.081851 S    
C40   O15   1.221216 D    
O4    Cu1   1.981415 S    
C37   O10   1.399322 S    
C21   C28   1.400687 A    
H1    C10   1.083273 S    
C3    C18   1.485437 S    
C38   O12   1.399099 S    
C21   H5    1.082628 S    
C34   H7    1.081644 S    
C26   C28   1.400984 A    
Cu1   Cu2   2.664768 S    
C15   C18   1.429343 A    
C40   O16   1.398029 S    
C22   C27   1.400691 A    
O2    C2    1.285831 A    
C34   C36   1.415636 A    
C30   H12   1.083538 S    
N3    O18   1.300846 A    
C13   C17   1.426142 A    
C30   C35   1.400803 A    
C19   C26   1.418123 A    
O12   H14   1.013957 S    
C5    C15   1.420292 A    
C23   N6    1.434368 S    
C6    C16   1.417148 A    
Cu2   N2    2.002082 S    
N6    O23   1.301275 A    
N1    C34   1.369929 A    
N3    O17   1.300342 A    
N2    C33   1.367886 A    
C31   H10   1.081415 S    
C20   C25   1.414113 A    
C33   C35   1.413226 A    
O7    Cu2   1.971415 S    
C8    C38   1.485595 S    
N5    O21   1.301166 A    
O6    C4    1.287275 A    
C1    C20   1.464964 S    
O7    C3    1.297774 A    
O3    Cu2   1.981418 S    
O8    C4    1.298254 A    
C29   C36   1.403243 A    
N4    O20   1.301330 A    
N5    O22   1.299562 A    
C8    C10   1.399654 A    
C14   C18   1.422784 A    
C9    C11   1.400155 A    
C5    H3    1.066640 S    
C10   C12   1.401773 A    
C22   H6    1.081997 S    
O4    C2    1.295962 A    
O1    Cu1   1.978763 S    
O6    Cu2   1.976944 S    
C21   C23   1.387123 A    
C32   H9    1.071752 S    
N4    O19   1.301399 A    
O3    C1    1.290304 A    
O8    Cu1   1.971415 S    
C13   C15   1.410531 A    
C14   C16   1.400081 A    
C19   C24   1.413173 A    
C2    C19   1.469558 S    
C25   N4    1.435993 S    
C22   C24   1.389151 A    
O14   H15   1.011145 S    
Cu1   N1    2.002082 S    
N1    C32   1.363143 A    
C7    C37   1.485619 S    
C30   C32   1.403286 A    
C5    C7    1.400867 A    
C6    C8    1.403581 A    
C11   C13   1.419513 A    
C37   O9    1.223296 D    
O2    Cu2   1.978761 S    
C29   H11   1.083266 S    
O10   H13   1.012336 S    
O5    Cu1   1.976943 S    
C6    H4    1.073483 S    
C25   C27   1.403139 A    
C38   O11   1.223534 D    
C26   N3    1.437043 S    
