data_mof_unit_32714.cif
_audit_creation_date              2012-12-11T15:43:13-0500
_audit_creation_method            fapswitch 2.2
_symmetry_space_group_name_H-M    P1
_symmetry_Int_Tables_number       1
_space_group_crystal_system       triclinic
_cell_length_a                    19.148969
_cell_length_b                    10.951909
_cell_length_c                    18.803499
_cell_angle_alpha                 90.099765
_cell_angle_beta                  90.209501
_cell_angle_gamma                 90.079397
_cell_volume                      3943.39164139

loop_
_atom_site_label
_atom_site_type_symbol
_atom_type_description
_atom_site_fract_x
_atom_site_fract_y
_atom_site_fract_z
_atom_type_partial_charge
C1    C     C_R   0.726873 0.369807 0.143764 0.560740
C2    C     C_R   0.951814 0.985724 0.048984 -0.119487
C3    C     C_R   0.741626 0.411886 0.578927 0.015363
C4    C     C_R   0.727391 0.372675 0.354828 0.554463
C5    C     C_R   0.271240 0.376842 0.646784 0.543430
C6    C     C_R   0.227390 0.872673 0.354829 0.553174
C7    C     C_R   0.771238 0.876848 0.646787 0.550555
C8    C     C_R   0.536889 0.156954 0.356136 0.559416
C9    C     C_R   0.468949 0.156557 0.647379 0.549925
C10   C     C_R   0.036852 0.656960 0.356115 0.561573
C11   C     C_R   0.968933 0.656556 0.647367 0.546957
C12   C     C_R   0.741219 0.971048 0.354191 0.544344
C13   C     C_R   0.534332 0.495751 0.954628 -0.114301
C14   C     C_R   0.257556 0.969572 0.646591 0.536806
C15   C     C_R   0.241215 0.471060 0.354196 0.541361
C16   C     C_R   0.757553 0.469564 0.646594 0.542886
C17   C     C_R   0.487688 0.165304 0.928869 0.061145
C18   C     C_R   0.498544 0.174369 0.077255 -0.019378
C19   C     C_R   0.005176 0.678499 0.920925 -0.017927
C20   C     C_R   0.017918 0.665696 0.069061 0.066803
C21   C     C_R   0.505044 0.278244 0.961661 0.042064
C22   C     C_R   0.507070 0.284837 0.037001 0.030282
C23   C     C_R   0.991487 0.785337 0.963082 0.033099
C24   C     C_R   0.531701 0.504693 0.027952 -0.079486
C25   C     C_R   0.993161 0.775315 0.038225 0.031986
C26   C     C_R   0.476638 0.068276 0.043500 -0.177136
C27   C     C_R   0.473079 0.063077 0.970857 -0.117719
C28   C     C_R   0.041870 0.571210 0.025225 -0.112173
C29   C     C_R   0.036311 0.577683 0.952318 -0.173527
C30   C     C_R   0.774494 0.854170 0.935260 -0.045116
C31   C     C_R   0.237564 0.892682 0.067102 -0.066307
C32   C     C_R   0.262081 0.393055 0.932889 -0.064818
C33   C     C_R   0.736636 0.388432 0.069277 -0.034441
C34   C     C_R   0.726087 0.943178 0.952879 0.052778
C35   C     C_R   0.302390 0.877275 0.033948 -0.004928
C36   C     C_R   0.197194 0.377009 0.965976 -0.013109
C37   C     C_R   0.273100 0.369708 0.857287 0.546324
C38   C     C_R   0.792805 0.453810 0.044996 0.038255
C39   C     C_R   0.715126 0.974980 0.023222 -0.095721
C40   C     C_R   0.307638 0.885761 0.959923 -0.096502
C41   C     C_R   0.191966 0.384759 0.040045 -0.108735
C42   C     C_R   0.800924 0.473499 0.972880 -0.103017
C43   C     C_R   0.799969 0.824113 0.061424 0.220315
C44   C     C_R   0.181924 0.903420 0.950298 0.258490
C45   C     C_R   0.317402 0.403084 0.049821 0.260624
C46   C     C_R   0.698351 0.350835 0.947428 0.216703
C47   C     C_R   0.812143 0.795789 0.989546 -0.103411
C48   C     C_R   0.226779 0.869390 0.142683 0.549202
C49   C     C_R   0.177475 0.904329 0.024073 -0.082218
C50   C     C_R   0.322049 0.404835 0.976071 -0.079561
C51   C     C_R   0.689357 0.336197 0.020710 -0.087351
C52   C     C_3   0.649242 0.946055 0.936899 0.463616
C53   C     C_3   0.346896 0.764337 0.033080 0.474495
C54   C     C_3   0.152439 0.264065 0.966458 0.475546
C55   C     C_3   0.868241 0.425815 0.055745 0.452479
C56   C     C_3   0.637937 0.985034 0.013390 -0.158243
C57   C     C_3   0.353686 0.776271 0.953639 -0.162096
C58   C     C_3   0.145779 0.275193 0.045974 -0.161667
C59   C     C_R   0.788805 0.828788 0.861237 0.554835
C60   C     C_3   0.877797 0.451396 0.977253 -0.148797
C61   C     C_R   0.750551 0.915799 0.078180 -0.005012
C62   C     C_R   0.248029 0.904356 0.918164 -0.013483
C63   C     C_R   0.251470 0.403687 0.081847 -0.009830
C64   C     C_R   0.754015 0.423717 0.923567 -0.000939
C65   C     C_R   0.530899 0.157259 0.147330 0.529752
C66   C     C_R   0.466778 0.155593 0.854285 0.572223
C67   C     C_R   0.035014 0.655260 0.144688 0.577124
C68   C     C_R   0.969821 0.657937 0.852246 0.517983
C69   C     C_R   0.505738 0.160983 0.579840 -0.003901
C70   C     C_R   0.521261 0.384336 0.921633 -0.050428
C71   C     C_R   0.522663 0.163867 0.431786 0.038769
C72   C     C_R   0.005686 0.660974 0.579809 -0.005348
C73   C     C_R   0.022592 0.663882 0.431755 0.038717
C74   C     C_R   0.514552 0.052121 0.541530 0.030144
C75   C     C_R   0.521944 0.054565 0.469180 0.025069
C76   C     C_R   0.014439 0.552114 0.541482 0.029097
C77   C     C_R   0.021823 0.554573 0.469134 0.024623
C78   C     C_R   0.528256 0.273293 0.470977 -0.157864
C79   C     C_R   0.520461 0.271658 0.545333 -0.160282
C80   C     C_R   0.028228 0.773292 0.470956 -0.157532
C81   C     C_R   0.518589 0.401330 0.068771 -0.022335
C82   C     C_R   0.020439 0.771644 0.545311 -0.160585
C83   C     C_3   0.470146 0.938940 0.536841 0.152335
C84   C     C_3   0.479126 0.942715 0.456967 0.141601
C85   C     C_3   0.969966 0.439017 0.536779 0.152668
C86   C     C_3   0.978943 0.442803 0.456904 0.142021
C87   C     C_R   0.760098 0.902096 0.572185 0.011000
C88   C     C_R   0.236837 0.891588 0.430555 0.041791
C89   C     C_R   0.260094 0.402099 0.572186 0.011998
C90   C     C_R   0.736832 0.391573 0.430558 0.041978
C91   C     C_R   0.819587 0.912098 0.529755 0.045255
C92   C     C_R   0.975694 0.901466 0.933368 -0.021351
C93   C     C_R   0.181182 0.941248 0.468100 0.020101
C94   C     C_R   0.319582 0.412112 0.529756 0.046184
C95   C     C_R   0.681181 0.441250 0.468100 0.020249
C96   C     C_R   0.815654 0.916962 0.457015 0.023725
C97   C     C_R   0.182685 0.950326 0.540669 0.012512
C98   C     C_R   0.315647 0.416983 0.457018 0.023169
C99   C     C_R   0.682681 0.450329 0.540670 0.012504
C100  C     C_R   0.690819 0.889048 0.464777 -0.160510
C101  C     C_R   0.291457 0.840248 0.543665 -0.159841
C102  C     C_R   0.190810 0.389070 0.464781 -0.160181
C103  C     C_R   0.969890 0.875009 0.080031 -0.060944
C104  C     C_R   0.791434 0.340199 0.543674 -0.159626
C105  C     C_R   0.695593 0.882559 0.538892 -0.177920
C106  C     C_R   0.289376 0.831188 0.469325 -0.109158
C107  C     C_R   0.195587 0.382566 0.538895 -0.178463
C108  C     C_R   0.789358 0.331143 0.469332 -0.109396
C109  C     C_3   0.878162 0.001767 0.533194 -0.252403
C110  C     C_3   0.144821 0.060194 0.458113 -0.266438
C111  C     C_3   0.378152 0.501790 0.533199 -0.252342
C112  C     C_3   0.644830 0.560204 0.458109 -0.266482
C113  C     C_R   0.741749 0.966648 0.148779 0.528416
C114  C     C_R   0.956303 0.999811 0.975960 -0.085993
C115  C     C_R   0.258035 0.965197 0.850442 0.551213
C116  C     C_R   0.241797 0.465152 0.149487 0.554351
C117  C     C_R   0.759015 0.468326 0.851729 0.523724
C118  C     C_3   0.876405 0.002893 0.452758 -0.265251
C119  C     C_3   0.145493 0.070885 0.538241 -0.244929
C120  C     C_3   0.376394 0.502926 0.452764 -0.265696
C121  C     C_3   0.645501 0.570898 0.538238 -0.244869
C122  C     C_R   0.750548 0.916750 0.423682 0.016154
C123  C     C_R   0.241636 0.911902 0.578922 0.015874
C124  C     C_R   0.250540 0.416771 0.423687 0.016861
Cr1   Cr    Cr6+3 0.772010 0.169670 0.250090 1.035578
Cr2   Cr    Cr6+3 0.383290 0.010760 0.749160 1.014299
Cr3   Cr    Cr6+3 0.116710 0.510760 0.250840 1.013712
Cr4   Cr    Cr6+3 0.883290 0.510760 0.749160 1.001234
Cr5   Cr    Cr6+3 0.227990 0.169670 0.749910 1.040208
Cr6   Cr    Cr6+3 0.272010 0.669670 0.250090 1.032921
Cr7   Cr    Cr6+3 0.727990 0.669670 0.749910 1.040998
Cr8   Cr    Cr6+3 0.615000 0.323260 0.249260 1.000720
Cr9   Cr    Cr6+3 0.385000 0.323260 0.750740 1.006978
Cr10  Cr    Cr6+3 0.115000 0.823260 0.249260 1.005782
Cr11  Cr    Cr6+3 0.885000 0.823260 0.750740 1.000784
Cr12  Cr    Cr6+3 0.616710 0.010760 0.250840 1.005963
H1    H     H_    0.536392 0.359278 0.444261 0.128229
H2    H     H_    0.091486 0.050000 0.435496 0.137230
H3    H     H_    0.426320 0.462423 0.555673 0.148851
H4    H     H_    0.591495 0.550018 0.435491 0.136923
H5    H     H_    0.922732 0.959040 0.428288 0.134949
H6    H     H_    0.092521 0.066124 0.562101 0.149344
H7    H     H_    0.422724 0.459084 0.428292 0.134240
H8    H     H_    0.592528 0.566153 0.562096 0.150081
H9    H     H_    0.527909 0.382224 0.864699 0.157366
H10   H     H_    0.512307 0.418052 0.124859 0.169254
H11   H     H_    0.982632 0.921669 0.877744 0.170606
H12   H     H_    0.521599 0.356282 0.574908 0.121023
H13   H     H_    0.963122 0.868249 0.136851 0.159453
H14   H     H_    0.944573 0.087342 0.952077 0.140885
H15   H     H_    0.934767 0.061051 0.081903 0.160190
H16   H     H_    0.546513 0.575504 0.923056 0.143910
H17   H     H_    0.539798 0.592293 0.053487 0.143986
H18   H     H_    0.849935 0.726570 0.976104 0.132477
H19   H     H_    0.125931 0.908109 0.047463 0.174065
H20   H     H_    0.373573 0.409263 0.952801 0.172207
H21   H     H_    0.647281 0.280090 0.040081 0.137330
H22   H     H_    0.620602 0.080824 0.018773 0.155095
H23   H     H_    0.036401 0.859273 0.444248 0.128183
H24   H     H_    0.407179 0.798310 0.935441 0.149582
H25   H     H_    0.092219 0.296817 0.064342 0.159610
H26   H     H_    0.905391 0.537225 0.966830 0.151929
H27   H     H_    0.608249 0.918161 0.045952 0.130905
H28   H     H_    0.328894 0.700652 0.922943 0.106644
H29   H     H_    0.170588 0.199387 0.076241 0.109055
H30   H     H_    0.895324 0.371747 0.945179 0.133778
H31   H     H_    0.468275 0.985074 0.073110 0.186586
H32   H     H_    0.458442 0.976978 0.947477 0.171030
H33   H     H_    0.063956 0.489953 0.047771 0.165909
H34   H     H_    0.021615 0.856258 0.574897 0.120675
H35   H     H_    0.050002 0.498715 0.920803 0.177972
H36   H     H_    0.915492 0.453130 0.554893 0.174037
H37   H     H_    0.008539 0.364478 0.434065 0.139417
H38   H     H_    0.415660 0.952939 0.554945 0.173637
H39   H     H_    0.508761 0.864425 0.434141 0.138697
H40   H     H_    0.490166 0.835824 0.617506 0.337770
H41   H     H_    0.423277 0.947711 0.371255 0.332181
H42   H     H_    0.989846 0.335726 0.617405 0.335937
H43   H     H_    0.923138 0.448111 0.371167 0.334883
H44   H     H_    0.649107 0.865450 0.569961 0.171526
H45   H     H_    0.639549 0.883098 0.440650 0.145005
H46   H     H_    0.330517 0.783267 0.442166 0.153558
H47   H     H_    0.149100 0.365451 0.569963 0.169739
H48   H     H_    0.830496 0.283210 0.442176 0.153896
H49   H     H_    0.862184 0.089847 0.557473 0.140045
H50   H     H_    0.178219 0.129120 0.431254 0.149901
H51   H     H_    0.362170 0.589864 0.557482 0.139324
H52   H     H_    0.678234 0.629119 0.431249 0.150450
H53   H     H_    0.863676 0.093567 0.430877 0.157140
H54   H     H_    0.178524 0.147240 0.557274 0.179566
H55   H     H_    0.363658 0.593600 0.430887 0.157021
H56   H     H_    0.335205 0.801801 0.572400 0.122814
H57   H     H_    0.678539 0.647243 0.557271 0.178991
H58   H     H_    0.818639 0.781828 0.160387 0.320916
H59   H     H_    0.130187 0.878338 0.862869 0.317434
H60   H     H_    0.368670 0.376213 0.137200 0.316677
H61   H     H_    0.671630 0.296809 0.852248 0.329344
H62   H     H_    0.233260 0.154901 0.971021 0.288446
H63   H     H_    0.857320 0.248536 0.043113 0.302812
H64   H     H_    0.635262 0.771070 0.955275 0.301172
H65   H     H_    0.265956 0.654970 0.027772 0.287420
H66   H     H_    0.648078 0.007906 0.840866 0.352253
H67   H     H_    0.139536 0.383133 0.440656 0.145093
H68   H     H_    0.399589 0.780801 0.120308 0.346194
H69   H     H_    0.099539 0.280805 0.879424 0.345202
H70   H     H_    0.884532 0.493258 0.149151 0.352810
H71   H     H_    0.835176 0.301738 0.572411 0.123400
H72   H     H_    0.926327 0.962396 0.555671 0.148952
O1    O     O_R   0.787520 0.042810 0.170440 -0.504051
O2    O     O_R   0.454050 0.051210 0.669140 -0.534050
O3    O     O_R   0.045950 0.551210 0.330860 -0.531238
O4    O     O_R   0.954050 0.551210 0.669140 -0.535923
O5    O     O_R   0.681390 0.959480 0.325510 -0.515064
O6    O     O_R   0.318610 0.959480 0.674490 -0.518328
O7    O     O_R   0.181390 0.459480 0.325510 -0.517687
O8    O     O_R   0.818610 0.459480 0.674490 -0.512987
O9    O     O_3   0.667900 0.167900 0.250060 -0.257461
O10   O     O_3   0.332100 0.167900 0.749940 -0.255074
O11   O     O_3   0.167900 0.667900 0.250060 -0.261454
O12   O     O_R   0.212480 0.042810 0.829560 -0.441375
O13   O     O_3   0.832100 0.667900 0.749940 -0.270705
O14   O     O_R   0.765640 0.292100 0.175020 -0.467547
O15   O     O_R   0.234360 0.292100 0.824980 -0.474046
O16   O     O_R   0.265640 0.792100 0.175020 -0.473748
O17   O     O_R   0.734360 0.792100 0.824980 -0.463021
O18   O     O_R   0.670190 0.408840 0.168540 -0.529187
O19   O     O_R   0.329810 0.408840 0.831460 -0.534144
O20   O     O_R   0.170190 0.908840 0.168540 -0.531313
O21   O     O_R   0.829810 0.908840 0.831460 -0.520057
O22   O     O_R   0.556620 0.251410 0.175160 -0.526498
O23   O     O_R   0.287520 0.542810 0.170440 -0.439931
O24   O     O_R   0.443380 0.251410 0.824840 -0.533288
O25   O     O_R   0.056620 0.751410 0.175160 -0.531617
O26   O     O_R   0.943380 0.751410 0.824840 -0.538327
O27   O     O_R   0.545960 0.049620 0.170320 -0.517517
O28   O     O_R   0.454040 0.049620 0.829680 -0.499337
O29   O     O_R   0.045960 0.549620 0.170320 -0.493102
O30   O     O_R   0.954040 0.549620 0.829680 -0.516616
O31   O     O_R   0.681390 0.958010 0.176690 -0.504929
O32   O     O_R   0.318610 0.958010 0.823310 -0.516447
O33   O     O_R   0.181390 0.458010 0.176690 -0.517887
O34   O     O_R   0.712480 0.542810 0.829560 -0.509194
O35   O     O_R   0.818610 0.458010 0.823310 -0.507988
O36   O     O_R   0.787510 0.044390 0.330970 -0.527415
O37   O     O_R   0.212490 0.044390 0.669030 -0.528472
O38   O     O_R   0.287510 0.544390 0.330970 -0.532158
O39   O     O_R   0.712490 0.544390 0.669030 -0.522874
O40   O     O_R   0.765630 0.293570 0.323840 -0.508430
O41   O     O_R   0.234370 0.293570 0.676160 -0.509310
O42   O     O_R   0.265630 0.793570 0.323840 -0.512311
O43   O     O_R   0.734370 0.793570 0.676160 -0.502089
O44   O     O_R   0.670190 0.410420 0.329080 -0.521850
O45   O     O_R   0.556610 0.252880 0.323980 -0.511146
O46   O     O_R   0.329810 0.410420 0.670920 -0.517373
O47   O     O_R   0.170190 0.910420 0.329080 -0.521165
O48   O     O_R   0.829810 0.910420 0.670920 -0.514962
O49   O     O_3   0.503686 0.837397 0.566668 -0.757642
O50   O     O_3   0.416291 0.969774 0.421903 -0.738218
O51   O     O_3   0.003449 0.337404 0.566592 -0.758699
O52   O     O_3   0.916124 0.469982 0.421841 -0.737152
O53   O     O_3   0.835162 0.757821 0.112569 -0.690210
O54   O     O_3   0.121165 0.910256 0.911342 -0.674251
O55   O     O_3   0.377778 0.409812 0.089171 -0.678303
O56   O     O_R   0.443390 0.252880 0.676020 -0.501699
O57   O     O_3   0.655074 0.287401 0.901749 -0.681174
O58   O     O_3   0.187599 0.158209 0.945742 -0.612671
O59   O     O_3   0.883153 0.304416 0.075569 -0.677259
O60   O     O_3   0.619148 0.832034 0.919776 -0.671048
O61   O     O_3   0.311485 0.658314 0.053308 -0.615115
O62   O     O_3   0.631183 0.036720 0.887802 -0.626494
O63   O     O_3   0.410714 0.778129 0.068839 -0.691984
O64   O     O_3   0.088536 0.278116 0.930918 -0.682374
O65   O     O_3   0.900881 0.511005 0.100213 -0.635803
O66   O     O_R   0.056610 0.752880 0.323980 -0.510122
O67   O     O_R   0.943390 0.752880 0.676020 -0.501293
O68   O     O_R   0.545950 0.051210 0.330860 -0.532903

loop_
_geom_bond_atom_site_label_1
_geom_bond_atom_site_label_2
_ccdc_geom_bond_type
C3    C104  A    
C44   C49   A    
Cr9   O56   S    
C82   H34   S    
C3    C16   S    
C87   C91   A    
C7    O48   A    
C35   C53   S    
H58   O53   S    
C8    O45   A    
C20   C67   S    
C18   C26   A    
C119  H54   S    
C100  C105  A    
C74   C83   S    
C72   C76   A    
C118  H5    S    
Cr2   O32   S    
Cr6   O38   S    
C111  H3    S    
C90   C95   A    
Cr5   O37   S    
C85   C86   S    
C68   O26   A    
C18   C65   S    
C98   C124  A    
C57   H28   S    
C56   H27   S    
Cr8   O44   S    
C26   C27   A    
C54   O58   S    
C112  H52   S    
C65   O22   A    
C65   O27   A    
C32   C36   A    
C84   O50   S    
C28   C29   A    
C2    C103  A    
C9    C69   S    
C41   C58   S    
C38   C42   A    
Cr5   O12   S    
C95   C112  S    
C44   O54   S    
C115  O32   A    
C48   O20   A    
C10   C73   S    
C95   C99   A    
C75   C84   S    
C45   O55   S    
C20   C25   A    
C94   C98   A    
Cr4   O30   S    
Cr10  O11   S    
Cr12  O27   S    
C66   O24   A    
C94   C111  S    
C101  C106  A    
C40   C62   A    
C14   O6    A    
Cr1   O36   S    
Cr8   O9    S    
C104  H71   S    
C89   C94   A    
C16   O8    A    
C58   H29   S    
C112  H4    S    
C106  H46   S    
C56   H22   S    
Cr2   O6    S    
C91   C96   A    
C88   C93   A    
C52   C56   S    
C73   C80   A    
C7    C87   S    
C38   C55   S    
C83   C84   S    
C50   H20   S    
C12   O36   A    
Cr3   O33   S    
C62   C115  S    
C54   O64   S    
Cr11  O21   S    
C83   O49   S    
C40   C57   S    
Cr11  O48   S    
C84   H39   S    
Cr2   O28   S    
H41   O50   S    
Cr12  O31   S    
Cr11  O67   S    
Cr5   O15   S    
C27   H32   S    
C99   C121  S    
C14   O37   A    
C78   H1    S    
C117  O34   A    
C101  H56   S    
H69   O64   S    
C18   C22   A    
C55   C60   S    
C92   H11   S    
H61   O57   S    
C85   O51   S    
C121  H8    S    
C36   C41   A    
Cr12  O68   S    
C120  H7    S    
C12   O5    A    
C10   O66   A    
C102  C124  A    
C121  H57   S    
C9    O56   A    
Cr7   O43   S    
C109  C118  S    
C44   C62   A    
C4    C90   S    
Cr6   O42   S    
C69   C74   A    
C39   C61   A    
C52   O62   S    
C26   H31   S    
C55   O65   S    
C85   H36   S    
C74   C75   A    
C108  H48   S    
C1    C33   S    
C34   C39   A    
C17   C27   A    
C22   C81   A    
C5    O41   A    
C30   C47   A    
C110  H2    S    
H59   O54   S    
C55   O59   S    
C76   C77   A    
C4    O44   A    
C15   O7    A    
Cr2   O2    S    
C120  H55   S    
C42   C60   S    
C43   O53   S    
Cr1   O1    S    
C11   C72   S    
C25   C103  A    
C80   H23   S    
H63   O59   S    
Cr12  O9    S    
C20   C28   A    
C53   O63   S    
Cr1   O14   S    
C113  O31   A    
C46   C51   A    
C67   O29   A    
C110  H50   S    
C17   C21   A    
C64   C117  S    
C13   C24   A    
C7    O43   A    
C111  C120  S    
Cr10  O20   S    
C5    O46   A    
C97   C119  S    
C109  H72   S    
C19   C23   A    
C102  H67   S    
C1    O18   A    
Cr5   O10   S    
C6    O42   A    
Cr8   O18   S    
C11   O4    A    
C88   C106  A    
Cr7   O17   S    
C93   C97   A    
C60   H26   S    
C39   C56   S    
C87   C105  A    
C15   O38   A    
C37   O19   A    
C9    O2    A    
C11   O67   A    
C30   C59   S    
C89   C107  A    
C17   C66   S    
Cr11  O26   S    
C19   C68   S    
Cr7   O13   S    
C70   H9    S    
C101  C123  A    
C32   C37   S    
C29   H35   S    
C100  H45   S    
C86   O52   S    
C8    O68   A    
Cr7   O39   S    
Cr8   O45   S    
Cr4   O8    S    
C63   C116  S    
C117  O35   A    
C80   C82   A    
C15   C124  S    
C52   O60   S    
C57   H24   S    
C77   C86   S    
Cr3   O29   S    
C37   O15   A    
C53   O61   S    
C31   C48   S    
C110  C119  S    
C116  O23   A    
C61   C113  S    
Cr10  O66   S    
C31   C35   A    
C115  O12   A    
C69   C79   A    
C24   C81   A    
C66   O28   A    
C114  H14   S    
C105  H44   S    
C19   C29   A    
Cr5   O41   S    
C102  C107  A    
C104  C108  A    
C24   H17   S    
C43   C61   A    
Cr12  O5    S    
C54   C58   S    
C16   O39   A    
Cr3   O3    S    
C2    H15   S    
Cr4   O35   S    
C116  O33   A    
C67   O25   A    
Cr11  O13   S    
C53   C57   S    
C14   C123  S    
H70   O65   S    
C10   O3    A    
C78   C79   A    
C111  H51   S    
C49   H19   S    
H60   O55   S    
Cr9   O19   S    
C13   H16   S    
C5    C89   S    
Cr1   O40   S    
Cr7   O34   S    
Cr8   O22   S    
Cr4   O13   S    
Cr10  O47   S    
C42   C64   A    
H43   O52   S    
Cr3   O11   S    
C98   C120  S    
C79   H12   S    
C47   H18   S    
C33   C51   A    
C48   O16   A    
C93   C110  S    
C34   C52   S    
Cr9   O10   S    
H62   O58   S    
C96   C122  A    
C21   C70   A    
C86   H37   S    
C109  H49   S    
C21   C22   A    
C91   C109  S    
Cr6   O16   S    
C35   C40   A    
C96   C118  S    
Cr9   O24   S    
C113  O1    A    
C112  C121  S    
C97   C123  A    
C6    C88   S    
Cr4   O4    S    
C71   C75   A    
C2    C114  A    
Cr3   O7    S    
Cr9   O46   S    
C43   C47   A    
Cr6   O23   S    
C46   O57   S    
C118  H53   S    
Cr10  O25   S    
C45   C63   A    
C6    O47   A    
C32   C50   A    
C100  C122  A    
C23   C25   A    
C30   C34   A    
H66   O62   S    
Cr6   O11   S    
C59   O17   A    
C60   H30   S    
C36   C54   S    
H42   O51   S    
C103  H13   S    
C90   C108  A    
H68   O63   S    
C3    C99   A    
C28   H33   S    
H64   O60   S    
C12   C122  S    
C73   C77   A    
C81   H10   S    
C13   C70   A    
C83   H38   S    
C107  H47   S    
C4    O40   A    
C119  H6    S    
C41   C63   A    
C23   C92   A    
C1    O14   A    
C33   C38   A    
C68   O30   A    
C45   C50   A    
C31   C49   A    
C46   C64   A    
H40   O49   S    
H65   O61   S    
C58   H25   S    
C92   C114  A    
C76   C85   S    
C71   C78   A    
C72   C82   A    
C51   H21   S    
Cr2   O10   S    
Cr1   O9    S    
C8    C71   S    
C59   O21   A    
