data_mof_unit_58124.cif
_audit_creation_date              2012-10-26T21:33:22-0400
_audit_creation_method            fapswitch 2.2
_symmetry_space_group_name_H-M    P1
_symmetry_Int_Tables_number       1
_space_group_crystal_system       triclinic
_cell_length_a                    29.141808
_cell_length_b                    17.675344
_cell_length_c                    16.863786
_cell_angle_alpha                 89.892298
_cell_angle_beta                  61.196843
_cell_angle_gamma                 89.801635
_cell_volume                      7611.6673522

loop_
_atom_site_label
_atom_site_type_symbol
_atom_type_description
_atom_site_fract_x
_atom_site_fract_y
_atom_site_fract_z
_atom_type_partial_charge
C1    C     C_R   0.702602 0.270359 0.676165 0.902784
C2    C     C_R   0.085880 0.504514 0.534084 0.010090
C3    C     C_R   0.182663 0.228558 0.915169 0.046003
C4    C     C_R   0.071582 0.103760 0.936501 0.897729
C5    C     C_R   0.928857 0.895440 0.062724 0.901636
C6    C     C_R   0.928053 0.103648 0.063544 0.899637
C7    C     C_R   0.073024 0.897783 0.935528 0.903645
C8    C     C_R   0.572416 0.602883 0.935899 0.910161
C9    C     C_R   0.427036 0.397746 0.064399 0.892406
C10   C     C_R   0.427039 0.602138 0.064584 0.904179
C11   C     C_R   0.568491 0.392693 0.939593 0.887339
C12   C     C_R   0.565022 0.123785 0.458151 0.089190
C13   C     C_R   0.415635 0.003945 0.458474 0.011868
C14   C     C_R   0.432915 0.880042 0.544763 0.102132
C15   C     C_R   0.479325 0.132652 0.428384 0.094734
C16   C     C_R   0.518392 0.870870 0.574383 0.122067
C17   C     C_R   0.025146 0.635914 0.554383 0.078313
C18   C     C_R   0.979526 0.367032 0.431466 0.114857
C19   C     C_R   0.938791 0.627365 0.524951 0.074122
C20   C     C_R   0.069192 0.381074 0.449238 0.102465
C21   C     C_R   0.564053 0.175793 0.398027 -0.240022
C22   C     C_R   0.432455 0.827412 0.606909 -0.241659
C23   C     C_R   0.514541 0.191310 0.409756 -0.197014
C24   C     C_R   0.584663 0.998036 0.537906 0.011417
C25   C     C_R   0.477641 0.817789 0.613082 -0.227359
C26   C     C_R   0.994638 0.697650 0.557605 -0.192117
C27   C     C_R   0.019828 0.313265 0.398406 -0.206910
C28   C     C_R   0.944185 0.686094 0.573653 -0.252715
C29   C     C_R   0.068119 0.328223 0.389438 -0.240273
C30   C     C_R   0.490589 0.064507 0.458433 0.011084
C31   C     C_R   0.508560 0.937924 0.540817 0.014325
C32   C     C_R   0.532788 0.061520 0.478694 0.019947
C33   C     C_R   0.465763 0.940978 0.522121 0.019128
C34   C     C_R   0.969085 0.562999 0.512086 0.013960
C35   C     C_R   0.092896 0.365993 0.500788 0.021836
C36   C     C_R   0.034236 0.440831 0.474809 0.019059
C37   C     C_R   0.011392 0.566179 0.531823 0.010356
C38   C     C_R   0.990902 0.436358 0.459153 0.012130
C39   C     C_R   0.958365 0.498345 0.475820 -0.059255
C40   C     C_R   0.043257 0.503569 0.516117 -0.058988
C41   C     C_R   0.457987 0.003073 0.477953 -0.062227
C42   C     C_R   0.541849 0.998942 0.519905 -0.062851
C43   C     C_R   0.896735 0.424632 0.445175 0.039325
C44   C     C_R   0.104211 0.575943 0.551099 0.040909
C45   C     C_R   0.111780 0.432955 0.529920 0.021629
C46   C     C_R   0.915104 0.637788 0.472062 0.044985
C47   C     C_R   0.892408 0.568689 0.454530 0.018592
C48   C     C_R   0.390185 0.932886 0.463291 0.023365
C49   C     C_R   0.610087 0.069168 0.534652 0.025016
C50   C     C_R   0.603026 0.926180 0.552766 0.039886
C51   C     C_R   0.397802 0.075160 0.440412 0.040732
C52   C     C_R   0.846859 0.430350 0.441935 -0.094892
C53   C     C_R   0.153152 0.569671 0.557021 -0.097232
C54   C     C_R   0.156772 0.435311 0.545772 -0.098913
C55   C     C_R   0.845232 0.565430 0.445566 -0.106577
C56   C     C_R   0.343947 0.935190 0.450098 -0.102906
C57   C     C_R   0.929528 0.354749 0.438877 -0.023819
C58   C     C_R   0.656169 0.065610 0.547707 -0.100962
C59   C     C_R   0.653320 0.931075 0.555806 -0.092855
C60   C     C_R   0.347657 0.069749 0.437890 -0.101400
C61   C     C_R   0.827463 0.498243 0.431476 -0.338008
C62   C     C_R   0.172242 0.501524 0.566560 -0.340782
C63   C     C_R   0.327894 0.001632 0.430412 -0.335070
C64   C     C_R   0.672810 0.998694 0.565116 -0.343776
C65   C     C_3   0.091211 0.280427 0.528930 -0.300828
C66   C     C_3   0.051174 0.218801 0.537635 -0.451516
C67   C     C_3   0.065284 0.144070 0.568563 -0.886040
C68   C     C_R   0.072287 0.646405 0.557354 -0.008210
C69   C     C_3   0.915108 0.721682 0.439637 -0.281401
C70   C     C_3   0.957465 0.782099 0.420903 -0.463959
C71   C     C_3   0.943746 0.856157 0.387859 -0.884239
C72   C     C_3   0.912334 0.269159 0.443243 -0.303820
C73   C     C_3   0.936425 0.189546 0.440071 -0.528373
C74   C     C_3   0.897413 0.126028 0.453531 -0.812020
C75   C     C_3   0.086679 0.732664 0.564392 -0.290251
C76   C     C_3   0.057390 0.809723 0.573878 -0.484562
C77   C     C_3   0.087178 0.876797 0.587117 -0.824280
C78   C     C_3   0.587679 0.772800 0.550102 -0.312435
C79   C     C_R   0.569457 0.857754 0.562989 -0.027676
C80   C     C_3   0.562548 0.696429 0.545424 -0.504827
C81   C     C_3   0.604033 0.632683 0.511289 -0.819449
C82   C     C_3   0.415864 0.230098 0.423379 -0.303964
C83   C     C_3   0.445536 0.307442 0.408362 -0.504791
C84   C     C_3   0.412058 0.373523 0.404927 -0.825330
C85   C     C_3   0.412322 0.782019 0.460426 -0.309151
C86   C     C_3   0.457470 0.725944 0.441092 -0.438769
C87   C     C_3   0.440144 0.645836 0.431215 -0.894528
C88   C     C_3   0.589102 0.221902 0.538389 -0.299359
C89   C     C_3   0.547583 0.282490 0.552398 -0.477784
C90   C     C_R   0.430959 0.144569 0.429349 -0.010852
C91   C     C_3   0.562916 0.358492 0.577606 -0.887234
C92   C     C_3   0.593735 0.290740 0.066141 -0.435081
C93   C     C_3   0.569269 0.210859 0.090468 -0.385212
C94   C     C_3   0.550671 0.190567 0.189750 -0.853078
C95   C     C_3   0.382127 0.660135 0.943709 -0.386133
C96   C     C_3   0.355854 0.586664 0.936748 -0.274983
C97   C     C_3   0.381563 0.557171 0.839493 -0.904916
C98   C     C_3   0.383353 0.333747 0.941450 -0.402162
C99   C     C_3   0.427970 0.276927 0.888831 -0.331008
C100  C     C_3   0.444410 0.275526 0.787997 -0.910700
C101  C     C_R   0.409596 0.866095 0.490961 0.026699
C102  C     C_3   0.614298 0.666448 0.059019 -0.393431
C103  C     C_3   0.640311 0.595391 0.073242 -0.275651
C104  C     C_3   0.612813 0.570419 0.172367 -0.885802
C105  C     C_3   0.116360 0.831024 0.057436 -0.399261
C106  C     C_3   0.073815 0.770919 0.105964 -0.326879
C107  C     C_3   0.060703 0.761710 0.205126 -0.912988
C108  C     C_3   0.889631 0.175247 0.938524 -0.391792
C109  C     C_3   0.864774 0.108314 0.914055 -0.279217
C110  C     C_3   0.893726 0.092596 0.811923 -0.895070
C111  C     C_3   0.892304 0.815681 0.936301 -0.412521
C112  C     C_R   0.297759 0.731280 0.323991 0.905795
C113  C     C_R   0.590002 0.136963 0.509185 0.027752
C114  C     C_3   0.931651 0.749200 0.894693 -0.360785
C115  C     C_3   0.947393 0.738269 0.794705 -0.880177
C116  C     C_3   0.107581 0.177055 0.062045 -0.391788
C117  C     C_3   0.132079 0.110922 0.088454 -0.277708
C118  C     C_3   0.102145 0.096144 0.190374 -0.915709
C119  C     C_R   0.713839 0.259059 0.963975 0.114863
C120  C     C_R   0.282379 0.743507 0.042772 0.122966
C121  C     C_R   0.277157 0.264584 0.047175 0.104248
C122  C     C_R   0.718186 0.741286 0.957134 0.120726
C123  C     C_R   0.222455 0.763198 0.952655 0.108665
C124  C     C_R   0.780620 0.241849 0.043974 0.115837
C125  C     C_R   0.780904 0.760586 0.042970 0.109229
C126  C     C_R   0.215213 0.244203 0.960222 0.113623
C127  C     C_R   0.763757 0.293085 0.925233 -0.180241
C128  C     C_R   0.297188 0.270087 0.324339 0.888321
C129  C     C_R   0.233552 0.708093 0.075320 -0.209819
C130  C     C_R   0.227654 0.298961 0.081656 -0.184636
C131  C     C_R   0.767112 0.705241 0.923191 -0.210066
C132  C     C_R   0.271365 0.798504 0.920031 -0.183359
C133  C     C_R   0.730681 0.208715 0.083374 -0.205988
C134  C     C_R   0.731890 0.796594 0.076871 -0.179969
C135  C     C_R   0.264600 0.209410 0.926221 -0.206680
C136  C     C_R   0.795980 0.286367 0.965733 -0.175869
C137  C     C_R   0.204508 0.716373 0.029770 -0.194184
C138  C     C_R   0.197770 0.290796 0.037272 -0.177568
C139  C     C_R   0.702394 0.730832 0.675920 0.894506
C140  C     C_R   0.797409 0.713192 0.966611 -0.198884
C141  C     C_R   0.300356 0.790458 0.965977 -0.191162
C142  C     C_R   0.698370 0.216182 0.043610 -0.204265
C143  C     C_R   0.701526 0.788596 0.033335 -0.184656
C144  C     C_R   0.294727 0.218341 0.969816 -0.193915
C145  C     C_R   0.628073 0.299752 0.963234 0.115676
C146  C     C_R   0.361694 0.683565 0.043112 0.077912
C147  C     C_R   0.359204 0.320450 0.044221 0.094626
C148  C     C_R   0.637102 0.685424 0.957901 0.080863
C149  C     C_R   0.141134 0.820297 0.954633 0.098034
C150  C     C_R   0.202809 0.770020 0.675569 0.895233
C151  C     C_R   0.863814 0.188268 0.041360 0.083967
C152  C     C_R   0.864261 0.811836 0.040702 0.112290
C153  C     C_R   0.134261 0.189325 0.959242 0.082239
C154  C     C_R   0.607947 0.332825 0.907839 -0.108170
C155  C     C_R   0.385771 0.658419 0.096174 -0.103992
C156  C     C_R   0.384521 0.343412 0.096379 -0.094648
C157  C     C_R   0.613470 0.659602 0.904454 -0.108130
C158  C     C_R   0.115724 0.843654 0.902910 -0.097748
C159  C     C_R   0.887073 0.160997 0.095054 -0.107441
C160  C     C_R   0.887648 0.838713 0.094315 -0.102067
C161  C     C_R   0.797570 0.230726 0.324055 0.893527
C162  C     C_R   0.112082 0.161191 0.904777 -0.107147
C163  C     C_R   0.631173 0.317701 0.816513 -0.285650
C164  C     C_R   0.366835 0.680894 0.184456 -0.299593
C165  C     C_R   0.365565 0.320922 0.184590 -0.306348
C166  C     C_R   0.633061 0.681078 0.815642 -0.297995
C167  C     C_R   0.134642 0.821462 0.814730 -0.307459
C168  C     C_R   0.866964 0.181157 0.184333 -0.297441
C169  C     C_R   0.866973 0.819253 0.184040 -0.302012
C170  C     C_R   0.132848 0.180609 0.815128 -0.293429
C171  C     C_R   0.678429 0.280766 0.774116 -0.061187
C172  C     C_R   0.797265 0.770190 0.324214 0.900536
C173  C     C_R   0.321008 0.720898 0.226942 -0.055593
C174  C     C_R   0.319034 0.283175 0.228026 -0.048480
C175  C     C_R   0.679152 0.720179 0.773040 -0.051655
C176  C     C_R   0.181081 0.783151 0.771502 -0.048351
C177  C     C_R   0.820792 0.220267 0.226973 -0.051223
C178  C     C_R   0.820071 0.782085 0.227264 -0.054534
C179  C     C_R   0.178849 0.220063 0.773108 -0.057368
C180  C     C_R   0.704040 0.259666 0.823888 -0.248179
C181  C     C_R   0.294971 0.744312 0.178801 -0.239747
C182  C     C_R   0.291178 0.263981 0.181769 -0.239055
C183  C     C_R   0.202443 0.230610 0.675901 0.907386
C184  C     C_R   0.705359 0.742567 0.821126 -0.241030
C185  C     C_R   0.209002 0.763396 0.817600 -0.240909
C186  C     C_R   0.794487 0.242951 0.178996 -0.242059
C187  C     C_R   0.793058 0.762026 0.179813 -0.241857
C188  C     C_R   0.204323 0.243245 0.822123 -0.242192
C189  C     C_R   0.692585 0.128240 0.530212 0.906538
C190  C     C_R   0.307425 0.872030 0.469539 0.900763
C191  C     C_R   0.309455 0.130624 0.461642 0.901234
C192  C     C_R   0.691131 0.869991 0.535859 0.900579
C193  C     C_R   0.190999 0.630251 0.536593 0.903351
C194  C     C_R   0.916366 0.496868 0.456665 0.012504
C195  C     C_R   0.808854 0.369818 0.463627 0.902407
C196  C     C_R   0.808146 0.628537 0.466975 0.900625
C197  C     C_R   0.192824 0.372013 0.529122 0.903040
C198  C     C_R   0.680187 0.269669 0.918564 0.046944
C199  C     C_R   0.315007 0.726758 0.086966 0.041505
C200  C     C_R   0.310730 0.281333 0.090016 0.036114
C201  C     C_R   0.684893 0.726102 0.913442 0.042788
C202  C     C_R   0.189390 0.780623 0.909162 0.035647
C203  C     C_R   0.815101 0.227544 0.086312 0.044196
C204  C     C_R   0.814397 0.775980 0.086712 0.036693
H1    H     H_    0.099556 0.286585 0.357953 0.138315
H2    H     H_    0.205922 0.500603 0.577592 0.184826
H3    H     H_    0.623449 0.248398 0.479893 0.239438
H4    H     H_    0.582899 0.197958 0.207069 0.258133
H5    H     H_    0.517327 0.226602 0.234616 0.266544
H6    H     H_    0.537781 0.130741 0.203203 0.254788
H7    H     H_    0.535110 0.208215 0.078593 0.219466
H8    H     H_    0.597401 0.166955 0.046662 0.223892
H9    H     H_    0.617137 0.303980 0.100304 0.206563
H10   H     H_    0.560375 0.330445 0.097396 0.220144
H11   H     H_    0.380518 0.601083 0.792893 0.255899
H12   H     H_    0.422797 0.540822 0.816912 0.257342
H13   H     H_    0.293259 0.000987 0.422173 0.185544
H14   H     H_    0.359984 0.506412 0.836232 0.243031
H15   H     H_    0.357788 0.541878 0.981529 0.235092
H16   H     H_    0.313712 0.597718 0.959641 0.217389
H17   H     H_    0.375936 0.704206 0.903504 0.177955
H18   H     H_    0.425478 0.657028 0.905796 0.207861
H19   H     H_    0.410037 0.266529 0.776989 0.257370
H20   H     H_    0.463584 0.329469 0.755272 0.270698
H21   H     H_    0.472230 0.228097 0.755201 0.253244
H22   H     H_    0.462362 0.291272 0.897026 0.222570
H23   H     H_    0.415204 0.219058 0.916457 0.211185
H24   H     H_    0.707059 0.998951 0.574168 0.186649
H25   H     H_    0.353910 0.328914 0.918362 0.199861
H26   H     H_    0.395928 0.392416 0.919377 0.226387
H27   H     H_    0.613216 0.616672 0.216865 0.256435
H28   H     H_    0.571826 0.554205 0.193901 0.257935
H29   H     H_    0.633722 0.520487 0.180305 0.242962
H30   H     H_    0.639848 0.547890 0.030501 0.241592
H31   H     H_    0.682038 0.607448 0.052496 0.218467
H32   H     H_    0.618461 0.713771 0.097644 0.176039
H33   H     H_    0.571062 0.661816 0.093697 0.209853
H34   H     H_    0.096500 0.748363 0.211711 0.254456
H35   H     H_    0.661870 0.186683 0.075634 0.162470
H36   H     H_    0.042944 0.815479 0.242732 0.273617
H37   H     H_    0.032936 0.713873 0.235089 0.256449
H38   H     H_    0.037672 0.787579 0.103247 0.219628
H39   H     H_    0.087167 0.714688 0.071595 0.210156
H40   H     H_    0.145952 0.827623 0.080477 0.201760
H41   H     H_    0.101552 0.888451 0.082786 0.219485
H42   H     H_    0.894698 0.144308 0.772966 0.258149
H43   H     H_    0.934271 0.073679 0.790273 0.256947
H44   H     H_    0.873034 0.046910 0.795917 0.242548
H45   H     H_    0.865241 0.056186 0.950961 0.236173
H46   H     H_    0.337608 0.819180 0.939834 0.128670
H47   H     H_    0.823170 0.121177 0.934603 0.221792
H48   H     H_    0.887978 0.226799 0.902697 0.172391
H49   H     H_    0.932662 0.168285 0.907856 0.207494
H50   H     H_    0.912251 0.727573 0.785488 0.250526
H51   H     H_    0.964766 0.792619 0.761692 0.259737
H52   H     H_    0.975383 0.690037 0.764655 0.265321
H53   H     H_    0.967425 0.761804 0.899906 0.219843
H54   H     H_    0.914491 0.694998 0.931312 0.218616
H55   H     H_    0.863495 0.814919 0.911438 0.200417
H56   H     H_    0.911632 0.870118 0.904865 0.218831
H57   H     H_    0.332621 0.191229 0.940866 0.148943
H58   H     H_    0.101266 0.147926 0.228526 0.256615
H59   H     H_    0.061461 0.078394 0.211053 0.256746
H60   H     H_    0.121879 0.050123 0.207818 0.245901
H61   H     H_    0.132324 0.058490 0.051962 0.236134
H62   H     H_    0.173336 0.124021 0.069294 0.223805
H63   H     H_    0.108527 0.228733 0.097492 0.176093
H64   H     H_    0.064677 0.169930 0.091605 0.207092
H65   H     H_    0.664798 0.819053 0.059942 0.124332
H66   H     H_    0.167042 0.688504 0.057266 0.152088
H67   H     H_    0.832465 0.317200 0.935987 0.122674
H68   H     H_    0.834529 0.683974 0.938289 0.153342
H69   H     H_    0.910844 0.694730 0.643675 0.154165
H70   H     H_    0.161395 0.321833 0.063089 0.126148
H71   H     H_    0.777808 0.325928 0.863518 0.134520
H72   H     H_    0.218243 0.673268 0.135757 0.140358
H73   H     H_    0.212661 0.333820 0.141944 0.137238
H74   H     H_    0.781606 0.670146 0.863110 0.139133
H75   H     H_    0.286742 0.833364 0.859655 0.138344
H76   H     H_    0.716843 0.175705 0.145005 0.140656
H77   H     H_    0.717406 0.831988 0.136664 0.136104
H78   H     H_    0.279791 0.174985 0.865556 0.142808
H79   H     H_    0.613826 0.339063 0.776671 0.183091
H80   H     H_    0.014360 0.253961 0.393917 0.150776
H81   H     H_    0.385744 0.661935 0.222828 0.181411
H82   H     H_    0.385678 0.337087 0.221756 0.175836
H83   H     H_    0.614324 0.662129 0.777110 0.180915
H84   H     H_    0.114526 0.838017 0.777519 0.178424
H85   H     H_    0.885502 0.161483 0.223049 0.179260
H86   H     H_    0.886005 0.837463 0.222352 0.181507
H87   H     H_    0.114919 0.160207 0.775899 0.182601
H88   H     H_    0.743104 0.235911 0.788726 0.161984
H89   H     H_    0.257995 0.774205 0.213286 0.162533
H90   H     H_    0.253597 0.236065 0.217328 0.163034
H91   H     H_    0.017549 0.728635 0.494806 0.151260
H92   H     H_    0.742768 0.771033 0.786235 0.162397
H93   H     H_    0.246528 0.735029 0.782192 0.162967
H94   H     H_    0.756820 0.270981 0.214346 0.161679
H95   H     H_    0.754848 0.735849 0.215418 0.163635
H96   H     H_    0.241842 0.271428 0.787628 0.162562
H97   H     H_    0.106582 0.128013 0.521150 0.251076
H98   H     H_    0.060835 0.149697 0.637458 0.261615
H99   H     H_    0.040059 0.096878 0.568813 0.245191
H100  H     H_    0.010499 0.235295 0.585916 0.240161
H101  H     H_    0.054315 0.204301 0.471346 0.224979
H102  H     H_    0.481390 0.765142 0.639976 0.155086
H103  H     H_    0.126651 0.254871 0.471531 0.238256
H104  H     H_    0.089900 0.279924 0.596050 0.234742
H105  H     H_    0.944376 0.847884 0.322016 0.269433
H106  H     H_    0.903922 0.876288 0.438960 0.252296
H107  H     H_    0.971923 0.901520 0.380180 0.241810
H108  H     H_    0.957187 0.800122 0.483970 0.236200
H109  H     H_    0.997010 0.761261 0.373451 0.237320
H110  H     H_    0.909748 0.719984 0.378317 0.225564
H111  H     H_    0.882979 0.750501 0.499773 0.240579
H112  H     H_    0.861434 0.131675 0.520122 0.255215
H113  H     H_    0.496178 0.233961 0.460890 0.150505
H114  H     H_    0.887192 0.127395 0.398145 0.272324
H115  H     H_    0.915616 0.069931 0.451316 0.229222
H116  H     H_    0.969880 0.177659 0.371458 0.232837
H117  H     H_    0.947294 0.183185 0.495212 0.231515
H118  H     H_    0.881338 0.264828 0.515973 0.253441
H119  H     H_    0.902314 0.263923 0.387368 0.246715
H120  H     H_    0.087318 0.871721 0.652814 0.264143
H121  H     H_    0.128185 0.878903 0.529928 0.259075
H122  H     H_    0.067664 0.931405 0.587030 0.230701
H123  H     H_    0.055253 0.824788 0.511262 0.208783
H124  H     H_    0.401578 0.784844 0.635108 0.143992
H125  H     H_    0.017369 0.809641 0.629309 0.245369
H126  H     H_    0.096123 0.734429 0.621004 0.242364
H127  H     H_    0.118227 0.744721 0.493848 0.241315
H128  H     H_    0.637406 0.645196 0.442882 0.247252
H129  H     H_    0.619687 0.624707 0.559684 0.264739
H130  H     H_    0.586628 0.578204 0.506966 0.232663
H131  H     H_    0.533110 0.676971 0.613739 0.224477
H132  H     H_    0.545727 0.699721 0.499122 0.238157
H133  H     H_    0.618875 0.773585 0.477708 0.257286
H134  H     H_    0.597843 0.761592 0.604855 0.243673
H135  H     H_    0.596824 0.217064 0.362364 0.141456
H136  H     H_    0.406225 0.368409 0.345257 0.270934
H137  H     H_    0.373567 0.374567 0.467743 0.258383
H138  H     H_    0.431887 0.428519 0.400591 0.231671
H139  H     H_    0.450741 0.323308 0.467374 0.217498
H140  H     H_    0.483668 0.309184 0.345550 0.242356
H141  H     H_    0.402964 0.231145 0.370981 0.242614
H142  H     H_    0.386403 0.241772 0.495377 0.244403
H143  H     H_    0.403548 0.629744 0.493634 0.245101
H144  H     H_    0.432200 0.643772 0.373057 0.264903
H145  H     H_    0.470197 0.602718 0.421264 0.249593
H146  H     H_    0.792427 0.498769 0.424614 0.186995
H147  H     H_    0.493542 0.741278 0.378036 0.231578
H148  H     H_    0.466842 0.721816 0.497212 0.238569
H149  H     H_    0.379104 0.754138 0.519132 0.237641
H150  H     H_    0.409855 0.781415 0.396692 0.229185
H151  H     H_    0.563343 0.354470 0.642813 0.268040
H152  H     H_    0.602489 0.375957 0.523930 0.249737
H153  H     H_    0.535072 0.403800 0.582568 0.245497
H154  H     H_    0.547904 0.296021 0.488422 0.230379
H155  H     H_    0.507893 0.265309 0.604350 0.243229
H156  H     H_    0.590335 0.221822 0.603540 0.235310
O1    O     O_R   0.746490 0.236330 0.638080 -0.632937
O2    O     O_R   0.325830 0.813840 0.483730 -0.668335
O3    O     O_R   0.325830 0.186160 0.483730 -0.667560
O4    O     O_R   0.674170 0.813840 0.516270 -0.669481
O5    O     O_R   0.174170 0.686160 0.516270 -0.671068
O6    O     O_R   0.825830 0.313840 0.483730 -0.669659
O7    O     O_R   0.825830 0.686160 0.483730 -0.668479
O8    O     O_R   0.174170 0.313840 0.516270 -0.670901
O9    O     O_R   0.739960 0.127620 0.525000 -0.610862
O10   O     O_R   0.260040 0.872380 0.475000 -0.614001
O11   O     O_R   0.260040 0.127620 0.475000 -0.609729
O12   O     O_R   0.253510 0.763670 0.361920 -0.636012
O13   O     O_R   0.739960 0.872380 0.525000 -0.612047
O14   O     O_R   0.239960 0.627620 0.525000 -0.609608
O15   O     O_R   0.760040 0.372380 0.475000 -0.612484
O16   O     O_R   0.760040 0.627620 0.475000 -0.609411
O17   O     O_R   0.239960 0.372380 0.525000 -0.612468
O18   O     O_R   0.680700 0.294870 0.629350 -0.627857
O19   O     O_R   0.319300 0.705130 0.370650 -0.629199
O20   O     O_R   0.319300 0.294870 0.370650 -0.641742
O21   O     O_R   0.680700 0.705130 0.629350 -0.641100
O22   O     O_R   0.180700 0.794870 0.629350 -0.639378
O23   O     O_R   0.253510 0.236330 0.361920 -0.642664
O24   O     O_R   0.819300 0.205130 0.370650 -0.644810
O25   O     O_R   0.819300 0.794870 0.370650 -0.630841
O26   O     O_R   0.180700 0.205130 0.629350 -0.626985
O27   O     O_R   0.062020 0.072840 0.007170 -0.623270
O28   O     O_R   0.937980 0.927160 0.992830 -0.628438
O29   O     O_R   0.937980 0.072840 0.992830 -0.621604
O30   O     O_R   0.062020 0.927160 0.007170 -0.631945
O31   O     O_R   0.562020 0.572840 0.007170 -0.619038
O32   O     O_R   0.437980 0.427160 0.992830 -0.632799
O33   O     O_R   0.437980 0.572840 0.992830 -0.624993
O34   O     O_R   0.746490 0.763670 0.638080 -0.636930
O35   O     O_R   0.562020 0.427160 0.007170 -0.623848
O36   O     O_R   0.947860 0.073950 0.109290 -0.615424
O37   O     O_R   0.052140 0.926050 0.890710 -0.615795
O38   O     O_R   0.052140 0.073950 0.890710 -0.617876
O39   O     O_R   0.947860 0.926050 0.109290 -0.613151
O40   O     O_R   0.447860 0.573950 0.109290 -0.618417
O41   O     O_R   0.552140 0.426050 0.890710 -0.609850
O42   O     O_R   0.552140 0.573950 0.890710 -0.614169
O43   O     O_R   0.447860 0.426050 0.109290 -0.619692
O44   O     O_R   0.246490 0.736330 0.638080 -0.641398
O45   O     O_R   0.753510 0.263670 0.361920 -0.640491
O46   O     O_R   0.753510 0.736330 0.361920 -0.634811
O47   O     O_R   0.246490 0.263670 0.638080 -0.633195
O48   O     O_R   0.674170 0.186160 0.516270 -0.670498
Zn1   Zn    Zn3+2 0.792340 0.208750 0.507670 0.899541
Zn2   Zn    Zn3+2 0.494040 0.500000 0.919480 0.905890
Zn3   Zn    Zn3+2 0.005960 0.000000 0.080520 0.907150
Zn4   Zn    Zn3+2 0.994040 0.000000 0.919480 0.907456
Zn5   Zn    Zn3+2 0.207660 0.791250 0.492330 0.900917
Zn6   Zn    Zn3+2 0.207660 0.208750 0.492330 0.905331
Zn7   Zn    Zn3+2 0.792340 0.791250 0.507670 0.907895
Zn8   Zn    Zn3+2 0.292340 0.708750 0.507670 0.908452
Zn9   Zn    Zn3+2 0.707660 0.291250 0.492330 0.907214
Zn10  Zn    Zn3+2 0.707660 0.708750 0.492330 0.901371
Zn11  Zn    Zn3+2 0.292340 0.291250 0.507670 0.901447
Zn12  Zn    Zn3+2 0.505960 0.500000 0.080520 0.908138

loop_
_geom_bond_atom_site_label_1
_geom_bond_atom_site_label_2
_ccdc_geom_bond_type
C49   C113  A    
C102  H32   S    
C190  O2    A    
C31   C42   A    
C108  H49   S    
O29   Zn4   S    
O31   Zn12  S    
C106  H39   S    
C116  H63   S    
C50   C79   A    
C14   C33   A    
C114  C115  S    
C19   C46   A    
C16   C31   A    
C109  H45   S    
C86   H148  S    
C164  H81   S    
C138  H70   S    
C43   C194  A    
C50   C59   A    
C186  H94   S    
C166  H83   S    
C74   H112  S    
C52   C61   A    
C106  C107  S    
C7    O37   A    
C24   C42   A    
C108  C109  S    
C77   H122  S    
O7    Zn7   S    
C131  C140  A    
C65   H103  S    
C11   C154  S    
C172  O25   A    
C13   C51   A    
C44   C53   A    
C9    C156  S    
C93   H7    S    
C71   H105  S    
C117  H62   S    
C125  C140  A    
C58   C64   A    
C78   H133  S    
C147  C200  A    
C95   C146  S    
C8    C157  S    
C87   H145  S    
C107  H34   S    
C158  C167  A    
C142  H35   S    
C134  H77   S    
C94   H4    S    
C127  C136  A    
O9    Zn1   S    
C170  H87   S    
C179  C188  A    
C91   H151  S    
C96   H16   S    
O4    Zn10  S    
C187  C204  A    
C1    C171  S    
C177  C186  A    
C120  C129  A    
C67   H99   S    
C68   C75   S    
C185  C202  A    
C83   H139  S    
C75   C76   S    
C167  H84   S    
C108  C151  S    
C92   H9    S    
O23   Zn6   S    
C136  H67   S    
O24   Zn1   S    
C124  C133  A    
C103  H30   S    
O47   Zn11  S    
C6    O29   A    
O45   Zn9   S    
C161  C177  S    
C130  C138  A    
C111  H56   S    
O25   Zn7   S    
C15   C30   A    
C16   C25   A    
C109  H47   S    
C85   H150  S    
C127  H71   S    
C72   C73   S    
C10   O33   A    
C107  H36   S    
O26   Zn6   S    
C63   H13   S    
O27   Zn3   S    
C18   C38   A    
O12   Zn5   S    
C87   H144  S    
C28   H69   S    
C48   C101  A    
C80   H132  S    
C69   C70   S    
C99   H22   S    
C180  C198  A    
O36   Zn3   S    
C2    C40   A    
C128  O23   A    
C129  C137  A    
C88   C89   S    
C112  O19   A    
C98   C99   S    
O19   Zn8   S    
C97   H14   S    
C11   O41   A    
C129  H72   S    
C70   H109  S    
C62   H2    S    
C110  H43   S    
C84   H136  S    
C125  C204  S    
C123  C132  A    
C27   C29   A    
C119  C198  S    
C112  O12   A    
C121  C130  A    
C174  C182  A    
C85   C86   S    
C133  C142  A    
O18   Zn9   S    
O8    Zn6   S    
C108  H48   S    
C122  C201  S    
C181  H89   S    
C37   C40   A    
C51   C90   A    
C38   C39   A    
C78   C80   S    
C43   C52   A    
C98   C147  S    
C120  C199  S    
C29   H1    S    
C88   C113  S    
C131  H74   S    
C98   H26   S    
C20   C35   A    
O34   Zn7   S    
C118  H59   S    
O30   Zn3   S    
C2    C44   A    
C81   H130  S    
C97   H12   S    
C30   C41   A    
C89   C91   S    
C149  C158  A    
C82   H142  S    
C66   C67   S    
C134  C143  A    
C191  O11   A    
O40   Zn12  S    
C121  C144  A    
C135  H78   S    
C122  C143  A    
C187  H95   S    
C139  O21   A    
C2    C45   A    
C6    O36   A    
C197  O8    A    
C56   C190  S    
C115  H52   S    
C124  C203  S    
C34   C39   A    
C9    O32   A    
C23   H113  S    
C27   H80   S    
C104  H27   S    
C100  H19   S    
C165  C174  A    
C151  C159  A    
O10   Zn5   S    
C183  O47   A    
C89   H154  S    
C83   C84   S    
O42   Zn2   S    
C5    C160  S    
C19   C28   A    
C24   C50   A    
C105  H41   S    
C7    O30   A    
C145  C154  A    
C84   H138  S    
C94   H6    S    
C189  O48   A    
C181  C199  A    
C122  C131  A    
C172  C178  S    
C132  C141  A    
C1    O18   A    
C135  C144  A    
C102  H33   S    
C103  H31   S    
C184  C201  A    
C143  H65   S    
C107  H37   S    
C120  C141  A    
C116  H64   S    
C10   C155  S    
C192  O4    A    
C123  C137  A    
C195  O6    A    
C128  C174  S    
C170  C179  A    
C14   C22   A    
C130  H73   S    
C145  C198  A    
C117  C118  S    
C8    O31   A    
C55   C61   A    
C9    O43   A    
C186  C203  A    
C4    O27   A    
C148  C157  A    
C102  C103  S    
C171  C180  A    
C114  H53   S    
C43   C57   A    
C188  H96   S    
C61   H146  S    
C51   C60   A    
O38   Zn4   S    
C74   H114  S    
C149  C202  A    
C99   H23   S    
C119  C127  A    
C125  C134  A    
O1    Zn1   S    
O13   Zn7   S    
C34   C37   A    
C53   C193  S    
C73   C74   S    
C69   H111  S    
O14   Zn8   S    
C111  C152  S    
O15   Zn9   S    
C13   C41   A    
C3    C126  S    
C176  C185  A    
C196  O16   A    
C66   H100  S    
C166  C175  A    
C95   H17   S    
C54   C197  S    
O35   Zn12  S    
C182  H90   S    
O43   Zn12  S    
C35   C65   S    
C168  C177  A    
O17   Zn11  S    
O44   Zn8   S    
C111  H55   S    
C11   O35   A    
C195  O15   A    
C172  O46   A    
C146  C155  A    
O21   Zn10  S    
C160  C169  A    
C92   H10   S    
C70   C71   S    
C163  C171  A    
O48   Zn9   S    
O20   Zn11  S    
C72   H119  S    
C173  C181  A    
C168  H85   S    
C141  H46   S    
C59   C192  S    
C52   C195  S    
C106  H38   S    
C70   H108  S    
C161  O24   A    
C85   H149  S    
C86   H147  S    
C124  C136  A    
O11   Zn6   S    
C95   H18   S    
C182  C200  A    
C151  C203  A    
C86   C87   S    
C14   C101  A    
C54   C62   A    
C183  O26   A    
C196  O7    A    
C1    O1    A    
C121  C200  S    
C65   H104  S    
C87   H143  S    
C18   C57   A    
O39   Zn3   S    
C162  C170  A    
C93   H8    S    
C78   H134  S    
C161  O45   A    
C147  C156  A    
C71   H106  S    
C116  C153  S    
C178  C187  A    
C75   H126  S    
C180  H88   S    
C126  C135  A    
C21   C23   A    
C4    O38   A    
C4    C162  S    
C5    O39   A    
C88   H3    S    
C110  H44   S    
C46   C47   A    
C17   C68   A    
C192  O13   A    
C21   H135  S    
C137  H66   S    
O37   Zn4   S    
C91   H152  S    
C96   H15   S    
C105  C106  S    
C82   C90   S    
C197  O17   A    
C153  C162  A    
C16   C79   A    
C33   C41   A    
C36   C38   A    
C83   H140  S    
C109  C110  S    
C193  O5    A    
C115  H50   S    
C156  C165  A    
C92   C93   S    
C139  O34   A    
C111  C114  S    
C185  H93   S    
C57   C72   S    
C189  O9    A    
C191  O3    A    
C20   C36   A    
C118  H60   S    
C81   H129  S    
C82   C83   S    
C97   H11   S    
C103  C104  S    
C119  C142  A    
C32   C42   A    
C152  C204  A    
C175  C184  A    
C150  C176  S    
C152  C160  A    
C93   C94   S    
C67   H97   S    
C47   C194  A    
C139  C175  S    
C95   C96   S    
C193  O14   A    
O5    Zn5   S    
C3    C188  A    
C184  H92   S    
C6    C159  S    
C25   H102  S    
C7    C158  S    
C10   O40   A    
C159  C168  A    
C59   C64   A    
C133  H76   S    
C60   C63   A    
C17   C26   A    
C66   H101  S    
C104  H28   S    
C100  H20   S    
O28   Zn4   S    
C3    C153  A    
C80   H131  S    
C116  C117  S    
C146  C199  A    
C46   C69   S    
C102  C148  S    
C8    O42   A    
C31   C33   A    
C105  H40   S    
O16   Zn10  S    
C110  H42   S    
C15   C23   A    
C112  C173  S    
C12   C32   A    
C150  O44   A    
C148  C201  A    
C190  O10   A    
C179  C183  S    
C20   C29   A    
C72   H118  S    
O46   Zn10  S    
C39   C194  A    
C150  O22   A    
C67   H98   S    
C154  C163  A    
C36   C40   A    
C76   C77   S    
C78   C79   S    
C12   C21   A    
C22   C25   A    
C49   C58   A    
C140  H68   S    
C165  H82   S    
C164  C173  A    
C98   H25   S    
O32   Zn2   S    
C53   C62   A    
C99   C100  S    
C118  H58   S    
C144  H57   S    
C96   C97   S    
C58   C189  S    
C56   C63   A    
C17   C37   A    
C114  H54   S    
C82   H141  S    
C104  H29   S    
C163  H79   S    
C45   C54   A    
C26   H91   S    
C44   C68   A    
C73   H116  S    
O41   Zn2   S    
C74   H115  S    
C71   H107  S    
C169  C178  A    
C64   H24   S    
C85   C101  S    
C47   C55   A    
C12   C113  A    
O22   Zn5   S    
C24   C49   A    
C48   C56   A    
C132  H75   S    
C75   H127  S    
C76   H125  S    
C126  C138  A    
C123  C202  S    
C92   C145  S    
C77   H121  S    
C69   H110  S    
C5    O28   A    
C18   C27   A    
O3    Zn11  S    
C80   C81   S    
C19   C34   A    
C157  C166  A    
C13   C48   A    
C73   H117  S    
C155  C164  A    
C81   H128  S    
C105  C149  S    
C26   C28   A    
O6    Zn1   S    
C169  H86   S    
C89   H155  S    
C15   C90   A    
C30   C32   A    
C128  O20   A    
C91   H153  S    
C60   C191  S    
O2    Zn8   S    
C22   H124  S    
C88   H156  S    
C77   H120  S    
O33   Zn2   S    
C55   C196  S    
C100  H21   S    
C117  H61   S    
C115  H51   S    
C84   H137  S    
C94   H5    S    
C65   C66   S    
C167  C176  A    
C76   H123  S    
C35   C45   A    
