data_mof_unit_48423.cif
_audit_creation_date              2012-10-26T19:35:16-0400
_audit_creation_method            fapswitch 2.2
_symmetry_space_group_name_H-M    P1
_symmetry_Int_Tables_number       1
_space_group_crystal_system       triclinic
_cell_length_a                    10.819111
_cell_length_b                    10.803872
_cell_length_c                    9.552652
_cell_angle_alpha                 89.795924
_cell_angle_beta                  90.031834
_cell_angle_gamma                 89.400826
_cell_volume                      1116.52482736

loop_
_atom_site_label
_atom_site_type_symbol
_atom_type_description
_atom_site_fract_x
_atom_site_fract_y
_atom_site_fract_z
_atom_type_partial_charge
Br1   Br    Br    0.205202 0.899182 0.501225 -0.560924
C1    C     C_R   0.503223 0.262583 0.500439 0.549999
C2    C     C_R   0.573257 0.934996 0.397451 -0.144164
C3    C     C_R   0.506069 0.871157 0.500086 0.044776
C4    C     C_R   0.262453 0.506504 0.500628 0.557184
C5    C     C_R   0.450797 0.937397 0.608683 0.018660
C6    C     C_3   0.317917 0.940400 0.653366 0.021851
C7    C     C_3   0.329713 0.079382 0.668413 -0.222210
C8    C     C_R   0.574359 0.579011 0.073307 0.164905
C9    C     C_R   0.434392 0.415519 0.074673 -0.008042
C10   C     C_R   0.434494 0.415419 0.925878 -0.008302
C11   C     C_R   0.573778 0.579484 0.925870 0.163671
C12   C     C_R   0.063402 0.590728 0.601719 0.047225
C13   C     C_3   0.567463 0.717431 0.920418 -0.276590
C14   C     C_3   0.570150 0.716869 0.078704 -0.277127
C15   C     C_R   0.500313 0.737684 0.499704 0.564786
C16   C     C_R   0.737265 0.506002 0.499966 0.534750
C17   C     C_R   0.124075 0.664922 0.702299 -0.065591
C18   C     C_R   0.057389 0.740811 0.793260 -0.094682
C19   C     C_R   0.929686 0.748519 0.783106 -0.107044
C20   C     C_R   0.867713 0.677828 0.684437 -0.095653
C21   C     C_R   0.932634 0.594419 0.596472 0.031383
C22   C     C_R   0.128381 0.516361 0.502755 0.012333
C23   C     C_R   0.064316 0.448643 0.402384 -0.147521
C24   C     C_R   0.936940 0.448231 0.401872 -0.147284
C25   C     C_R   0.870709 0.517684 0.499814 -0.000499
C26   C     C_R   0.458090 0.064741 0.613740 -0.008484
C27   C     C_R   0.512110 0.129483 0.503507 0.022814
C28   C     C_R   0.574941 0.064241 0.397989 -0.141196
Cu1   Cu    Cu3+1 0.499990 0.499980 0.640670 0.931488
Cu2   Cu    Cu3+1 0.500010 0.500020 0.359330 0.954643
H1    H     H_    0.113261 0.392045 0.326596 0.132708
H2    H     H_    0.483419 0.754125 0.125457 0.166789
H3    H     H_    0.223096 0.670839 0.709382 0.158503
H4    H     H_    0.105487 0.797228 0.868797 0.115695
H5    H     H_    0.878634 0.811127 0.850400 0.108661
H6    H     H_    0.769214 0.692281 0.675579 0.132663
H7    H     H_    0.889751 0.390734 0.326445 0.136118
H8    H     H_    0.622600 0.112919 0.315021 0.128832
H9    H     H_    0.621884 0.885521 0.315864 0.116723
H10   H     H_    0.302014 0.891709 0.754251 0.109444
H11   H     H_    0.268904 0.134876 0.597660 0.172816
H12   H     H_    0.329113 0.110482 0.779265 0.103390
H13   H     H_    0.379042 0.348835 0.130618 0.120766
H14   H     H_    0.379292 0.348626 0.870374 0.117076
H15   H     H_    0.651240 0.758823 0.873496 0.115983
H16   H     H_    0.478410 0.753091 0.877396 0.146476
H17   H     H_    0.657037 0.755157 0.121898 0.120527
N1    N     N_R   0.500790 0.500930 0.147930 -0.233571
N2    N     N_R   0.500790 0.500890 0.852020 -0.235364
O1    O     O_R   0.500000 0.319640 0.618810 -0.500289
O2    O     O_R   0.500010 0.319680 0.381230 -0.510051
O3    O     O_R   0.319640 0.499980 0.618820 -0.522185
O4    O     O_R   0.319650 0.500020 0.381230 -0.490753
O5    O     O_R   0.499990 0.680320 0.618770 -0.523721
O6    O     O_R   0.500000 0.680360 0.381190 -0.497546
O7    O     O_R   0.680350 0.499980 0.618770 -0.502616
O8    O     O_R   0.680360 0.500020 0.381180 -0.502229

loop_
_geom_bond_atom_site_label_1
_geom_bond_atom_site_label_2
_ccdc_geom_bond_type
C3    C15   S    
C11   N2    A    
Cu1   O1    S    
C15   O6    A    
C13   H16   S    
Cu2   O6    S    
Cu1   O5    S    
Cu2   O2    S    
C18   C19   A    
C4    C22   S    
C7    H12   S    
C16   O8    A    
C22   C23   A    
C24   C25   A    
C28   H8    S    
C23   H1    S    
Cu1   N2    S    
C15   O5    A    
C8    N1    A    
C6    C7    S    
C13   H15   S    
C10   N2    A    
C18   H4    S    
C20   C21   A    
C23   C24   A    
C17   H3    S    
C5    C6    S    
C1    O2    A    
C14   H17   S    
Cu2   N1    S    
C16   C25   S    
C12   C17   A    
Cu2   O8    S    
C4    O3    A    
C27   C28   A    
C8    C11   A    
C11   C13   S    
C12   C21   A    
C6    H10   S    
Cu2   O4    S    
C8    C14   S    
Cu1   Cu2   S    
C24   H7    S    
Cu1   O3    S    
C10   H14   S    
C9    C10   A    
C9    H13   S    
C2    C3    A    
C19   H5    S    
Cu1   O7    S    
C4    O4    A    
C20   H6    S    
C19   C20   A    
C12   C22   A    
C3    C5    A    
C17   C18   A    
C21   C25   A    
C16   O7    A    
C26   C27   A    
C2    C28   A    
C7    C26   S    
C13   C14   S    
C1    C27   S    
C1    O1    A    
C2    H9    S    
Br1   C6    S    
C9    N1    A    
C14   H2    S    
C5    C26   A    
C7    H11   S    
