data_mof_unit_36113.cif
_audit_creation_date              2012-10-26T21:27:13-0400
_audit_creation_method            fapswitch 2.2
_symmetry_space_group_name_H-M    P1
_symmetry_Int_Tables_number       1
_space_group_crystal_system       triclinic
_cell_length_a                    12.338252
_cell_length_b                    12.332009
_cell_length_c                    23.319592
_cell_angle_alpha                 89.932854
_cell_angle_beta                  90.038521
_cell_angle_gamma                 89.887067
_cell_volume                      3548.19252154

loop_
_atom_site_label
_atom_site_type_symbol
_atom_type_description
_atom_site_fract_x
_atom_site_fract_y
_atom_site_fract_z
_atom_type_partial_charge
C1    C     C_3   0.999843 0.999675 0.250867 -0.047193
C2    C     C_R   0.899177 0.999308 0.293028 -0.001689
C3    C     C_R   0.000031 0.648774 0.921556 0.539657
C4    C     C_R   0.000154 0.349670 0.077715 0.541039
C5    C     C_R   0.351463 0.000234 0.421491 0.541627
C6    C     C_R   0.649989 0.999954 0.577921 0.539741
C7    C     C_R   0.999915 0.351264 0.921613 0.544563
C8    C     C_R   0.999879 0.650247 0.077733 0.540666
C9    C     C_R   0.648537 0.999823 0.421505 0.541900
C10   C     C_R   0.349754 0.999954 0.577711 0.543846
C11   C     C_R   0.081469 0.186926 0.207027 0.074945
C12   C     C_3   0.000924 0.001519 0.750606 -0.045275
C13   C     C_R   0.918995 0.815437 0.793664 -0.000542
C14   C     C_R   0.815050 0.085464 0.705684 0.078990
C15   C     C_R   0.185948 0.918489 0.293825 0.004269
C16   C     C_R   0.918450 0.812463 0.207018 0.074373
C17   C     C_R   0.083610 0.185795 0.794286 -0.034444
C18   C     C_R   0.187961 0.919563 0.707221 0.070830
C19   C     C_R   0.813731 0.081028 0.293581 0.004745
C20   C     C_R   0.078247 0.896793 0.840286 -0.010360
C21   C     C_R   0.923064 0.102680 0.161127 0.007718
C22   C     C_R   0.895238 0.920548 0.339592 -0.015800
C23   C     C_R   0.000403 0.100855 0.208270 0.027444
C24   C     C_R   0.104133 0.079056 0.661510 0.020341
C25   C     C_R   0.919464 0.107450 0.837657 -0.028520
C26   C     C_R   0.076957 0.896831 0.161307 0.007601
C27   C     C_R   0.104278 0.078877 0.339597 -0.016319
C28   C     C_R   0.897790 0.924200 0.661220 0.013026
C29   C     C_R   0.077504 0.267371 0.164786 -0.075900
C30   C     C_R   0.923246 0.732394 0.834444 -0.107896
C31   C     C_R   0.732957 0.078958 0.664227 -0.037768
C32   C     C_R   0.269029 0.923374 0.334428 -0.101738
C33   C     C_R   0.922469 0.732191 0.164772 -0.076306
C34   C     C_R   0.000407 0.900932 0.793269 0.008507
C35   C     C_R   0.078709 0.268212 0.835195 -0.135674
C36   C     C_R   0.267815 0.922732 0.664771 -0.075365
C37   C     C_R   0.730880 0.076522 0.334293 -0.102073
C38   C     C_R   0.078288 0.811764 0.879356 -0.099824
C39   C     C_R   0.924693 0.184304 0.119861 -0.076884
C40   C     C_R   0.810542 0.920463 0.378737 -0.100974
C41   C     C_R   0.185316 0.076774 0.620142 -0.075752
C42   C     C_R   0.919415 0.191212 0.877339 -0.107503
C43   C     C_R   0.075422 0.815355 0.120049 -0.077503
C44   C     C_R   0.189168 0.079293 0.378680 -0.101183
C45   C     C_R   0.900131 0.002839 0.707698 0.004619
C46   C     C_R   0.815128 0.924215 0.620577 -0.078184
C47   C     C_R   0.000572 0.265923 0.121709 0.009872
C48   C     C_R   0.001031 0.731456 0.877136 0.003438
C49   C     C_R   0.733313 0.000117 0.622174 -0.005326
C50   C     C_R   0.269486 0.001624 0.376839 0.002882
C51   C     C_R   0.999487 0.733774 0.121776 0.009639
C52   C     C_R   0.998955 0.269574 0.876848 -0.013672
C53   C     C_R   0.266300 0.999859 0.621725 0.008560
C54   C     C_R   0.730462 0.998407 0.376863 0.002057
C55   C     C_2   0.175903 0.203125 0.245210 0.249717
C56   C     C_R   0.100397 0.000069 0.293146 -0.001768
C57   C     C_2   0.819719 0.808594 0.758370 0.199943
C58   C     C_2   0.808518 0.188142 0.739181 0.272300
C59   C     C_2   0.191864 0.817882 0.259568 0.199146
C60   C     C_2   0.824099 0.796033 0.245181 0.249773
C61   C     C_2   0.184533 0.191143 0.760281 0.220080
C62   C     C_2   0.204950 0.826263 0.746162 0.249269
C63   C     C_2   0.807739 0.181436 0.259052 0.199342
C64   C     C_2   0.160820 0.979572 0.854225 0.261545
C65   C     C_2   0.833695 0.024400 0.153337 0.216144
C66   C     C_2   0.978141 0.837258 0.352878 0.255594
C67   C     C_R   0.999466 0.898557 0.208331 0.027492
C68   C     C_2   0.026582 0.169695 0.654008 0.199815
C69   C     C_2   0.831693 0.028261 0.847536 0.286757
C70   C     C_2   0.166361 0.975100 0.153610 0.216591
C71   C     C_2   0.021244 0.162016 0.352749 0.255123
C72   C     C_2   0.976908 0.835241 0.653462 0.213946
C73   C     C_R   0.000836 0.101777 0.792696 -0.063872
C74   C     C_R   0.102073 0.000988 0.708361 0.029469
Cu1   Cu    Cu3+1 0.889520 0.500000 0.000000 1.020164
Cu2   Cu    Cu3+1 0.110480 0.500000 0.000000 1.020588
Cu3   Cu    Cu3+1 0.500000 0.889520 0.500000 1.017864
Cu4   Cu    Cu3+1 0.500000 0.110480 0.500000 1.018003
H1    H     H_    0.136964 0.332276 0.164800 0.129262
H2    H     H_    0.865210 0.184422 0.085516 0.162361
H3    H     H_    0.809830 0.861213 0.413257 0.159029
H4    H     H_    0.185612 0.136591 0.585928 0.163314
H5    H     H_    0.858220 0.192966 0.910799 0.165554
H6    H     H_    0.134991 0.815363 0.085788 0.162094
H7    H     H_    0.189877 0.138572 0.413113 0.158756
H8    H     H_    0.814673 0.863765 0.586753 0.162925
H9    H     H_    0.179440 0.275363 0.271575 0.179034
H10   H     H_    0.810731 0.742363 0.728139 0.107533
H11   H     H_    0.878404 0.237702 0.747711 0.096167
H12   H     H_    0.862231 0.668998 0.834305 0.137513
H13   H     H_    0.257614 0.807148 0.229195 0.109962
H14   H     H_    0.820622 0.723619 0.271497 0.179305
H15   H     H_    0.195785 0.257045 0.729994 0.108100
H16   H     H_    0.276985 0.824034 0.772756 0.183004
H17   H     H_    0.742148 0.191837 0.228491 0.110028
H18   H     H_    0.136838 0.054084 0.875044 0.139783
H19   H     H_    0.779106 0.007403 0.187901 0.168106
H20   H     H_    0.053315 0.860442 0.373201 0.131987
H21   H     H_    0.010437 0.224917 0.688531 0.078697
H22   H     H_    0.849139 0.952106 0.868648 0.121499
H23   H     H_    0.669158 0.139669 0.662897 0.171591
H24   H     H_    0.221209 0.991574 0.188156 0.167929
H25   H     H_    0.946257 0.138714 0.373206 0.131474
H26   H     H_    0.996103 0.782050 0.688385 0.167191
H27   H     H_    0.332428 0.862115 0.334614 0.139749
H28   H     H_    0.862992 0.667305 0.164727 0.129387
H29   H     H_    0.140876 0.330446 0.836120 0.150172
H30   H     H_    0.332519 0.862813 0.664758 0.132489
H31   H     H_    0.667609 0.137913 0.334400 0.139896
H32   H     H_    0.137087 0.810829 0.914070 0.158247
O1    O     O_R   0.907020 0.615090 0.941240 -0.503693
O2    O     O_R   0.092980 0.615090 0.941240 -0.508459
O3    O     O_R   0.384910 0.092980 0.558760 -0.514233
O4    O     O_R   0.615090 0.907020 0.441240 -0.508922
O5    O     O_R   0.092980 0.615090 0.058760 -0.516389
O6    O     O_R   0.907020 0.384910 0.941240 -0.508404
O7    O     O_R   0.615090 0.907020 0.558760 -0.513296
O8    O     O_R   0.384910 0.092980 0.441240 -0.509035
O9    O     O_2   0.256065 0.145464 0.242613 -0.523727
O10   O     O_2   0.743586 0.870037 0.766125 -0.443961
O11   O     O_2   0.721100 0.222158 0.756101 -0.434604
O12   O     O_R   0.092980 0.384910 0.058760 -0.497092
O13   O     O_2   0.130030 0.742664 0.268387 -0.455524
O14   O     O_2   0.743926 0.853704 0.242606 -0.523806
O15   O     O_2   0.259327 0.128528 0.769144 -0.437689
O16   O     O_2   0.148361 0.745484 0.743945 -0.527203
O17   O     O_2   0.869318 0.256862 0.267831 -0.455253
O18   O     O_2   0.257314 0.959035 0.850292 -0.447835
O19   O     O_2   0.818126 0.981529 0.106864 -0.471737
O20   O     O_2   0.957295 0.740895 0.348760 -0.452282
O21   O     O_2   0.983233 0.185760 0.607646 -0.483596
O22   O     O_2   0.737285 0.053065 0.838879 -0.378362
O23   O     O_R   0.384910 0.907020 0.441240 -0.504026
O24   O     O_2   0.181722 0.018477 0.107206 -0.470276
O25   O     O_2   0.041790 0.258415 0.348324 -0.452226
O26   O     O_2   0.018213 0.818537 0.606696 -0.474015
O27   O     O_R   0.615090 0.092980 0.558760 -0.501510
O28   O     O_R   0.092980 0.384910 0.941240 -0.500182
O29   O     O_R   0.907020 0.615090 0.058760 -0.497540
O30   O     O_R   0.615090 0.092980 0.441240 -0.503945
O31   O     O_R   0.384910 0.907020 0.558760 -0.497693
O32   O     O_R   0.907020 0.384910 0.058760 -0.515875

loop_
_geom_bond_atom_site_label_1
_geom_bond_atom_site_label_2
_ccdc_geom_bond_type
C43   H6    S    
C12   C74   S    
C36   H30   S    
C14   C31   A    
C30   H12   S    
C24   C74   A    
C11   C55   S    
C15   C32   A    
C55   O9    D    
Cu3   Cu4   S    
C5    O23   A    
C46   C49   A    
C28   C46   A    
C29   C47   A    
C8    O29   A    
C26   C67   A    
C31   H23   S    
C30   C48   A    
Cu4   O8    S    
C1    C56   S    
C7    C52   S    
Cu3   O7    S    
C4    O32   A    
C9    O30   A    
C61   H15   S    
C72   O26   D    
C13   C57   S    
C63   H17   S    
C3    C48   S    
Cu2   O5    S    
C1    C2    S    
C16   C60   S    
C60   O14   D    
C10   C53   S    
C22   C66   S    
C36   C53   A    
C19   C37   A    
C8    O5    A    
C17   C61   S    
C27   C44   A    
C19   C63   S    
C64   O18   D    
C29   H1    S    
C2    C22   A    
C38   H32   S    
C6    O7    A    
C38   C48   A    
C20   C34   A    
C18   C74   A    
C12   C73   S    
C17   C73   A    
C24   C41   A    
C28   C72   S    
Cu3   O23   S    
C31   C49   A    
C26   C43   A    
C14   C45   A    
C60   H14   S    
C59   O13   D    
C14   C58   S    
C28   C45   A    
C42   H5    S    
C13   C30   A    
C64   H18   S    
C3    O1    A    
C62   O16   D    
C27   C56   A    
C18   C62   S    
C72   H26   S    
C10   O31   A    
C7    O6    A    
C20   C64   S    
C68   O21   D    
Cu1   Cu2   S    
Cu1   O32   S    
C16   C33   A    
C20   C38   A    
C21   C39   A    
C3    O2    A    
Cu2   O2    S    
C22   C40   A    
C4    O12   A    
C16   C67   A    
C59   H13   S    
C8    C51   S    
C41   C53   A    
C10   O3    A    
C57   O10   D    
C37   C54   A    
C1    C23   S    
C40   C54   A    
C32   H27   S    
C21   C23   A    
C26   C70   S    
C5    C50   S    
Cu4   O3    S    
C25   C69   S    
C9    O4    A    
C12   C34   S    
Cu3   O4    S    
Cu4   O27   S    
C27   C71   S    
C39   C47   A    
C44   C50   A    
C71   H25   S    
C58   O11   D    
C15   C59   S    
C21   C65   S    
C2    C19   A    
C37   H31   S    
C40   H3    S    
C33   H28   S    
C12   C45   S    
Cu4   O30   S    
C25   C42   A    
C7    O28   A    
C65   O19   D    
C70   H24   S    
C9    C54   S    
Cu2   O28   S    
C33   C51   A    
Cu1   O1    S    
C57   H10   S    
C5    O8    A    
Cu2   O12   S    
C39   H2    S    
C66   H20   S    
C6    O27   A    
C62   H16   S    
C68   H21   S    
C65   H19   S    
C13   C34   A    
Cu1   O29   S    
C15   C56   A    
C71   O25   D    
C43   C51   A    
C69   O22   D    
C41   H4    S    
C11   C23   A    
C1    C67   S    
C32   C50   A    
C25   C73   A    
C6    C49   S    
C55   H9    S    
C58   H11   S    
Cu3   O31   S    
C35   H29   S    
C24   C68   S    
C69   H22   S    
C11   C29   A    
C35   C52   A    
C70   O24   D    
C61   O15   D    
Cu1   O6    S    
C17   C35   A    
C66   O20   D    
C18   C36   A    
C63   O17   D    
C44   H7    S    
C42   C52   A    
C46   H8    S    
C4    C47   S    
