data_mof_unit_7068.cif
_audit_creation_date              2013-03-05T15:55:02-0500
_audit_creation_method            fapswitch 2.2
_symmetry_space_group_name_H-M    P1
_symmetry_Int_Tables_number       1
_space_group_crystal_system       triclinic
_cell_length_a                    11.653497
_cell_length_b                    12.359775
_cell_length_c                    13.126262
_cell_angle_alpha                 116.496006
_cell_angle_beta                  77.726246
_cell_angle_gamma                 100.4613
_cell_volume                      1645.22729644

loop_
_atom_site_label
_atom_site_type_symbol
_atom_site_description
_atom_site_fract_x
_atom_site_fract_y
_atom_site_fract_z
_atom_type_partial_charge
O1    O     O_R   0.533340 0.972510 0.318140 -0.582447
O2    O     O_R   0.488570 0.806530 0.359650 -0.582233
C1    C     C_R   0.509880 0.855045 0.286425 0.768509
O3    O     O_R   0.685190 0.083000 0.479260 -0.565394
O4    O     O_R   0.640410 0.917020 0.520770 -0.579870
C2    C     C_R   0.715461 0.999782 0.500549 0.816108
Cu1   Cu    Cu3+1 0.526510 0.098270 0.475420 0.959567
Cu2   Cu    Cu3+1 0.473490 0.901730 0.524580 0.934367
O5    O     O_R   0.511430 0.193470 0.640350 -0.593428
O6    O     O_R   0.466660 0.027490 0.681860 -0.591353
O7    O     O_R   0.359590 0.082980 0.479230 -0.553405
O8    O     O_R   0.314810 0.917000 0.520740 -0.586074
C3    C     C_R   0.483764 0.144972 0.713690 0.816628
C4    C     C_R   0.284473 0.000690 0.500095 0.815938
C5    C     C_1   0.837040 0.998900 0.500652 -0.180800
C6    C     C_1   0.939859 0.999419 0.500368 0.011559
C7    C     C_1   0.060082 0.000730 0.499958 0.015773
C8    C     C_1   0.162909 0.001432 0.499812 -0.160923
C9    C     C_R   0.359309 0.274353 0.029480 0.339334
H1    H     H_    0.364165 0.094295 0.891931 0.183706
H2    H     H_    0.276872 0.462850 0.224029 0.197854
C10   C     C_R   0.462956 0.228105 0.836050 -0.111845
C11   C     C_R   0.585110 0.813624 0.083075 -0.174216
C12   C     C_R   0.609398 0.733721 0.968145 -0.139664
C13   C     C_R   0.570897 0.610807 0.931918 -0.183936
C14   C     C_R   0.502045 0.565272 0.010091 0.102087
C15   C     C_R   0.466014 0.649857 0.124281 0.086366
C16   C     C_R   0.466786 0.439047 0.978663 0.030960
C17   C     C_R   0.391097 0.400087 0.059207 0.027451
C18   C     C_R   0.343546 0.487650 0.164893 -0.179893
C19   C     C_R   0.378764 0.610019 0.195948 -0.210845
C20   C     C_R   0.504318 0.350338 0.869065 -0.253140
C21   C     C_R   0.393428 0.189812 0.916837 -0.258862
C22   C     C_R   0.516397 0.772662 0.162881 -0.101949
H3    H     H_    0.564304 0.373817 0.805859 0.157167
H4    H     H_    0.622928 0.907199 0.109958 0.152063
H5    H     H_    0.595176 0.554919 0.841705 0.127169
H6    H     H_    0.661989 0.766563 0.907142 0.146773
H7    H     H_    0.334162 0.672954 0.276151 0.175743
C23   C     C_R   0.615673 0.305136 0.283531 -0.249310
H8    H     H_    0.660297 0.141226 0.275771 0.123930
H9    H     H_    0.615981 0.479579 0.224212 0.154712
H10   H     H_    0.657613 0.285672 0.195963 0.135486
N1    N     N_R   0.566700 0.246290 0.438210 -0.187317
C24   C     C_R   0.357483 0.771267 0.659732 0.084454
C25   C     C_R   0.329284 0.681146 0.699660 -0.242951
C26   C     C_R   0.378603 0.571142 0.638077 -0.170385
C27   C     C_R   0.455728 0.549188 0.534218 -0.036483
C28   C     C_R   0.484540 0.644582 0.496489 0.252616
C29   C     C_R   0.507346 0.436688 0.466497 -0.025057
C30   C     C_R   0.560735 0.411601 0.352031 0.153095
C31   C     C_R   0.569178 0.498478 0.310434 -0.221464
C32   C     C_R   0.563024 0.619159 0.390236 0.171549
C33   C     C_R   0.509610 0.348088 0.506522 0.042841
C34   C     C_R   0.619815 0.224606 0.329374 0.102419
N2    N     N_R   0.434010 0.754320 0.561170 -0.200858
H11   H     H_    0.465533 0.357931 0.590705 0.118278
H12   H     H_    0.318623 0.856274 0.708767 0.135457
H13   H     H_    0.352236 0.503125 0.671183 0.141664
H14   H     H_    0.268668 0.696620 0.778679 0.156990
C35   C     C_3   0.682449 0.689874 0.384889 -0.755667
H15   H     H_    0.710116 0.735757 0.471406 0.235516
H16   H     H_    0.754024 0.630143 0.332274 0.190956
H17   H     H_    0.684628 0.749904 0.342219 0.240944
N3    N     N_R   0.292504 0.231052 0.111848 0.110137
O9    O     O_R   0.323155 0.271557 0.213290 -0.369599
O10   O     O_R   0.214929 0.136838 0.079379 -0.366797

loop_
_geom_bond_atom_site_label_1
_geom_bond_atom_site_label_2
_geom_bond_distance
_ccdc_geom_bond_type
O4    Cu2   1.911962 S    
C12   H6    1.082854 S    
C11   C12   1.386333 A    
O6    C3    1.308336 A    
C9    N3    1.438262 S    
C17   C18   1.397907 A    
C11   H4    1.083165 S    
C35   H17   1.105792 S    
C28   N2    1.399004 A    
H2    C18   1.081484 S    
C4    C8    1.419137 S    
C14   C16   1.427579 A    
C26   C27   1.406245 A    
C19   H7    1.080289 S    
C18   C19   1.384818 A    
Cu2   O8    1.905904 S    
C11   C22   1.401519 A    
C25   H14   1.082565 S    
Cu2   N2    2.035759 S    
C27   C29   1.434906 A    
C7    C8    1.196360 T    
C13   C14   1.419401 A    
Cu1   Cu2   2.717207 S    
C35   H16   1.114226 S    
C24   C25   1.392172 A    
C31   C32   1.392851 A    
Cu1   O7    1.911962 S    
N1    C34   1.355925 A    
C14   C15   1.417594 A    
C29   C33   1.416218 A    
C10   C20   1.393824 A    
O3    Cu1   1.905905 S    
C28   C32   1.432279 A    
H1    C21   1.083396 S    
Cu2   O6    1.948414 S    
C16   C17   1.425197 A    
O8    C4    1.300777 A    
C3    C10   1.465124 S    
C29   C30   1.413390 A    
O2    C1    1.305288 A    
C15   C22   1.421945 A    
O4    C2    1.304003 A    
O7    C4    1.303483 A    
O2    Cu2   1.934594 S    
C24   H12   1.081068 S    
C26   H13   1.079526 S    
N3    O10   1.301373 A    
C35   H15   1.108994 S    
C15   C19   1.409269 A    
C30   C31   1.386632 A    
C9    C17   1.419816 A    
C20   H3    1.075068 S    
N1    C33   1.368718 A    
C16   C20   1.400817 A    
C12   C13   1.390672 A    
O3    C2    1.300230 A    
N3    O9    1.301436 A    
C9    C21   1.399467 A    
C23   C30   1.398347 A    
Cu1   O5    1.934594 S    
C10   C21   1.395802 A    
O5    C3    1.304897 A    
C25   C26   1.392091 A    
C27   C28   1.433415 A    
C1    C22   1.474706 S    
C13   H5    1.076157 S    
C2    C5    1.419133 S    
O1    Cu1   1.948415 S    
C32   C35   1.509037 S    
Cu1   N1    2.047891 S    
C23   H10   1.084006 S    
H8    C34   1.080792 S    
C5    C6    1.196272 T    
C24   N2    1.359588 A    
H9    C31   1.086686 S    
C6    C7    1.397052 S    
O1    C1    1.311812 A    
C33   H11   1.077550 S    
C23   C34   1.385389 A    
