data_mof_unit_45282.cif
_audit_creation_date              2013-03-05T15:50:48-0500
_audit_creation_method            fapswitch 2.2
_symmetry_space_group_name_H-M    P1
_symmetry_Int_Tables_number       1
_space_group_crystal_system       triclinic
_cell_length_a                    14.304105
_cell_length_b                    14.821268
_cell_length_c                    33.27082
_cell_angle_alpha                 97.858145
_cell_angle_beta                  90.398857
_cell_angle_gamma                 118.809857
_cell_volume                      6100.87615416

loop_
_atom_site_label
_atom_site_type_symbol
_atom_site_description
_atom_site_fract_x
_atom_site_fract_y
_atom_site_fract_z
_atom_type_partial_charge
O1    O     O_R   0.318160 0.824460 0.443680 -0.493752
O2    O     O_R   0.525040 0.857250 0.449830 -0.478961
C1    C     C_R   0.617746 0.910672 0.436993 0.593198
O3    O     O_R   0.684760 0.998800 0.456360 -0.481093
O4    O     O_R   0.647540 0.166310 0.470260 -0.493584
C2    C     C_R   0.593676 0.204980 0.456490 0.546388
O5    O     O_R   0.500960 0.181750 0.467450 -0.508600
O6    O     O_R   0.331100 0.981120 0.457080 -0.468382
C3    C     C_R   0.295676 0.892861 0.434020 0.569591
O7    O     O_R   0.315560 0.821140 0.532010 -0.514123
O8    O     O_R   0.522630 0.854180 0.531710 -0.492795
C4    C     C_R   0.614215 0.905248 0.551500 0.553638
O9    O     O_R   0.682160 0.995480 0.544690 -0.514818
O10   O     O_R   0.645130 0.163230 0.552140 -0.504337
C5    C     C_R   0.589015 0.197877 0.571410 0.545604
O11   O     O_R   0.498360 0.178430 0.555780 -0.487774
O12   O     O_R   0.328690 0.978040 0.538950 -0.498366
C6    C     C_R   0.289828 0.887520 0.548758 0.548970
Cr1   Cr    Cr6+3 0.424820 0.846020 0.489780 1.059633
Cr2   Cr    Cr6+3 0.657880 0.078580 0.505700 1.045553
Cr3   Cr    Cr6+3 0.417280 0.075360 0.504550 1.049511
O13   O     O_3   0.499990 0.999990 0.500010 -0.264890
C7    C     C_R   0.733491 0.439602 0.103128 -0.007573
C8    C     C_R   0.635560 0.397245 0.120815 -0.113984
C9    C     C_R   0.629487 0.368390 0.159143 -0.139464
C10   C     C_R   0.721022 0.381507 0.180466 0.043229
C11   C     C_R   0.819156 0.420058 0.162431 0.136486
C12   C     C_R   0.824077 0.447188 0.123459 -0.124857
C13   C     C_R   0.723890 0.286468 0.237581 0.179176
C14   C     C_R   0.722414 0.282912 0.279444 -0.117191
C15   C     C_R   0.710221 0.356947 0.306729 -0.027779
C16   C     C_R   0.703559 0.439174 0.292461 0.203350
C17   C     C_R   0.704572 0.442505 0.250731 -0.134980
C18   C     C_R   0.715461 0.368003 0.223393 0.001799
C19   C     C_R   0.591331 0.319509 0.362986 -0.039052
C20   C     C_R   0.563116 0.283783 0.399932 -0.094681
C21   C     C_R   0.734857 0.290807 0.409920 -0.124851
C22   C     C_R   0.762797 0.326063 0.372796 -0.116112
C23   C     C_R   0.689850 0.337658 0.348700 0.061241
C24   C     C_R   0.632926 0.265030 0.422887 0.017839
H1    H     H_    0.564423 0.390120 0.105733 0.177280
H2    H     H_    0.900286 0.479760 0.110184 0.125315
H3    H     H_    0.839276 0.340139 0.362063 0.115872
H4    H     H_    0.727890 0.220418 0.290850 0.116287
H5    H     H_    0.554149 0.339787 0.173022 0.145823
H6    H     H_    0.700299 0.505704 0.239371 0.172907
H7    H     H_    0.533940 0.327494 0.344469 0.173999
H8    H     H_    0.484053 0.264655 0.409153 0.156177
H9    H     H_    0.790589 0.278139 0.427301 0.139815
H10   H     H_    0.177401 0.722127 0.099596 0.142533
C25   C     C_R   0.248486 0.880236 0.391819 -0.001463
C26   C     C_R   0.235492 0.962136 0.379498 0.080634
C27   C     C_R   0.221466 0.965114 0.337718 0.204525
C28   C     C_R   0.218885 0.886459 0.308220 -0.018102
C29   C     C_R   0.223626 0.801065 0.320165 0.105421
C30   C     C_R   0.233251 0.795435 0.361821 0.122023
C31   C     C_R   0.202162 0.804345 0.160648 0.139938
C32   C     C_R   0.170106 0.782917 0.118943 -0.091372
C33   C     C_R   0.115064 0.914714 0.127188 -0.145106
C34   C     C_R   0.152054 0.940632 0.168434 -0.146022
C35   C     C_R   0.190791 0.882529 0.185616 0.042605
C36   C     C_1   0.204429 0.892505 0.229256 0.018026
C37   C     C_1   0.211839 0.892876 0.265400 0.048058
C38   C     C_R   0.119320 0.832068 0.102606 -0.009556
H11   H     H_    0.144000 0.001456 0.187490 0.133191
H12   H     H_    0.076829 0.954419 0.115319 0.145457
H13   H     H_    0.757874 0.002007 0.314578 0.114532
C39   C     C_R   0.642043 0.881385 0.395425 0.020548
C40   C     C_R   0.590928 0.776216 0.375264 0.153628
C41   C     C_R   0.593186 0.756268 0.332720 -0.075554
C42   C     C_R   0.651527 0.838100 0.311205 -0.038629
C43   C     C_R   0.710383 0.939361 0.331455 -0.126534
C44   C     C_R   0.707417 0.962366 0.373149 0.100700
C45   C     C_R   0.768059 0.903275 0.176832 0.095747
C46   C     C_R   0.784104 0.902099 0.135025 0.116084
C47   C     C_R   0.609690 0.744431 0.119240 0.160061
C48   C     C_R   0.596670 0.742796 0.161013 0.180820
C49   C     C_R   0.676533 0.821180 0.189559 -0.046854
C50   C     C_1   0.662831 0.819384 0.232183 0.044951
C51   C     C_1   0.654324 0.822267 0.268075 0.017893
C52   C     C_R   0.708586 0.817844 0.106253 -0.041207
H14   H     H_    0.550372 0.677275 0.316383 0.212636
H15   H     H_    0.850938 0.405324 0.903931 0.147260
H16   H     H_    0.727681 0.177068 0.618486 0.172984
C53   C     C_R   0.617885 0.238092 0.615755 -0.011446
C54   C     C_R   0.564021 0.283381 0.639080 0.145113
C55   C     C_R   0.573430 0.292404 0.681936 -0.105805
C56   C     C_R   0.635646 0.258994 0.701386 -0.003794
C57   C     C_R   0.694819 0.220397 0.678411 0.214963
C58   C     C_R   0.686297 0.211953 0.635956 -0.126237
C59   C     C_R   0.758193 0.330666 0.846865 0.132127
C60   C     C_R   0.771119 0.367701 0.888684 -0.140303
C61   C     C_R   0.581108 0.312268 0.889446 0.192633
C62   C     C_R   0.569675 0.281316 0.847027 -0.118703
C63   C     C_R   0.658094 0.294912 0.825551 -0.008961
C64   C     C_1   0.646348 0.278181 0.781729 0.013365
C65   C     C_1   0.640348 0.268631 0.745123 0.045352
C66   C     C_R   0.685288 0.365326 0.909926 -0.026030
H17   H     H_    0.491669 0.247419 0.830520 0.194900
H18   H     H_    0.532176 0.325020 0.700739 0.127070
C67   C     C_R   0.069420 0.755401 0.908947 -0.012618
C68   C     C_R   0.119761 0.858301 0.900134 0.112730
C69   C     C_R   0.139228 0.874580 0.859615 0.195323
C70   C     C_R   0.109478 0.788329 0.828714 0.005680
C71   C     C_R   0.065130 0.686709 0.838095 0.091992
C72   C     C_R   0.047107 0.671321 0.878290 -0.160629
C73   C     C_R   0.204701 0.798110 0.766804 -0.013806
C74   C     C_R   0.214531 0.807056 0.725708 0.157850
C75   C     C_R   0.137246 0.819887 0.703797 0.087881
C76   C     C_R   0.052700 0.826035 0.723699 0.256240
C77   C     C_R   0.047332 0.819669 0.765231 -0.073500
C78   C     C_R   0.121467 0.803578 0.786248 0.017202
C79   C     C_R   0.195734 0.933733 0.650326 0.196618
C80   C     C_R   0.231308 0.948424 0.611630 -0.120475
C81   C     C_R   0.173171 0.764236 0.593448 -0.126081
C82   C     C_R   0.132320 0.746030 0.631354 0.194248
C83   C     C_R   0.150116 0.832536 0.660855 0.027440
C84   C     C_R   0.226729 0.865513 0.584213 -0.068818
H19   H     H_    0.007641 0.592250 0.884920 0.145635
H20   H     H_    0.263340 0.789133 0.784094 0.133493
H21   H     H_    0.982888 0.823172 0.781045 0.154755
H22   H     H_    0.271739 0.026955 0.604491 0.181383
H23   H     H_    0.166257 0.699713 0.571531 0.178455
C85   C     C_R   0.660475 0.743816 0.911960 0.043187
C86   C     C_R   0.589874 0.652185 0.884858 0.116209
C87   C     C_R   0.572203 0.659150 0.844149 -0.112902
C88   C     C_R   0.619978 0.756106 0.830742 0.003659
C89   C     C_R   0.679583 0.847242 0.858830 -0.116216
C90   C     C_R   0.699948 0.841120 0.898973 -0.143977
C91   C     C_R   0.596950 0.837526 0.773428 -0.100461
C92   C     C_R   0.605132 0.850741 0.732752 -0.090178
C93   C     C_R   0.633208 0.789108 0.705228 0.043443
C94   C     C_R   0.652583 0.713607 0.718569 -0.070780
C95   C     C_R   0.643917 0.699948 0.759298 -0.099985
C96   C     C_R   0.616892 0.762470 0.787055 0.027910
C97   C     C_R   0.558961 0.734659 0.632362 0.145947
C98   C     C_R   0.557184 0.765478 0.594329 -0.083125
C99   C     C_R   0.718973 0.929816 0.616104 -0.114496
C100  C     C_R   0.722427 0.900128 0.653733 -0.071436
C101  C     C_R   0.641151 0.804970 0.662562 0.034480
C102  C     C_R   0.633699 0.864684 0.586800 -0.016308
H24   H     H_    0.752659 0.912592 0.919263 0.140090
H25   H     H_    0.784999 0.954388 0.677024 0.208159
H26   H     H_    0.589474 0.909006 0.722625 0.159981
H27   H     H_    0.576053 0.886454 0.794346 0.126830
H28   H     H_    0.523306 0.588637 0.822717 0.111521
H29   H     H_    0.675454 0.666389 0.697607 0.136887
H30   H     H_    0.661818 0.643099 0.769429 0.104644
H31   H     H_    0.493298 0.714798 0.571055 0.140277
H32   H     H_    0.716966 0.922965 0.849097 0.132316
H33   H     H_    0.778945 0.006625 0.611068 0.175241
O14   O     O_R   0.828710 0.851830 0.052170 -0.489956
O15   O     O_R   0.005980 0.823990 0.047210 -0.493579
C103  C     C_R   0.053474 0.781869 0.063414 0.538806
O16   O     O_R   0.031900 0.688850 0.050170 -0.520235
O17   O     O_R   0.830940 0.518420 0.048680 -0.507815
C104  C     C_R   0.743530 0.485643 0.065846 0.544640
O18   O     O_R   0.668160 0.499860 0.053480 -0.478762
O19   O     O_R   0.689170 0.693840 0.050110 -0.452741
C105  C     C_R   0.741377 0.789368 0.066159 0.574804
O20   O     O_R   0.803860 0.812940 0.962540 -0.521321
O21   O     O_R   0.982950 0.787950 0.964120 -0.460758
C106  C     C_R   0.022298 0.732522 0.947717 0.563346
O22   O     O_R   0.007050 0.649970 0.960540 -0.526519
O23   O     O_R   0.807910 0.482370 0.965590 -0.520322
C107  C     C_R   0.711211 0.435054 0.949816 0.565520
O24   O     O_R   0.643310 0.460980 0.963840 -0.442444
O25   O     O_R   0.666140 0.657800 0.967020 -0.467104
C108  C     C_R   0.710189 0.739410 0.950176 0.551006
Cr4   Cr    Cr6+3 0.903360 0.812540 0.006510 1.049022
Cr5   Cr    Cr6+3 0.914630 0.587050 0.006280 1.014136
Cr6   Cr    Cr6+3 0.673560 0.582680 0.008540 1.130965
O26   O     O_3   0.830520 0.660760 0.007110 -0.268530
N1    N     N_2   0.913031 0.432585 0.183273 -0.515282
H34   H     H_    0.965063 0.423251 0.164036 0.243562
C109  C     C_3   0.967499 0.525400 0.213640 -0.293294
H35   H     H_    0.041945 0.530389 0.226495 0.148463
H36   H     H_    0.917295 0.522666 0.239090 0.172292
H37   H     H_    0.988385 0.596406 0.199928 0.150961
N2    N     N_2   0.240235 0.744378 0.178277 -0.536578
H38   H     H_    0.321252 0.784025 0.186780 0.267124
C110  C     C_3   0.198203 0.636021 0.160378 -0.272908
H39   H     H_    0.211868 0.593587 0.182730 0.185702
H40   H     H_    0.238736 0.629946 0.132632 0.203661
H41   H     H_    0.110916 0.598500 0.151974 0.130952
N3    N     N_2   0.221598 0.721043 0.290453 -0.513939
H42   H     H_    0.163134 0.695307 0.266877 0.257543
C111  C     C_3   0.325082 0.745164 0.275909 -0.282149
H43   H     H_    0.354361 0.812246 0.259093 0.143103
H44   H     H_    0.318180 0.676387 0.255237 0.181428
H45   H     H_    0.385214 0.765455 0.301568 0.145791
N4    N     N_2   0.219518 0.701057 0.373500 -0.486011
H46   H     H_    0.150635 0.635359 0.360297 0.268822
C112  C     C_3   0.312442 0.686375 0.372991 -0.202016
H47   H     H_    0.307505 0.634238 0.344742 0.162651
H48   H     H_    0.314586 0.649015 0.399435 0.200939
H49   H     H_    0.387719 0.762016 0.375174 0.147463
N5    N     N_2   0.233625 0.040035 0.409295 -0.478560
H50   H     H_    0.267501 0.113874 0.401785 0.292317
C113  C     C_3   0.131115 0.008702 0.425781 -0.268628
H51   H     H_    0.138221 0.070978 0.450356 0.141678
H52   H     H_    0.104776 0.936012 0.438955 0.162381
H53   H     H_    0.070071 0.995821 0.401556 0.165062
N6    N     N_R   0.210736 0.048807 0.325244 0.076834
O27   O     O_R   0.292978 0.142124 0.329619 -0.359611
O28   O     O_R   0.123785 0.028988 0.304449 -0.363357
N7    N     N_2   0.876981 0.984382 0.121981 -0.476415
H54   H     H_    0.944393 0.017874 0.142065 0.269999
C114  C     C_3   0.857847 0.061351 0.106723 -0.271139
H55   H     H_    0.932128 0.119223 0.095084 0.146304
H56   H     H_    0.834210 0.102734 0.131518 0.149835
H57   H     H_    0.793711 0.023744 0.081306 0.160989
N8    N     N_2   0.845178 0.987195 0.205862 -0.521329
H58   H     H_    0.812347 0.017334 0.227652 0.255979
C115  C     C_3   0.924545 0.966712 0.223403 -0.277190
H59   H     H_    0.990124 0.040402 0.240507 0.192209
H60   H     H_    0.958947 0.935346 0.199185 0.149778
H61   H     H_    0.888244 0.909516 0.244669 0.171043
N9    N     N_2   0.767232 0.068628 0.391840 -0.487881
H62   H     H_    0.764496 0.119770 0.374338 0.236508
C116  C     C_3   0.876009 0.099744 0.405969 -0.268045
H63   H     H_    0.915025 0.181073 0.422489 0.139097
H64   H     H_    0.922471 0.096038 0.379744 0.149201
H65   H     H_    0.876902 0.048255 0.427145 0.175668
N10   N     N_R   0.540489 0.689791 0.397406 0.079809
O29   O     O_R   0.574743 0.699184 0.434897 -0.307209
O30   O     O_R   0.473783 0.596960 0.378309 -0.331245
N11   N     N_R   0.503297 0.660115 0.174470 0.101845
O31   O     O_R   0.513043 0.606791 0.200624 -0.322917
O32   O     O_R   0.408322 0.635398 0.159616 -0.338883
N12   N     N_R   0.524595 0.667882 0.089976 0.118507
O33   O     O_R   0.493090 0.696854 0.059801 -0.354221
O34   O     O_R   0.485494 0.568861 0.091217 -0.273375
N13   N     N_2   0.848403 0.337446 0.826461 -0.530286
H66   H     H_    0.841689 0.331376 0.795248 0.284564
C117  C     C_3   0.892562 0.275430 0.839420 -0.262280
H67   H     H_    0.963348 0.287912 0.822470 0.175522
H68   H     H_    0.831906 0.191271 0.833035 0.176917
H69   H     H_    0.919129 0.298573 0.872405 0.143001
N14   N     N_R   0.761157 0.186532 0.697210 0.071029
O35   O     O_R   0.734374 0.142910 0.729724 -0.359997
O36   O     O_R   0.843170 0.189464 0.679470 -0.330895
N15   N     N_2   0.501160 0.318052 0.618900 -0.485891
H70   H     H_    0.535217 0.355834 0.594714 0.268411
C118  C     C_3   0.441016 0.359120 0.642160 -0.281641
H71   H     H_    0.393614 0.376581 0.621053 0.151714
H72   H     H_    0.496340 0.432267 0.662743 0.120848
H73   H     H_    0.384155 0.300472 0.659943 0.208791
N16   N     N_R   0.487101 0.288731 0.910961 0.090474
O37   O     O_R   0.482273 0.263226 0.947103 -0.328745
O38   O     O_R   0.399613 0.273280 0.891889 -0.319694
N17   N     N_2   0.150551 0.944365 0.932141 -0.488852
H74   H     H_    0.149218 0.008375 0.924056 0.307439
C119  C     C_3   0.247298 0.972162 0.956622 -0.258892
H75   H     H_    0.262114 0.035764 0.981984 0.167325
H76   H     H_    0.316783 0.999774 0.937766 0.187760
H77   H     H_    0.239321 0.904254 0.969940 0.140667
N18   N     N_R   0.078081 0.640756 0.640116 0.080930
O39   O     O_R   0.092734 0.568567 0.619012 -0.355488
O40   O     O_R   0.006284 0.613915 0.666432 -0.316790
N19   N     N_2   0.306138 0.810017 0.707661 -0.520304
H78   H     H_    0.326592 0.843219 0.681596 0.254006
C120  C     C_3   0.314941 0.716356 0.705952 -0.288444
H79   H     H_    0.389612 0.728560 0.692195 0.175850
H80   H     H_    0.245890 0.649529 0.687011 0.205114
H81   H     H_    0.318894 0.697857 0.736915 0.152554
N20   N     N_R   0.188998 0.978120 0.849732 0.087788
O41   O     O_R   0.136558 0.029722 0.851582 -0.304675
O42   O     O_R   0.280106 0.014806 0.833509 -0.296238
N21   N     N_R   0.972468 0.838614 0.702499 0.092875
O43   O     O_R   0.942135 0.799117 0.664264 -0.313159
O44   O     O_R   0.921708 0.881045 0.722405 -0.324055
N22   N     N_R   0.213049 0.023362 0.679094 0.095783
O45   O     O_R   0.204221 0.098584 0.666601 -0.315532
O46   O     O_R   0.252022 0.037399 0.716283 -0.304046
N23   N     N_2   0.034463 0.599169 0.806916 -0.504307
H82   H     H_    0.046527 0.541495 0.816030 0.269166
C121  C     C_3   0.927843 0.557319 0.787415 -0.271205
H83   H     H_    0.911863 0.492013 0.762680 0.175923
H84   H     H_    0.919793 0.617497 0.773680 0.162158
H85   H     H_    0.867146 0.528021 0.809869 0.147524
N24   N     N_2   0.542099 0.552568 0.897455 -0.490435
H86   H     H_    0.531465 0.492565 0.874852 0.259357
C122  C     C_3   0.445862 0.528289 0.917974 -0.225601
H87   H     H_    0.419381 0.454845 0.930489 0.210305
H88   H     H_    0.380963 0.518272 0.896231 0.135027
H89   H     H_    0.460888 0.591249 0.943693 0.166051
N25   N     N_2   0.733982 0.208571 0.210473 -0.498802
H90   H     H_    0.754042 0.225222 0.181697 0.268862
C123  C     C_3   0.649487 0.102254 0.209746 -0.314974
H91   H     H_    0.664331 0.048872 0.187231 0.147498
H92   H     H_    0.570729 0.094768 0.200754 0.152979
H93   H     H_    0.647342 0.077599 0.239921 0.142228
N26   N     N_2   0.475814 0.638185 0.641980 -0.545181
H94   H     H_    0.501032 0.596156 0.656792 0.249039
C124  C     C_3   0.379400 0.575826 0.614884 -0.306250
H95   H     H_    0.320452 0.511150 0.629795 0.166144
H96   H     H_    0.397782 0.541762 0.586214 0.152916
H97   H     H_    0.342520 0.623840 0.608329 0.177031
N27   N     N_R   0.697896 0.520375 0.319752 0.088603
O47   O     O_R   0.744247 0.549819 0.356564 -0.298699
O48   O     O_R   0.657464 0.573773 0.306396 -0.326988

loop_
_geom_bond_atom_site_label_1
_geom_bond_atom_site_label_2
_geom_bond_distance
_ccdc_geom_bond_type
O23   Cr5   1.919472 S    
C120  H81   1.109480 S    
C112  H48   1.109432 S    
C55   C56   1.400115 A    
O14   C105  1.282775 A    
O23   C107  1.278591 A    
C8    H1    1.083129 S    
C72   H19   1.084223 S    
C77   H21   1.083823 S    
C123  H93   1.110095 S    
C73   C78   1.389950 A    
C122  H89   1.111302 S    
N18   O40   1.301373 A    
C77   C78   1.396193 A    
C3    C25   1.501757 S    
C97   C101  1.412159 A    
C19   H7    1.083529 S    
C89   C90   1.389298 A    
N11   O32   1.298269 A    
C94   C95   1.394939 A    
C16   N27   1.440706 S    
C75   C83   1.467619 S    
C120  H79   1.107390 S    
O4    Cr2   1.924850 S    
C48   C49   1.400265 A    
C82   C83   1.417695 A    
H15   C60   1.082961 S    
Cr5   O26   1.975040 S    
C59   N13   1.428955 S    
O8    Cr1   1.918807 S    
C10   C11   1.410467 A    
C21   C22   1.392997 A    
N13   C117  1.447031 S    
C111  H45   1.108742 S    
C68   N17   1.426757 S    
O17   C104  1.275095 A    
C1    C39   1.486532 S    
N10   O29   1.301407 A    
C79   C80   1.393862 A    
C116  H65   1.111388 S    
C98   C102  1.405728 A    
C115  H60   1.109533 S    
C33   H12   1.082633 S    
O4    C2    1.274563 A    
C112  H49   1.111190 S    
C28   C37   1.446771 S    
N15   H70   1.031602 S    
C117  H68   1.111610 S    
C38   C103  1.477564 S    
C114  H57   1.111272 S    
O14   Cr4   2.041350 S    
C4    C102  1.472583 S    
C44   N9    1.423112 S    
O6    C3    1.279781 A    
C111  H44   1.110070 S    
H13   C43   1.085719 S    
C55   H18   1.081965 S    
C29   N3    1.424964 S    
C12   H2    1.083623 S    
C110  H39   1.109571 S    
C42   C51   1.426053 S    
C119  H76   1.111644 S    
C69   C70   1.407996 A    
C114  H56   1.111948 S    
N1    H34   1.031690 S    
C100  H25   1.083760 S    
C10   C18   1.466483 S    
C109  H37   1.111333 S    
C85   C108  1.476969 S    
C106  O22   1.270199 A    
C27   C28   1.403125 A    
N27   O48   1.300775 A    
C54   N15   1.433400 S    
N15   C118  1.447298 S    
C121  H85   1.111233 S    
O15   Cr4   1.920036 S    
N2    H38   1.030523 S    
C73   C74   1.393248 A    
C8    C9    1.389784 A    
C20   H8    1.083091 S    
N5    H50   1.029694 S    
C94   H29   1.083307 S    
N4    H46   1.031626 S    
C74   C75   1.420927 A    
C81   C82   1.398633 A    
C13   C14   1.400920 A    
C6    C84   1.465882 S    
N19   C120  1.446764 S    
C56   C65   1.440458 S    
C121  H83   1.110261 S    
C95   C96   1.406122 A    
N26   H94   1.029093 S    
C5    C53   1.488776 S    
O20   C108  1.270649 A    
C36   C37   1.205499 T    
C124  H96   1.110707 S    
C112  H47   1.110562 S    
C33   C34   1.400190 A    
C52   C105  1.491021 S    
Cr3   O13   1.974974 S    
C91   H27   1.083240 S    
C104  O18   1.269832 A    
C17   H6    1.084264 S    
C57   N14   1.442264 S    
C14   H4    1.083376 S    
C107  O24   1.275034 A    
C68   C69   1.408051 A    
H16   C58   1.083126 S    
C47   N12   1.437780 S    
C41   H14   1.082366 S    
C11   N1    1.424768 S    
C70   C71   1.406665 A    
N22   O46   1.301229 A    
C61   N16   1.439377 S    
C17   C18   1.401418 A    
C2    O5    1.269381 A    
C46   N7    1.425412 S    
C124  H97   1.111277 S    
C32   C38   1.402377 A    
C22   C23   1.399939 A    
C100  C101  1.401692 A    
C35   C36   1.441380 S    
C93   C101  1.466633 S    
N16   O38   1.301605 A    
C27   N6    1.434523 S    
C81   H23   1.083130 S    
O19   Cr6   1.922280 S    
C60   C66   1.409020 A    
N7    H54   1.030404 S    
H10   C32   1.081647 S    
C67   C68   1.413225 A    
O10   Cr2   1.920691 S    
C20   C24   1.404500 A    
Cr1   O13   1.974142 S    
O1    C3    1.279213 A    
C47   C48   1.405467 A    
C114  H55   1.110324 S    
C117  H67   1.110599 S    
C45   C46   1.410485 A    
C115  H61   1.110741 S    
C79   N22   1.440167 S    
N9    H62   1.031565 S    
C76   N21   1.442327 S    
N24   H86   1.031849 S    
C49   C50   1.435050 S    
C113  H51   1.110346 S    
C90   H24   1.083469 S    
C119  H77   1.111009 S    
C39   C44   1.426708 A    
C53   C54   1.418007 A    
O1    Cr1   2.036127 S    
C59   C63   1.409112 A    
C13   C18   1.411861 A    
O12   Cr3   1.925149 S    
C1    O3    1.262793 A    
C76   C77   1.397983 A    
C40   N10   1.441767 S    
C34   C35   1.401978 A    
C110  H41   1.108948 S    
N25   C123  1.448428 S    
C70   C78   1.459491 S    
C19   C23   1.401119 A    
C115  H59   1.109864 S    
C111  H43   1.109492 S    
C119  H75   1.110415 S    
C30   N4    1.425160 S    
O16   Cr5   2.036358 S    
N9    C116  1.446934 S    
C116  H63   1.110286 S    
C21   H9    1.082915 S    
N21   O44   1.301611 A    
C63   C64   1.439808 S    
C91   C92   1.391432 A    
O19   C105  1.271260 A    
O21   Cr4   1.923466 S    
C67   C106  1.464442 S    
N27   O47   1.301425 A    
C7    C8    1.402702 A    
C81   C84   1.398398 A    
C64   C65   1.204355 T    
C29   C30   1.409522 A    
N14   O36   1.301515 A    
O12   C6    1.272358 A    
N16   O37   1.301503 A    
C62   C63   1.398963 A    
N12   O34   1.301604 A    
C61   C62   1.405858 A    
C66   C107  1.488503 S    
C7    C12   1.405623 A    
C56   C57   1.408567 A    
C103  O16   1.269658 A    
C80   C84   1.400517 A    
C97   N26   1.432769 S    
N3    H42   1.030412 S    
C79   C83   1.414818 A    
O20   Cr4   2.036503 S    
C89   H32   1.083383 S    
C109  H35   1.109722 S    
C98   H31   1.080937 S    
C91   C96   1.402273 A    
N6    O28   1.300859 A    
C34   H11   1.082922 S    
C13   N25   1.430010 S    
C69   N20   1.434632 S    
C118  H72   1.110448 S    
C45   N8    1.425153 S    
C86   C87   1.402727 A    
O25   Cr6   1.921339 S    
C2    C24   1.468493 S    
C50   C51   1.198217 T    
C26   N5    1.426059 S    
N13   H66   1.029799 S    
Cr2   O13   1.972711 S    
N3    C111  1.449248 S    
C88   C89   1.399478 A    
C57   C58   1.400131 A    
C9    H5    1.083697 S    
C73   H20   1.083482 S    
C59   C60   1.400385 A    
C41   C42   1.396428 A    
C82   N18   1.443000 S    
C26   C27   1.412769 A    
C123  H92   1.112090 S    
N17   C119  1.446132 S    
O21   C106  1.271551 A    
O7    Cr1   2.041916 S    
C67   C72   1.399904 A    
C120  H80   1.109732 S    
C74   N19   1.429065 S    
C28   C29   1.408661 A    
O25   C108  1.276657 A    
N2    C110  1.448515 S    
O9    Cr2   2.040409 S    
O2    Cr1   1.925236 S    
C54   C55   1.413123 A    
C71   N23   1.424428 S    
C39   C40   1.422337 A    
C15   C16   1.410388 A    
C46   C52   1.414641 A    
C25   C30   1.418917 A    
N23   C121  1.447801 S    
C43   C44   1.388452 A    
C99   C102  1.400525 A    
O6    Cr3   1.917061 S    
C47   C52   1.423137 A    
C31   N2    1.426599 S    
N5    C113  1.446060 S    
C53   C58   1.409541 A    
O11   Cr3   2.033923 S    
C31   C35   1.406990 A    
O24   Cr6   2.039066 S    
O3    Cr2   2.038872 S    
C99   H33   1.082992 S    
C21   C24   1.405315 A    
C95   H30   1.083272 S    
C71   C72   1.392287 A    
O17   Cr5   1.923546 S    
N24   C122  1.446841 S    
C87   H28   1.083806 S    
C117  H69   1.109971 S    
C113  H53   1.111737 S    
C124  H95   1.110306 S    
N25   H90   1.029595 S    
N17   H74   1.029530 S    
C122  H88   1.111568 S    
N18   O39   1.301712 A    
C9    C10   1.399806 A    
N8    C115  1.446718 S    
C25   C26   1.424248 A    
C116  H64   1.111835 S    
O5    Cr3   2.043627 S    
C75   C76   1.417788 A    
C16   C17   1.395920 A    
N26   C124  1.447505 S    
N23   H82   1.031850 S    
N20   O42   1.300953 A    
C14   C15   1.404589 A    
O18   Cr6   2.039704 S    
C31   C32   1.402413 A    
N19   H78   1.030163 S    
C62   H17   1.083875 S    
O7    C6    1.271171 A    
C87   C88   1.401432 A    
N8    H58   1.031507 S    
C5    O11   1.274527 A    
C7    C104  1.471175 S    
C109  H36   1.106404 S    
N14   O35   1.301276 A    
N10   O30   1.301690 A    
N1    C109  1.447827 S    
C15   C23   1.466670 S    
C85   C90   1.405105 A    
C93   C94   1.399648 A    
C121  H84   1.107825 S    
C40   C41   1.409761 A    
C88   C96   1.471096 S    
C110  H40   1.109713 S    
C86   N24   1.422412 S    
C122  H87   1.109286 S    
C99   C100  1.390727 A    
C92   H26   1.083679 S    
N11   O31   1.301459 A    
Cr6   O26   1.973484 S    
C80   H22   1.083667 S    
C33   C38   1.404150 A    
C22   H3    1.083350 S    
C42   C43   1.383091 A    
N6    O27   1.300918 A    
C48   N11   1.437678 S    
C113  H52   1.111288 S    
C45   C49   1.409623 A    
C118  H73   1.110442 S    
N20   O41   1.300798 A    
N12   O33   1.301323 A    
N7    C114  1.446132 S    
O10   C5    1.278059 A    
C123  H91   1.110966 S    
O22   Cr5   2.039866 S    
O2    C1    1.286946 A    
C19   C20   1.390385 A    
C4    O9    1.271858 A    
O15   C103  1.279699 A    
C118  H71   1.109979 S    
C61   C66   1.418902 A    
N21   O43   1.301177 A    
C97   C98   1.406876 A    
C92   C93   1.401531 A    
O8    C4    1.272277 A    
N4    C112  1.446547 S    
C85   C86   1.417017 A    
C11   C12   1.401580 A    
Cr4   O26   1.974865 S    
N22   O45   1.301290 A    
