data_mof_unit_24256.cif
_audit_creation_date              2012-12-11T15:15:11-0500
_audit_creation_method            fapswitch 2.2
_symmetry_space_group_name_H-M    P1
_symmetry_Int_Tables_number       1
_space_group_crystal_system       triclinic
_cell_length_a                    19.422202
_cell_length_b                    19.008056
_cell_length_c                    20.321058
_cell_angle_alpha                 106.482154
_cell_angle_beta                  106.415964
_cell_angle_gamma                 112.195867
_cell_volume                      5984.50577604

loop_
_atom_site_label
_atom_site_type_symbol
_atom_type_description
_atom_site_fract_x
_atom_site_fract_y
_atom_site_fract_z
_atom_type_partial_charge
Br1   Br    Br    0.128786 0.698243 0.467584 -0.641146
Br2   Br    Br    0.330680 0.123769 0.399163 -0.650362
Br3   Br    Br    0.919892 0.881828 0.105325 -0.606390
Br4   Br    Br    0.156610 0.868312 0.016000 -0.532181
C1    C     C_R   0.079865 0.087589 0.350907 -0.143224
C2    C     C_R   0.240900 0.073890 0.504165 -0.093205
C3    C     C_3   0.736282 0.745017 0.449178 0.165739
C4    C     C_3   0.707553 0.660066 0.453046 -0.303325
C5    C     C_3   0.720055 0.670584 0.533611 -1.009799
C6    C     C_3   0.903314 0.167243 0.666571 0.163964
C7    C     C_3   0.910918 0.241494 0.728584 -0.241900
C8    C     C_3   0.984055 0.274747 0.804608 -1.028804
C9    C     C_R   0.162448 0.196675 0.718915 -0.183047
C10   C     C_R   0.754784 0.928513 0.464584 -0.276251
C11   C     C_R   0.011479 0.771390 0.442524 -0.093332
C12   C     C_R   0.242035 0.219984 0.726258 0.124814
C13   C     C_R   0.974424 0.723933 0.475197 0.130230
C14   C     C_R   0.244806 0.003871 0.466951 0.129004
C15   C     C_R   0.008429 0.976715 0.726297 0.044900
C16   C     C_R   0.016094 0.614953 0.439142 0.229898
C17   C     C_R   0.961494 0.638796 0.459409 0.020594
C18   C     C_R   0.746439 0.998381 0.489536 -0.032556
C19   C     C_R   0.891659 0.579337 0.459820 -0.305653
C20   C     C_R   0.876785 0.497182 0.442196 0.149800
C21   C     C_R   0.927375 0.471978 0.416077 -0.010715
C22   C     C_R   0.847017 0.781642 0.287873 -0.225211
C23   C     C_R   0.993813 0.529607 0.409578 0.043151
C24   C     C_R   0.814498 0.440891 0.453225 -0.188000
C25   C     C_R   0.808415 0.363324 0.446352 -0.203496
C26   C     C_R   0.862461 0.340403 0.425458 0.138605
C27   C     C_R   0.917490 0.391956 0.404404 0.051143
C28   C     C_R   0.969553 0.367731 0.380159 0.139101
C29   C     C_R   0.771850 0.730145 0.283722 -0.028019
C30   C     C_R   0.026059 0.419991 0.361750 -0.222136
C31   C     C_R   0.039493 0.501291 0.377985 -0.120960
C32   C     C_R   0.870335 0.273292 0.434510 -0.260380
C33   C     C_R   0.932553 0.258854 0.422565 0.113207
C34   C     C_R   0.951803 0.196366 0.517940 -0.181995
C35   C     C_R   0.972848 0.297895 0.385062 -0.241408
C36   C     C_R   0.335091 0.948306 0.487006 -0.243993
C37   C     C_R   0.315951 0.002717 0.462875 -0.002642
C38   C     C_R   0.364152 0.054181 0.437636 0.264484
C39   C     C_R   0.435334 0.051737 0.438797 0.077339
C40   C     C_R   0.967305 0.217662 0.461605 0.079973
C41   C     C_R   0.455026 0.996446 0.464107 -0.055548
C42   C     C_R   0.404405 0.944410 0.488149 -0.036318
C43   C     C_R   0.487958 0.103676 0.416493 -0.124901
C44   C     C_R   0.559861 0.102373 0.420643 -0.222902
C45   C     C_R   0.579408 0.048531 0.446126 0.146921
C46   C     C_R   0.770978 0.769685 0.352079 0.524199
C47   C     C_R   0.526252 0.994252 0.466831 0.056802
C48   C     C_R   0.545555 0.939017 0.491893 0.069991
C49   C     C_R   0.494727 0.887038 0.514628 -0.362026
C50   C     C_R   0.424946 0.890967 0.514798 0.572184
C51   C     C_R   0.237892 0.195342 0.653882 -0.073676
C52   C     C_R   0.652325 0.049096 0.452973 -0.211255
C53   C     C_R   0.670158 0.994731 0.478299 0.151715
C54   C     C_R   0.617287 0.938781 0.496250 -0.212706
C55   C     C_R   0.313736 0.248724 0.796283 -0.087153
C56   C     C_R   0.336509 0.318851 0.861091 -0.407182
C57   C     C_R   0.406005 0.349081 0.928724 0.590967
C58   C     C_R   0.028255 0.200175 0.453972 -0.103237
C59   C     C_R   0.454288 0.308534 0.930021 -0.124802
C60   C     C_R   0.429571 0.236597 0.865257 -0.376054
C61   C     C_R   0.358367 0.205058 0.799032 0.564534
C62   C     C_R   0.937295 0.763498 0.508954 -0.191677
C63   C     C_R   0.642504 0.535470 0.095439 0.641924
C64   C     C_R   0.694019 0.620134 0.150428 -0.413929
C65   C     C_R   0.691912 0.577541 0.251487 -0.113071
C66   C     C_R   0.639130 0.493593 0.197876 -0.313658
C67   C     C_R   0.613076 0.471845 0.119919 0.117676
C68   C     C_2   0.535715 0.346368 0.994897 0.619479
C69   C     C_2   0.544728 0.385429 0.065779 -0.361359
C70   C     C_R   0.822625 0.067081 0.541078 0.497111
C71   C     C_R   0.717548 0.641327 0.227900 0.139326
C72   C     C_R   0.082599 0.025404 0.223186 0.007775
C73   C     C_R   0.170393 0.932413 0.439710 -0.144487
C74   C     C_R   0.034869 0.964066 0.146272 0.303989
C75   C     C_R   0.069475 0.965849 0.094965 -0.158103
C76   C     C_R   0.150942 0.028272 0.118656 0.202383
C77   C     C_R   0.196465 0.091768 0.193494 -0.126288
C78   C     C_R   0.162703 0.090218 0.245420 -0.165010
C79   C     C_R   0.175288 0.033292 0.913111 -0.198715
C80   C     C_R   0.133052 0.037581 0.847834 -0.175565
C81   C     C_R   0.018679 0.897717 0.804208 -0.183565
C82   C     C_R   0.009376 0.947498 0.287030 -0.036502
C83   C     C_R   0.060518 0.893858 0.869994 -0.117555
C84   C     C_R   0.022998 0.050671 0.718935 -0.160221
C85   C     C_R   0.137656 0.962951 0.926311 0.119725
C86   C     C_2   0.181311 0.036394 0.061351 -0.307665
C87   C     C_2   0.167479 0.968472 0.003791 0.291703
C88   C     C_R   0.053240 0.970975 0.794203 0.143756
C89   C     C_R   0.051838 0.020946 0.281216 0.108401
C90   C     C_3   0.407265 0.884509 0.619081 0.138975
C91   C     C_3   0.345422 0.837147 0.644854 -0.188531
C92   C     C_3   0.375625 0.882435 0.730931 -1.042045
C93   C     C_3   0.673469 0.547303 0.995179 0.218280
C94   C     C_3   0.664522 0.609733 0.964511 -0.321445
C95   C     C_R   0.957710 0.910543 0.653907 -0.139503
C96   C     C_3   0.730732 0.643986 0.937935 -0.907358
C97   C     C_3   0.277569 0.062129 0.738215 0.159770
C98   C     C_3   0.237954 0.985097 0.661757 -0.261298
C99   C     C_3   0.175781 0.905818 0.660921 -0.949542
C100  C     C_3   0.652080 0.333762 0.017190 0.137914
C101  C     C_3   0.721243 0.343974 0.992519 -0.254288
C102  C     C_3   0.776906 0.315498 0.032941 -0.992985
C103  C     C_3   0.374810 0.421202 0.017974 0.144831
C104  C     C_3   0.354361 0.490857 0.015435 -0.240502
C105  C     C_3   0.292094 0.490440 0.047502 -0.990526
H1    H     H_    0.126342 0.152566 0.371298 0.102935
H2    H     H_    0.774410 0.459212 0.472197 0.133498
H3    H     H_    0.705654 0.865013 0.425517 0.180757
H4    H     H_    0.764653 0.323514 0.461196 0.133596
H5    H     H_    0.834411 0.238850 0.458269 0.125543
H6    H     H_    0.016724 0.283457 0.370276 0.119961
H7    H     H_    0.065129 0.401029 0.341448 0.138821
H8    H     H_    0.087275 0.542148 0.367534 0.184653
H9    H     H_    0.296031 0.910066 0.506556 0.191578
H10   H     H_    0.475280 0.146695 0.396977 0.181215
H11   H     H_    0.600496 0.143914 0.404525 0.132391
H12   H     H_    0.893969 0.736995 0.530279 0.106351
H13   H     H_    0.695387 0.091644 0.439282 0.121992
H14   H     H_    0.873626 0.763539 0.250485 0.145456
H15   H     H_    0.634003 0.897866 0.516650 0.126808
H16   H     H_    0.510128 0.845045 0.534106 0.159592
H17   H     H_    0.302082 0.352241 0.858133 0.164365
H18   H     H_    0.713416 0.670073 0.132773 0.163733
H19   H     H_    0.712509 0.592462 0.311230 0.138409
H20   H     H_    0.491167 0.363676 0.077539 0.115347
H21   H     H_    0.466061 0.205281 0.865823 0.174153
H22   H     H_    0.911349 0.207302 0.540615 0.154495
H23   H     H_    0.150952 0.868130 0.402736 0.139052
H24   H     H_    0.616938 0.445554 0.217161 0.156559
H25   H     H_    0.162472 0.093561 0.839986 0.105584
H26   H     H_    0.957763 0.845066 0.762998 0.119826
H27   H     H_    0.257860 0.142765 0.211541 0.143936
H28   H     H_    0.235238 0.086898 0.955377 0.114565
H29   H     H_    0.199985 0.139653 0.303236 0.176410
H30   H     H_    0.193047 0.094317 0.055384 0.118864
H31   H     H_    0.031326 0.920377 0.035487 0.170444
H32   H     H_    0.029586 0.839380 0.879216 0.157707
H33   H     H_    0.056415 0.209923 0.416494 0.092342
H34   H     H_    0.054499 0.112647 0.765411 0.098500
H35   H     H_    0.992670 0.884297 0.250046 0.129589
H36   H     H_    0.288938 0.204631 0.639430 0.120643
H37   H     H_    0.416854 0.950000 0.636567 0.092499
H38   H     H_    0.467175 0.887808 0.648036 0.108991
H39   H     H_    0.285137 0.832409 0.615173 0.238671
H40   H     H_    0.335896 0.772085 0.629220 0.222501
H41   H     H_    0.435253 0.886696 0.762048 0.275133
H42   H     H_    0.329145 0.846566 0.747583 0.284577
H43   H     H_    0.384083 0.947148 0.747596 0.269253
H44   H     H_    0.664925 0.492906 0.947991 0.160606
H45   H     H_    0.935059 0.844394 0.639059 0.099547
H46   H     H_    0.737734 0.576901 0.040462 0.065576
H47   H     H_    0.602376 0.577357 0.915664 0.220258
H48   H     H_    0.669808 0.663510 0.009667 0.215930
H49   H     H_    0.793416 0.677712 0.986211 0.293130
H50   H     H_    0.722673 0.689102 0.916176 0.280240
H51   H     H_    0.725345 0.591473 0.891287 0.252581
H52   H     H_    0.227044 0.071073 0.747833 0.100898
H53   H     H_    0.310216 0.049990 0.784631 0.107960
H54   H     H_    0.205391 0.997187 0.615560 0.216059
H55   H     H_    0.286817 0.974560 0.650434 0.202184
H56   H     H_    0.286629 0.139548 0.526316 0.138917
H57   H     H_    0.206740 0.892127 0.706680 0.271190
H58   H     H_    0.148930 0.851060 0.604988 0.296039
H59   H     H_    0.124814 0.914194 0.669366 0.269625
H60   H     H_    0.613770 0.265687 0.002425 0.095499
H61   H     H_    0.680824 0.371980 0.080159 0.114003
H62   H     H_    0.693735 0.305721 0.929757 0.206513
H63   H     H_    0.759254 0.411521 0.006170 0.196429
H64   H     H_    0.806360 0.354110 0.095772 0.268587
H65   H     H_    0.826328 0.323620 0.013688 0.272996
H66   H     H_    0.740385 0.247709 0.019139 0.268379
H67   H     H_    0.146472 0.213605 0.765272 0.102066
H68   H     H_    0.402921 0.432864 0.078510 0.126837
H69   H     H_    0.316461 0.358684 0.987888 0.070379
H70   H     H_    0.412041 0.553408 0.049448 0.218838
H71   H     H_    0.328194 0.481632 0.955502 0.194584
H72   H     H_    0.233194 0.429103 0.013183 0.265178
H73   H     H_    0.278995 0.541958 0.045248 0.280550
H74   H     H_    0.317446 0.500844 0.107877 0.269914
H75   H     H_    0.707414 0.777053 0.476232 0.130519
H76   H     H_    0.803598 0.784223 0.483803 0.094976
H77   H     H_    0.640840 0.616722 0.413114 0.225983
H78   H     H_    0.031610 0.752552 0.399518 0.138483
H79   H     H_    0.743282 0.630969 0.435807 0.173948
H80   H     H_    0.786106 0.714386 0.575020 0.256675
H81   H     H_    0.701059 0.608190 0.534744 0.274037
H82   H     H_    0.681758 0.695833 0.551191 0.273096
H83   H     H_    0.962009 0.189136 0.660617 0.109753
H84   H     H_    0.893762 0.115543 0.684766 0.109461
H85   H     H_    0.919698 0.293326 0.710955 0.206634
H86   H     H_    0.853043 0.220847 0.735982 0.207437
H87   H     H_    0.975952 0.224232 0.823885 0.266945
H88   H     H_    0.988037 0.328568 0.848551 0.280893
H89   H     H_    0.850418 0.597315 0.476534 0.137642
H90   H     H_    0.042794 0.297097 0.798782 0.266224
N1    N     N_R   0.052580 0.056040 0.395500 -0.042121
N2    N     N_R   0.890210 0.849400 0.355780 -0.062987
N3    N     N_R   0.997110 0.161140 0.539580 -0.051025
N4    N     N_R   0.841950 0.845400 0.395490 -0.102709
N5    N     N_R   0.045360 0.165140 0.499870 -0.040265
N6    N     N_R   0.877490 0.041510 0.539580 -0.106610
N7    N     N_R   0.009820 0.969030 0.355780 -0.047886
N8    N     N_R   0.158050 0.154600 0.604510 -0.053771
N9    N     N_R   0.954640 0.834860 0.500130 -0.050605
N10   N     N_R   0.122510 0.958490 0.460420 -0.050591
N11   N     N_R   0.990180 0.030970 0.644220 -0.046417
N12   N     N_R   0.947420 0.943960 0.604500 -0.042175
N13   N     N_R   0.165270 0.045500 0.500140 -0.056865
N14   N     N_R   0.109790 0.150600 0.644220 -0.042147
N15   N     N_R   0.002890 0.838860 0.460420 -0.045828
N16   N     N_R   0.834730 0.954500 0.499860 -0.068659
Ni1   Ni    Ni4+2 0.104370 0.104380 0.500010 0.224975
Ni2   Ni    Ni4+2 0.895630 0.895620 0.499990 0.195575
Ni3   Ni    Ni4+2 0.006300 0.904810 0.408930 0.211697
Ni4   Ni    Ni4+2 0.993700 0.095190 0.591070 0.197829
O1    O     O_3   0.375632 0.840720 0.539024 -0.631119
O2    O     O_3   0.610243 0.516021 0.018245 -0.615878
O3    O     O_3   0.334634 0.133432 0.735950 -0.664328
O4    O     O_3   0.603429 0.361988 0.978738 -0.650717
O5    O     O_3   0.434177 0.425341 0.989360 -0.630141
O6    O     O_3   0.708340 0.731326 0.371890 -0.681765
O7    O     O_3   0.835549 0.139138 0.597193 -0.683959

loop_
_geom_bond_atom_site_label_1
_geom_bond_atom_site_label_2
_ccdc_geom_bond_type
C97   O3    S    
C90   H37   S    
C9    H67   S    
C36   H9    S    
C99   H58   S    
C97   C98   S    
C101  H63   S    
N2    N4    A    
C37   C38   A    
C91   C92   S    
C7    H85   S    
C32   H5    S    
C4    H79   S    
C82   N7    A    
C18   C53   S    
C93   C94   S    
N14   Ni4   S    
C82   H35   S    
C3    C4    S    
C44   H11   S    
C95   N12   A    
C46   N4    A    
C104  C105  S    
C64   C71   A    
C10   H3    S    
C19   H89   S    
C80   H25   S    
C13   C62   A    
N3    N5    A    
C3    H75   S    
N10   Ni3   S    
C24   C25   A    
C77   C78   A    
C7    H86   S    
N2    Ni3   S    
N16   Ni2   S    
C105  H73   S    
C26   C27   A    
C76   C77   A    
C51   H36   S    
C2    N13   A    
C1    H1    S    
C41   C47   A    
C30   H7    S    
C92   H43   S    
C95   H45   S    
N8    N14   A    
N10   N13   A    
C52   C53   A    
C104  H71   S    
C57   C59   A    
C30   C31   A    
C28   C35   A    
C9    N14   A    
C63   O2    S    
C61   O3    S    
C15   C88   S    
C98   C99   S    
C29   C71   S    
N6    Ni4   S    
C79   C80   A    
C65   H19   S    
C4    C5    S    
C45   C47   A    
C66   H24   S    
N9    N15   A    
C103  C104  S    
C66   C67   A    
C91   H40   S    
C93   H44   S    
C85   C87   S    
C101  H62   S    
C100  O4    S    
C73   N10   A    
C49   H16   S    
Br4   C87   S    
C105  H74   S    
C43   H10   S    
C75   H31   S    
C2    H56   S    
C55   C56   A    
C84   N11   A    
C103  H68   S    
C8    H87   S    
C90   C91   S    
C58   H33   S    
C11   N15   A    
C5    H80   S    
C100  C101  S    
C81   C88   A    
C86   H30   S    
C1    N1    A    
C94   H47   S    
C81   C83   A    
C24   H2    S    
C79   C85   A    
C2    C14   A    
C69   H20   S    
N4    Ni2   S    
C59   C60   A    
C47   C48   A    
C43   C44   A    
N13   Ni1   S    
C22   N2    A    
C20   C21   A    
C4    H77   S    
C15   C84   A    
N15   Ni3   S    
C14   C37   S    
C72   C78   A    
C67   C69   S    
C15   C95   A    
C74   C75   A    
C98   H54   S    
C3    O6    S    
C40   C58   A    
C29   C46   A    
C41   C42   A    
C92   H42   S    
C11   H78   S    
N7    Ni3   S    
N11   Ni4   S    
C63   C64   A    
C104  H70   S    
C56   C57   A    
C12   C55   S    
C28   C30   A    
N3    Ni4   S    
C36   C42   A    
C102  H64   S    
C34   C40   A    
C25   C26   A    
C82   C89   A    
C72   C89   S    
C62   N9    A    
C96   H51   S    
C22   C29   A    
C27   C28   A    
C94   H48   S    
C8    H88   S    
C92   H41   S    
C42   C50   A    
C90   O1    S    
C102  H65   S    
C62   H12   S    
C83   H32   S    
C50   O1    S    
C39   C41   A    
C64   H18   S    
C58   N5    A    
C48   C54   A    
C81   H26   S    
N12   Ni2   S    
C98   H55   S    
C36   C37   A    
C60   H21   S    
C35   H6    S    
C17   C19   A    
C103  H69   S    
C34   N3    A    
C6    H84   S    
C22   H14   S    
C18   C70   A    
C5    H81   S    
C79   H28   S    
C48   C49   A    
C77   H27   S    
C100  H61   S    
C103  O5    S    
C105  H72   S    
C90   H38   S    
C11   C13   A    
C25   H4    S    
C97   H53   S    
Br1   C16   S    
N1    N7    A    
C84   H34   S    
C16   C17   A    
C21   C27   A    
C3    H76   S    
C91   H39   S    
C20   C24   A    
C72   C74   A    
C68   C69   D    
C102  H66   S    
C1    C89   A    
C7    C8    S    
C49   C50   A    
C16   C23   A    
C21   C23   A    
C45   C52   A    
C51   N8    A    
C101  C102  S    
N5    Ni1   S    
C54   H15   S    
C26   C32   A    
C23   C31   A    
C60   C61   A    
C10   C18   A    
C33   C40   S    
C56   H17   S    
C12   C51   A    
N9    Ni2   S    
C33   C35   A    
C34   H22   S    
C68   O4    S    
C96   H50   S    
C86   C87   D    
Br2   C38   S    
C14   C73   A    
C44   C45   A    
C97   H52   S    
N8    Ni1   S    
N1    Ni1   S    
C8    H90   S    
C93   O2    S    
C10   N16   A    
C65   C71   A    
C63   C67   A    
C93   H46   S    
C76   C86   S    
C65   C66   A    
C94   C96   S    
C6    H83   S    
C57   O5    S    
C31   H8    S    
C6    C7    S    
C19   C20   A    
C75   C76   A    
C96   H49   S    
C99   H59   S    
C78   H29   S    
C59   C68   S    
N6    N16   A    
C99   H57   S    
C32   C33   A    
N11   N12   A    
C38   C39   A    
C9    C12   A    
C6    O7    S    
C83   C85   A    
C46   O6    S    
C80   C88   A    
C53   C54   A    
C5    H82   S    
Br3   C74   S    
C39   C43   A    
C73   H23   S    
C55   C61   A    
C70   O7    S    
C52   H13   S    
C100  H60   S    
C70   N6    A    
C13   C17   S    
