data_mof_unit_67964.cif
_audit_creation_date              2013-03-05T16:47:25-0500
_audit_creation_method            fapswitch 2.2
_symmetry_space_group_name_H-M    P1
_symmetry_Int_Tables_number       1
_space_group_crystal_system       triclinic
_cell_length_a                    10.937365
_cell_length_b                    9.01794
_cell_length_c                    8.187547
_cell_angle_alpha                 92.825441
_cell_angle_beta                  88.753261
_cell_angle_gamma                 92.04454
_cell_volume                      805.901242813

loop_
_atom_site_label
_atom_site_type_symbol
_atom_site_description
_atom_site_fract_x
_atom_site_fract_y
_atom_site_fract_z
_atom_type_partial_charge
O1    O     O_R   0.500000 0.285340 0.636850 -0.639344
O2    O     O_R   0.500000 0.285340 0.363150 -0.637952
C1    C     C_R   0.510290 0.219157 0.497733 0.882064
O3    O     O_R   0.314790 0.499970 0.636880 -0.592615
O4    O     O_R   0.314790 0.499970 0.363120 -0.642427
O5    O     O_R   0.685210 0.499970 0.636880 -0.654762
O6    O     O_R   0.685210 0.499970 0.363120 -0.629371
N1    N     N_1   0.500000 0.500030 0.073640 -0.063670
N2    N     N_1   0.500000 0.500030 0.926360 -0.058565
C2    C     C_R   0.256954 0.491684 0.499723 0.879134
C3    C     C_R   0.741699 0.485931 0.499838 0.893002
Zn1   Zn    Zn3+2 0.500000 0.499990 0.682780 0.951751
Zn2   Zn    Zn3+2 0.500000 0.499990 0.317220 0.935556
O7    O     O_R   0.500000 0.714650 0.636900 -0.612849
O8    O     O_R   0.500000 0.714650 0.363100 -0.611629
C4    C     C_R   0.504007 0.782085 0.502772 0.959873
C5    C     C_1   0.513996 0.065886 0.498387 -0.232169
C6    C     C_3   0.067860 0.469851 0.686977 0.603016
C7    C     C_3   0.069956 0.352747 0.357895 0.528208
C8    C     C_3   0.922059 0.442392 0.690961 0.577713
C9    C     C_3   0.921761 0.334459 0.377561 0.613201
C10   C     C_1   0.511572 0.935679 0.505246 -0.236763
H1    H     H_    0.109354 0.726026 0.509826 0.188163
H2    H     H_    0.107985 0.653956 0.317671 0.212972
H3    H     H_    0.900905 0.713870 0.531019 0.194542
H4    H     H_    0.898970 0.641306 0.328464 0.226544
C11   C     C_3   0.073008 0.626687 0.440509 -0.536954
C12   C     C_3   0.932838 0.620420 0.449494 -0.592732
C13   C     C_3   0.119874 0.477894 0.498159 -0.152103
C14   C     C_3   0.877649 0.467743 0.504635 -0.134441
C15   C     C_3   0.105883 0.622213 0.783578 -0.842962
H5    H     H_    0.109426 0.609835 0.917168 0.246745
H6    H     H_    0.197073 0.668222 0.753570 0.247693
H7    H     H_    0.046321 0.715526 0.762523 0.200189
C16   C     C_3   0.099922 0.403549 0.178015 -0.877788
H8    H     H_    0.088054 0.308656 0.089128 0.262554
H9    H     H_    0.040552 0.491437 0.141558 0.219334
H10   H     H_    0.192270 0.449604 0.152888 0.256117
C17   C     C_3   0.864120 0.550473 0.830152 -0.866937
H11   H     H_    0.772899 0.521255 0.880201 0.242456
H12   H     H_    0.917056 0.552988 0.942699 0.228010
H13   H     H_    0.855045 0.664784 0.789715 0.212298
C18   C     C_3   0.850931 0.342598 0.211329 -0.908062
H14   H     H_    0.892568 0.289649 0.101358 0.233720
H15   H     H_    0.758211 0.289274 0.221715 0.259630
H16   H     H_    0.840467 0.456787 0.173723 0.229389
O9    O     O_3   0.122993 0.365214 0.786219 -0.625396
C19   C     C_3   0.150037 0.226875 0.710996 0.167652
H17   H     H_    0.235779 0.238464 0.640139 0.165361
H18   H     H_    0.073585 0.177475 0.639861 0.227632
C20   C     C_3   0.172384 0.118751 0.840831 -0.386372
H19   H     H_    0.234321 0.173585 0.931944 0.242537
H20   H     H_    0.084038 0.087600 0.900577 0.218469
C21   C     C_3   0.230045 0.979668 0.766470 -1.003370
H21   H     H_    0.176831 0.934183 0.660632 0.253406
H22   H     H_    0.231326 0.895971 0.860247 0.284352
H23   H     H_    0.325392 0.005493 0.726381 0.285265
O10   O     O_3   0.118339 0.208785 0.374717 -0.713890
C22   C     C_3   0.234285 0.172870 0.303749 0.086188
H24   H     H_    0.299215 0.179351 0.402025 0.156777
H25   H     H_    0.271208 0.244643 0.208250 0.180520
C23   C     C_3   0.232171 0.010613 0.237358 -0.406802
H26   H     H_    0.215441 0.935700 0.339897 0.215890
H27   H     H_    0.157230 0.991497 0.150520 0.243470
C24   C     C_3   0.350582 0.968230 0.145950 -0.888933
H28   H     H_    0.371538 0.040231 0.042923 0.264848
H29   H     H_    0.342593 0.850673 0.099090 0.268133
H30   H     H_    0.430129 0.979582 0.224476 0.285162
O11   O     O_3   0.901075 0.291820 0.739001 -0.638088
C25   C     C_3   0.778858 0.240031 0.769916 0.202071
H31   H     H_    0.722039 0.247624 0.662192 0.180280
H32   H     H_    0.737905 0.297171 0.879003 0.146332
C26   C     C_3   0.778222 0.075223 0.804960 -0.405989
H33   H     H_    0.789237 0.006847 0.690372 0.214183
H34   H     H_    0.857687 0.055438 0.880071 0.236582
C27   C     C_3   0.659664 0.023837 0.891502 -0.924712
H35   H     H_    0.579998 0.036469 0.813203 0.283693
H36   H     H_    0.643592 0.090358 0.007119 0.252465
H37   H     H_    0.664988 0.905042 0.919610 0.279377
O12   O     O_3   0.880065 0.198094 0.449373 -0.660938
C28   C     C_3   0.903858 0.051826 0.380659 0.203601
H38   H     H_    0.829868 0.977203 0.427480 0.124259
H39   H     H_    0.987960 0.008497 0.431134 0.169898
C29   C     C_3   0.900871 0.026559 0.195074 -0.403923
H40   H     H_    0.811203 0.059306 0.153752 0.245422
H41   H     H_    0.976896 0.090220 0.139361 0.238122
C30   C     C_3   0.913901 0.865334 0.136450 -1.053395
H42   H     H_    0.995189 0.819507 0.190444 0.272030
H43   H     H_    0.928000 0.857084 0.001949 0.272435
H44   H     H_    0.828732 0.800683 0.166001 0.285622

loop_
_geom_bond_atom_site_label_1
_geom_bond_atom_site_label_2
_geom_bond_distance
_ccdc_geom_bond_type
C30   H42   1.103631 S    
N1    Zn2   1.994341 S    
C11   C13   1.551774 S    
C26   H33   1.103761 S    
C16   H8    1.101623 S    
C29   C30   1.519072 S    
C6    O9    1.432401 S    
C28   H38   1.108049 S    
C17   H12   1.097761 S    
C8    C14   1.640138 S    
H3    C12   1.110455 S    
O6    C3    1.304001 A    
C18   H16   1.099761 S    
H2    C11   1.104200 S    
C7    C9    1.628659 S    
C27   H36   1.109570 S    
O5    Zn1   2.052224 S    
O8    C4    1.269332 A    
O2    Zn2   1.990005 S    
C23   H27   1.100119 S    
C9    C18   1.586741 S    
C19   C20   1.506981 S    
O9    C19   1.402076 S    
C3    C14   1.503338 S    
N1    N2    1.205861 T    
C24   H29   1.110601 S    
C15   H6    1.094141 S    
C25   H31   1.096199 S    
H1    C11   1.103145 S    
O3    Zn1   2.068292 S    
O4    Zn2   2.052215 S    
C19   H18   1.098143 S    
C22   H24   1.082805 S    
C26   H34   1.100260 S    
O1    Zn1   1.953610 S    
C28   H39   1.108024 S    
C17   H13   1.106567 S    
C7    O10   1.433260 S    
C21   H22   1.103525 S    
C22   H25   1.100402 S    
C20   H19   1.105284 S    
C16   H10   1.097477 S    
C27   H35   1.105342 S    
C17   H11   1.098581 S    
C8    C17   1.597947 S    
O10   C22   1.424568 S    
O1    C1    1.264303 A    
C18   H14   1.096070 S    
C23   H26   1.111352 S    
C15   H5    1.106567 S    
C24   H30   1.091927 S    
C25   C26   1.527238 S    
C15   H7    1.104770 S    
C6    C13   1.639737 S    
C29   H40   1.099301 S    
C18   H15   1.110127 S    
C19   H17   1.096468 S    
Zn1   O7    1.989996 S    
Zn2   O8    1.953639 S    
C26   C27   1.532241 S    
O7    C4    1.280461 A    
C8    O11   1.441395 S    
O3    C2    1.298491 A    
C7    C13   1.657149 S    
O5    C3    1.272059 A    
C28   C29   1.526210 S    
C21   H21   1.108043 S    
C22   C23   1.535172 S    
C4    C10   1.383797 S    
C23   C24   1.532460 S    
C16   H9    1.098813 S    
C29   H41   1.097410 S    
O12   C28   1.438426 S    
C9    C14   1.629776 S    
H4    C12   1.092712 S    
C5    C10   1.177635 T    
C20   C21   1.518549 S    
C12   C14   1.566520 S    
O2    C1    1.287668 A    
O4    C2    1.277004 A    
C7    C16   1.587817 S    
C2    C13   1.500298 S    
C9    O12   1.444125 S    
C1    C5    1.384500 S    
C6    C8    1.604911 S    
O11   C25   1.421766 S    
N2    Zn1   1.994305 S    
O6    Zn2   2.068306 S    
C27   H37   1.110566 S    
C24   H28   1.104831 S    
C30   H44   1.109747 S    
C11   C12   1.532416 S    
C30   H43   1.107878 S    
C25   H32   1.103432 S    
C6    C15   1.597737 S    
C20   H20   1.107026 S    
C21   H23   1.106717 S    
