data_mof_unit_28343.cif
_audit_creation_date              2012-12-11T14:44:28-0500
_audit_creation_method            fapswitch 2.2
_symmetry_space_group_name_H-M    P1
_symmetry_Int_Tables_number       1
_space_group_crystal_system       triclinic
_cell_length_a                    24.941861
_cell_length_b                    16.720772
_cell_length_c                    15.681383
_cell_angle_alpha                 89.783952
_cell_angle_beta                  49.285996
_cell_angle_gamma                 89.89819
_cell_volume                      4957.02512076

loop_
_atom_site_label
_atom_site_type_symbol
_atom_type_description
_atom_site_fract_x
_atom_site_fract_y
_atom_site_fract_z
_atom_type_partial_charge
C1    C     C_R   0.350638 0.145969 0.758969 -0.137836
C2    C     C_3   0.717134 0.732658 0.583341 0.017882
C3    C     C_3   0.756544 0.200963 0.602017 0.011629
C4    C     C_3   0.298736 0.717919 0.396383 0.012249
C5    C     C_3   0.723153 0.677517 0.417797 0.014126
C6    C     C_3   0.217133 0.232671 0.583346 0.017852
C7    C     C_3   0.256741 0.700704 0.601865 0.011587
C8    C     C_3   0.798915 0.217615 0.396226 0.012312
C9    C     C_2   0.645831 0.262617 0.141874 -0.272204
C10   C     C_2   0.300304 0.843597 0.984705 -0.257160
C11   C     C_2   0.354436 0.262323 0.857126 -0.274627
C12   C     C_R   0.666778 0.886707 0.198680 -0.123814
C13   C     C_2   0.699520 0.843985 0.015933 -0.255978
C14   C     C_2   0.145852 0.762584 0.141798 -0.272217
C15   C     C_2   0.800316 0.343600 0.984708 -0.257148
C16   C     C_2   0.854438 0.762326 0.857119 -0.274624
C17   C     C_2   0.199519 0.343980 0.015936 -0.255986
C18   C     C_2   0.680093 0.318103 0.153426 0.051555
C19   C     C_2   0.232370 0.868491 0.055555 0.066415
C20   C     C_2   0.319298 0.317736 0.847009 0.053083
C21   C     C_2   0.767770 0.867896 0.945040 0.067730
C22   C     C_2   0.180068 0.818103 0.153396 0.051543
C23   C     C_R   0.649418 0.146032 0.240439 -0.137215
C24   C     C_2   0.732382 0.368490 0.055574 0.066416
C25   C     C_2   0.819297 0.817737 0.847006 0.053080
C26   C     C_2   0.267768 0.367894 0.945043 0.067734
C27   C     C_R   0.613843 0.112223 0.591002 -0.142514
C28   C     C_R   0.416440 0.848515 0.408210 -0.112085
C29   C     C_R   0.386499 0.110641 0.407502 -0.138536
C30   C     C_R   0.583484 0.849144 0.593536 -0.102138
C31   C     C_R   0.113816 0.612269 0.591020 -0.142483
C32   C     C_R   0.916423 0.348516 0.408225 -0.112252
C33   C     C_R   0.886500 0.610635 0.407500 -0.138572
C34   C     C_R   0.333187 0.886582 0.801601 -0.120510
C35   C     C_R   0.083481 0.349143 0.593537 -0.102129
C36   C     C_R   0.688493 0.112372 0.403844 -0.168212
C37   C     C_R   0.339616 0.850642 0.594875 -0.132404
C38   C     C_R   0.310572 0.108995 0.594458 -0.178829
C39   C     C_R   0.658454 0.849291 0.407009 -0.138551
C40   C     C_R   0.188477 0.612418 0.403861 -0.168202
C41   C     C_R   0.839583 0.350667 0.594896 -0.132379
C42   C     C_R   0.810571 0.608988 0.594456 -0.178812
C43   C     C_R   0.158451 0.349290 0.407010 -0.138539
C44   C     C_R   0.560502 0.143240 0.238854 -0.145269
C45   C     C_R   0.850637 0.645969 0.758968 -0.137838
C46   C     C_R   0.420837 0.890680 0.804302 -0.164462
C47   C     C_R   0.439576 0.143150 0.760621 -0.145918
C48   C     C_R   0.579106 0.890891 0.195937 -0.166578
C49   C     C_R   0.060510 0.643224 0.238825 -0.145261
C50   C     C_R   0.920840 0.390682 0.804299 -0.164481
C51   C     C_R   0.939574 0.643150 0.760623 -0.145916
C52   C     C_R   0.079104 0.390887 0.195940 -0.166564
C53   C     C_R   0.382143 0.188215 0.791628 0.139473
C54   C     C_R   0.649311 0.869219 0.133921 0.151373
C55   C     C_R   0.617935 0.188328 0.207592 0.138238
C56   C     C_R   0.166777 0.386705 0.198681 -0.123823
C57   C     C_R   0.350642 0.868886 0.866450 0.152639
C58   C     C_R   0.882142 0.688215 0.791626 0.139477
C59   C     C_R   0.149310 0.369215 0.133924 0.151368
C60   C     C_R   0.117948 0.688308 0.207546 0.138221
C61   C     C_R   0.850645 0.368889 0.866453 0.152648
C62   C     C_R   0.679897 0.134959 0.495811 0.083928
C63   C     C_R   0.366709 0.803655 0.502893 0.057843
C64   C     C_R   0.319457 0.130534 0.501412 0.083308
C65   C     C_R   0.631151 0.802865 0.500413 0.066195
C66   C     C_R   0.179857 0.635054 0.495844 0.083893
C67   C     C_R   0.149425 0.646026 0.240416 -0.137227
C68   C     C_R   0.866660 0.303685 0.502927 0.057798
C69   C     C_R   0.819456 0.630522 0.501408 0.083268
C70   C     C_R   0.131147 0.302863 0.500415 0.066183
C71   C     C_3   0.285145 0.215508 0.401963 -0.042205
C72   C     C_3   0.655127 0.694664 0.599662 -0.020841
C73   C     C_3   0.713173 0.239813 0.575424 -0.038666
C74   C     C_3   0.342729 0.679120 0.421987 -0.022043
C75   C     C_3   0.785148 0.715502 0.401957 -0.042192
C76   C     C_3   0.155125 0.194674 0.599672 -0.020869
C77   C     C_3   0.213144 0.739663 0.575764 -0.038777
C78   C     C_R   0.833187 0.386586 0.801608 -0.120502
C79   C     C_3   0.842687 0.178924 0.422324 -0.021971
C80   C     C_3   0.736703 0.781628 0.484471 0.018764
C81   C     C_3   0.204283 0.127279 0.517219 0.002183
C82   C     C_3   0.278027 0.785616 0.477849 0.028155
C83   C     C_3   0.776674 0.132048 0.520803 0.015105
C84   C     C_3   0.236700 0.281636 0.484473 0.018774
C85   C     C_3   0.704285 0.627270 0.517204 0.002090
C86   C     C_3   0.778199 0.285533 0.477411 0.027995
C87   C     C_3   0.276863 0.632008 0.520361 0.015301
C88   C     C_3   0.673751 0.744497 0.500485 0.046611
C89   C     C_3   0.223149 0.177519 0.417808 0.014091
C90   C     C_3   0.266678 0.165548 0.501099 0.032973
C91   C     C_3   0.322828 0.747300 0.503670 0.036813
C92   C     C_3   0.732850 0.170996 0.494252 0.019061
C93   C     C_3   0.173748 0.244500 0.500492 0.046619
C94   C     C_3   0.766679 0.665537 0.501091 0.032976
C95   C     C_3   0.822778 0.247323 0.503724 0.036851
C96   C     C_3   0.232814 0.671067 0.494304 0.019057
H1    H     H_    0.302830 0.160480 0.774280 0.095228
H2    H     H_    0.443916 0.832766 0.321780 0.099516
H3    H     H_    0.127263 0.796766 0.320965 0.121871
H4    H     H_    0.346409 0.440547 0.907524 0.097566
H5    H     H_    0.269234 0.486182 0.967727 0.114276
H6    H     H_    0.779253 0.793457 0.771946 0.087959
H7    H     H_    0.869267 0.796448 0.680741 0.120042
H8    H     H_    0.407428 0.108037 0.321739 0.107633
H9    H     H_    0.555973 0.834188 0.680328 0.110437
H10   H     H_    0.093940 0.610316 0.676250 0.092446
H11   H     H_    0.943902 0.332749 0.321797 0.099643
H12   H     H_    0.907430 0.608030 0.321736 0.107633
H13   H     H_    0.055970 0.334187 0.680329 0.110439
H14   H     H_    0.736816 0.110358 0.317178 0.089761
H15   H     H_    0.296125 0.836678 0.681734 0.099350
H16   H     H_    0.261669 0.106303 0.680780 0.092005
H17   H     H_    0.719286 0.886950 0.171336 0.100960
H18   H     H_    0.701653 0.833831 0.320522 0.090212
H19   H     H_    0.236813 0.610414 0.317203 0.089790
H20   H     H_    0.796103 0.336716 0.681762 0.099431
H21   H     H_    0.761667 0.606291 0.680777 0.092005
H22   H     H_    0.201651 0.333829 0.320524 0.090209
H23   H     H_    0.525257 0.158274 0.223577 0.098262
H24   H     H_    0.448157 0.894913 0.836375 0.099533
H25   H     H_    0.474870 0.158137 0.775723 0.095212
H26   H     H_    0.551696 0.895083 0.163980 0.099070
H27   H     H_    0.025270 0.658248 0.223536 0.098264
H28   H     H_    0.697341 0.160731 0.224567 0.095027
H29   H     H_    0.948163 0.394915 0.836368 0.099532
H30   H     H_    0.974865 0.658137 0.775731 0.095214
H31   H     H_    0.051693 0.395076 0.163985 0.099082
H32   H     H_    0.317000 0.795912 0.010162 0.126564
H33   H     H_    0.647993 0.265996 0.070420 0.134894
H34   H     H_    0.682203 0.797276 0.990597 0.125157
H35   H     H_    0.353713 0.265887 0.927094 0.133315
H36   H     H_    0.817023 0.295924 0.010158 0.126552
H37   H     H_    0.148055 0.765929 0.070302 0.134887
H38   H     H_    0.182205 0.297267 0.990601 0.125165
H39   H     H_    0.280590 0.887092 0.829293 0.101072
H40   H     H_    0.853721 0.765895 0.927080 0.133314
H41   H     H_    0.798247 0.871100 0.466268 0.093771
H42   H     H_    0.775162 0.882477 0.387942 0.096923
H43   H     H_    0.141676 0.034927 0.545788 0.104754
H44   H     H_    0.174925 0.026175 0.610127 0.091448
H45   H     H_    0.241171 0.876436 0.441933 0.106845
H46   H     H_    0.257833 0.902132 0.525999 0.121667
H47   H     H_    0.809981 0.039040 0.559096 0.106871
H48   H     H_    0.796763 0.017072 0.469859 0.108940
H49   H     H_    0.298226 0.371120 0.466299 0.093840
H50   H     H_    0.802830 0.660478 0.774278 0.095227
H51   H     H_    0.275169 0.382478 0.387931 0.096875
H52   H     H_    0.641667 0.534921 0.545806 0.104778
H53   H     H_    0.674968 0.526146 0.610064 0.091522
H54   H     H_    0.741609 0.376237 0.440860 0.106789
H55   H     H_    0.758195 0.402177 0.524953 0.121808
H56   H     H_    0.310503 0.538858 0.557875 0.106849
H57   H     H_    0.297083 0.517174 0.468814 0.108844
H58   H     H_    0.384225 0.262012 0.307725 0.099783
H59   H     H_    0.349082 0.265628 0.246019 0.091447
H60   H     H_    0.554473 0.654186 0.691566 0.101410
H61   H     H_    0.219285 0.386948 0.171336 0.100963
H62   H     H_    0.588587 0.643116 0.754355 0.094968
H63   H     H_    0.623110 0.287713 0.619162 0.108498
H64   H     H_    0.611101 0.236239 0.723067 0.092835
H65   H     H_    0.431006 0.628984 0.381040 0.104032
H66   H     H_    0.446205 0.689299 0.281439 0.103778
H67   H     H_    0.884231 0.762001 0.307724 0.099803
H68   H     H_    0.849088 0.765630 0.246017 0.091448
H69   H     H_    0.054473 0.154188 0.691581 0.101401
H70   H     H_    0.088587 0.143136 0.754372 0.094967
H71   H     H_    0.122861 0.787463 0.620190 0.108454
H72   H     H_    0.197348 0.660729 0.224540 0.095027
H73   H     H_    0.111191 0.735798 0.723692 0.092792
H74   H     H_    0.930730 0.128667 0.382061 0.104027
H75   H     H_    0.946269 0.188849 0.282095 0.103854
H76   H     H_    0.263922 0.101673 0.287748 0.116393
H77   H     H_    0.243517 0.192457 0.270490 0.092689
H78   H     H_    0.693332 0.722669 0.734284 0.088421
H79   H     H_    0.764426 0.780075 0.638501 0.101131
H80   H     H_    0.694913 0.144421 0.753325 0.107444
H81   H     H_    0.707511 0.241483 0.759643 0.093465
H82   H     H_    0.341097 0.676420 0.241834 0.096780
H83   H     H_    0.780588 0.387098 0.829307 0.101075
H84   H     H_    0.281074 0.750230 0.291477 0.092727
H85   H     H_    0.763917 0.601669 0.287743 0.116375
H86   H     H_    0.743538 0.692462 0.270466 0.092688
H87   H     H_    0.193326 0.222690 0.734292 0.088428
H88   H     H_    0.264430 0.280080 0.638500 0.101131
H89   H     H_    0.195352 0.643836 0.752930 0.107475
H90   H     H_    0.207954 0.740840 0.759568 0.093483
H91   H     H_    0.841348 0.175665 0.241843 0.096813
H92   H     H_    0.781613 0.249720 0.290802 0.092647
H93   H     H_    0.154737 0.942922 0.092570 0.099241
H94   H     H_    0.593966 0.110288 0.676235 0.092488
H95   H     H_    0.232402 0.987186 0.032653 0.113339
H96   H     H_    0.717167 0.295345 0.233809 0.087275
H97   H     H_    0.627354 0.296730 0.320966 0.121863
H98   H     H_    0.846414 0.940541 0.907523 0.097556
H99   H     H_    0.769241 0.986183 0.967727 0.114273
H100  H     H_    0.279267 0.293460 0.771929 0.087962
H101  H     H_    0.369281 0.296455 0.680738 0.120044
H102  H     H_    0.654734 0.442903 0.092606 0.099226
H103  H     H_    0.732402 0.487179 0.032650 0.113332
H104  H     H_    0.217069 0.795384 0.233883 0.087282
N1    N     N_R   0.389620 0.081040 0.705440 -0.043352
N2    N     N_R   0.417680 0.920160 0.443370 -0.040666
N3    N     N_R   0.417680 0.079840 0.443370 -0.039968
N4    N     N_R   0.582320 0.920160 0.556630 -0.041833
N5    N     N_R   0.082320 0.579840 0.556630 -0.038224
N6    N     N_R   0.917680 0.420160 0.443370 -0.040677
N7    N     N_R   0.917680 0.579840 0.443370 -0.039963
N8    N     N_R   0.082320 0.420160 0.556630 -0.041836
N9    N     N_R   0.627920 0.078930 0.443400 -0.036763
N10   N     N_R   0.372080 0.921070 0.556600 -0.043467
N11   N     N_R   0.372080 0.078930 0.556600 -0.035994
N12   N     N_R   0.610380 0.918960 0.294560 -0.044391
N13   N     N_R   0.627920 0.921070 0.443400 -0.040843
N14   N     N_R   0.127920 0.578930 0.443400 -0.036760
N15   N     N_R   0.872080 0.421070 0.556600 -0.043469
N16   N     N_R   0.872080 0.578930 0.556600 -0.035993
N17   N     N_R   0.127920 0.421070 0.443400 -0.040845
N18   N     N_R   0.555090 0.077730 0.294590 -0.040795
N19   N     N_R   0.444910 0.922270 0.705410 -0.040828
N20   N     N_R   0.444910 0.077730 0.705410 -0.040624
N21   N     N_R   0.555090 0.922270 0.294590 -0.039296
N22   N     N_R   0.055090 0.577730 0.294590 -0.040793
N23   N     N_R   0.610380 0.081040 0.294560 -0.043547
N24   N     N_R   0.944910 0.422270 0.705410 -0.040828
N25   N     N_R   0.944910 0.577730 0.705410 -0.040623
N26   N     N_R   0.055090 0.422270 0.294590 -0.039292
N27   N     N_3   0.755805 0.866055 0.467976 -0.201670
N28   N     N_3   0.187578 0.042329 0.534397 -0.218184
N29   N     N_3   0.277585 0.869862 0.453814 -0.205453
N30   N     N_3   0.775235 0.047466 0.544090 -0.210968
N31   N     N_3   0.255797 0.366064 0.467976 -0.201622
N32   N     N_3   0.687586 0.542319 0.534366 -0.218221
N33   N     N_3   0.777949 0.369710 0.452906 -0.205580
N34   N     N_R   0.389620 0.918960 0.705440 -0.045098
N35   N     N_3   0.275622 0.547358 0.543155 -0.210935
N36   N     N_3   0.355235 0.229095 0.293327 -0.225807
N37   N     N_3   0.584328 0.682887 0.707481 -0.220075
N38   N     N_3   0.644150 0.277209 0.657964 -0.224662
N39   N     N_3   0.412794 0.644381 0.339147 -0.221674
N40   N     N_3   0.855239 0.729089 0.293323 -0.225808
N41   N     N_3   0.084326 0.182899 0.707492 -0.220072
N42   N     N_3   0.144085 0.776888 0.658692 -0.224698
N43   N     N_3   0.912720 0.144022 0.339860 -0.221639
N44   N     N_3   0.225422 0.146454 0.328906 -0.212680
N45   N     N_R   0.889620 0.581040 0.705440 -0.043353
N46   N     N_3   0.712845 0.766716 0.672938 -0.208024
N47   N     N_3   0.733377 0.189338 0.713837 -0.216472
N48   N     N_3   0.324039 0.731285 0.283547 -0.215296
N49   N     N_3   0.725428 0.646461 0.328890 -0.212676
N50   N     N_3   0.212847 0.266732 0.672938 -0.208017
N51   N     N_3   0.233795 0.688775 0.713495 -0.216393
N52   N     N_3   0.824434 0.230664 0.283207 -0.215302
N53   N     N_3   0.209488 0.936201 0.029623 -0.219140
N54   N     N_3   0.673790 0.324061 0.251185 -0.211021
N55   N     N_3   0.791601 0.934440 0.970661 -0.220064
N56   N     N_R   0.110380 0.418960 0.294560 -0.044391
N57   N     N_3   0.323109 0.323117 0.751609 -0.211824
N58   N     N_3   0.709485 0.436185 0.029645 -0.219149
N59   N     N_3   0.173709 0.824096 0.251203 -0.211005
N60   N     N_3   0.291597 0.434442 0.970662 -0.220061
N61   N     N_3   0.823099 0.823113 0.751615 -0.211840
N62   N     N_R   0.110380 0.581040 0.294560 -0.043543
N63   N     N_R   0.889620 0.418960 0.705440 -0.045106
N64   N     N_R   0.582320 0.079840 0.556630 -0.038234
Ni1   Ni    Ni4+2 0.382970 0.000000 0.629840 0.204192
Ni2   Ni    Ni4+2 0.617030 1.000000 0.370160 0.205177
Ni3   Ni    Ni4+2 0.882970 0.500000 0.629840 0.204186
Ni4   Ni    Ni4+2 0.117030 0.500000 0.370160 0.205186
Ni5   Ni    Ni4+2 0.514540 0.000000 0.629840 0.208711
Ni6   Ni    Ni4+2 0.485460 1.000000 0.370160 0.207681
Ni7   Ni    Ni4+2 0.014540 0.500000 0.629840 0.208711
Ni8   Ni    Ni4+2 0.985460 0.500000 0.370160 0.207660

loop_
_geom_bond_atom_site_label_1
_geom_bond_atom_site_label_2
_ccdc_geom_bond_type
N6    N15   A    
C67   H72   S    
C31   C66   A    
H4    N60   S    
N64   Ni5   S    
C29   N3    A    
C81   N28   S    
N6    Ni8   S    
C49   N22   A    
N1    N20   A    
C78   N63   A    
H77   N44   S    
C64   C90   S    
H73   N42   S    
C1    N1    A    
C9    C18   D    
H46   N29   S    
N5    Ni7   S    
C72   C85   S    
N18   N23   A    
H56   N35   S    
N45   Ni3   S    
C32   C68   A    
C18   N54   S    
C65   C88   S    
N63   Ni3   S    
C83   C92   S    
C85   N32   S    
C50   N24   A    
N18   Ni6   S    
C49   C60   A    
H64   N38   S    
H58   N36   S    
N9    N64   A    
C18   C24   S    
C17   C26   D    
C34   H39   S    
H59   N36   S    
H48   N30   S    
N3    Ni6   S    
H86   N49   S    
C26   N60   S    
C71   C84   S    
H99   N55   S    
C2    C80   S    
C48   H26   S    
C41   N15   A    
C10   H32   S    
C47   H25   S    
C40   H19   S    
H89   N51   S    
C48   N21   A    
H45   N29   S    
H55   N33   S    
H5    N60   S    
C24   N58   S    
N11   Ni1   S    
C87   N35   S    
H98   N55   S    
H57   N35   S    
C30   H9    S    
C74   N39   S    
H92   N52   S    
C84   N31   S    
C1    C53   A    
C4    N48   S    
N23   Ni2   S    
C8    C92   S    
N26   Ni8   S    
C4    C96   S    
C5    C88   S    
H51   N31   S    
C19   N53   S    
H79   N46   S    
N25   Ni7   S    
C15   H36   S    
C60   C67   A    
C32   H11   S    
C62   C92   S    
C51   N25   A    
C8    C79   S    
C13   H34   S    
H52   N32   S    
C27   H94   S    
C79   N43   S    
C74   C87   S    
C41   C68   A    
C75   C80   S    
C61   C78   A    
C4    C74   S    
C35   H13   S    
C33   C69   A    
C20   N57   S    
C47   C53   A    
C5    C85   S    
N4    Ni5   S    
N8    Ni7   S    
N26   N56   A    
H49   N31   S    
C29   C64   A    
N12   Ni2   S    
H47   N30   S    
C40   C66   A    
N2    Ni6   S    
C39   C65   A    
N19   N34   A    
N3    N11   A    
C75   N40   S    
C43   N17   A    
C33   H12   S    
C3    N47   S    
N2    N10   A    
C36   C62   A    
C89   N44   S    
C37   C63   A    
C52   H31   S    
H80   N47   S    
C38   C64   A    
N12   N21   A    
N25   N45   A    
N9    Ni2   S    
C11   C20   D    
C39   H18   S    
C7    C87   S    
C45   C58   A    
H44   N28   S    
C68   C95   S    
C6    C84   S    
C6    N50   S    
C46   H24   S    
C78   H83   S    
C86   N33   S    
C5    N49   S    
H74   N43   S    
C2    C94   S    
C19   C22   S    
C44   N18   A    
C12   N12   A    
H101  N57   S    
C69   C94   S    
C1    H1    S    
C50   H29   S    
C39   N13   A    
N34   Ni1   S    
C16   C58   S    
H62   N37   S    
C44   H23   S    
C36   N9    A    
C6    C90   S    
C36   H14   S    
N13   Ni2   S    
C42   C69   A    
C82   C91   S    
C77   N42   S    
C29   H8    S    
C7    N51   S    
H43   N28   S    
N19   Ni5   S    
C83   N30   S    
H88   N50   S    
C74   C91   S    
C5    C75   S    
C48   C54   A    
N62   Ni4   S    
N16   Ni3   S    
H68   N40   S    
C56   H61   S    
C52   C59   A    
C76   C93   S    
C21   N55   S    
C25   N61   S    
C85   C94   S    
N22   N62   A    
N7    Ni8   S    
C71   C89   S    
H3    N59   S    
C10   C19   D    
N17   Ni4   S    
C7    C91   S    
C87   C96   S    
C10   C57   S    
C15   C61   S    
H6    N61   S    
C13   C21   D    
C70   C93   S    
C51   C58   A    
H95   N53   S    
C71   N36   S    
C22   N59   S    
C6    C76   S    
N20   Ni5   S    
H90   N51   S    
H91   N52   S    
C17   C59   S    
C9    C55   S    
C81   C90   S    
H84   N48   S    
C52   N26   A    
C15   C24   D    
C14   H37   S    
C82   N29   S    
C23   N23   A    
N5    N14   A    
C43   C70   A    
H96   N54   S    
C35   C70   A    
C46   C57   A    
C3    C83   S    
C38   N11   A    
C31   H10   S    
H82   N48   S    
C8    N52   S    
H69   N41   S    
C41   H20   S    
C32   N6    A    
C34   N34   A    
H102  N58   S    
C67   N62   A    
C30   N4    A    
H78   N46   S    
H104  N59   S    
C66   C96   S    
C12   H17   S    
C2    C72   S    
C28   H2    S    
N8    N17   A    
C50   C61   A    
C21   C25   S    
C33   N7    A    
C46   N19   A    
H7    N61   S    
H75   N43   S    
H53   N32   S    
C73   C92   S    
N15   Ni3   S    
C51   H30   S    
C11   H35   S    
C76   C81   S    
C3    C95   S    
C42   H21   S    
C23   C55   A    
C23   H28   S    
H65   N39   S    
C27   C62   A    
C9    H33   S    
H60   N37   S    
N10   Ni1   S    
H54   N33   S    
C14   C60   S    
C47   N20   A    
C13   C54   S    
C77   C96   S    
C45   H50   S    
C56   C59   A    
C7    C77   S    
C72   C88   S    
H71   N42   S    
C28   N2    A    
H97   N54   S    
C14   C22   D    
C56   N56   A    
C76   N41   S    
C2    N46   S    
H87   N50   S    
C81   C89   S    
N22   Ni8   S    
C80   C88   S    
H85   N49   S    
N56   Ni4   S    
N24   Ni7   S    
C79   C83   S    
H66   N39   S    
C44   C55   A    
H81   N47   S    
C71   C90   S    
C20   C26   S    
C77   C82   S    
C34   C57   A    
C27   N64   A    
N4    N13   A    
N24   N63   A    
N7    N16   A    
H63   N38   S    
C11   C53   S    
C8    C86   S    
C84   C93   S    
N1    Ni1   S    
C80   N27   S    
C89   C93   S    
H100  N57   S    
C3    C73   S    
C37   N10   A    
C37   H15   S    
C30   C65   A    
C42   N16   A    
C86   C95   S    
N21   Ni6   S    
C43   H22   S    
H42   N27   S    
C28   C63   A    
C35   N8    A    
C73   N38   S    
C4    C82   S    
C63   C91   S    
H76   N44   S    
C49   H27   S    
H41   N27   S    
C16   C25   D    
C40   N14   A    
C17   H38   S    
N14   Ni4   S    
H70   N41   S    
C72   N37   S    
H93   N53   S    
C73   C86   S    
C79   C95   S    
C38   H16   S    
C45   N45   A    
C31   N5    A    
C12   C54   A    
H67   N40   S    
C75   C94   S    
H103  N58   S    
C16   H40   S    
