data_mof_unit_11113.cif
_audit_creation_date              2012-10-26T18:27:57-0400
_audit_creation_method            fapswitch 2.2
_symmetry_space_group_name_H-M    P1
_symmetry_Int_Tables_number       1
_space_group_crystal_system       triclinic
_cell_length_a                    15.868585
_cell_length_b                    10.929383
_cell_length_c                    9.926868
_cell_angle_alpha                 110.797004
_cell_angle_beta                  98.116859
_cell_angle_gamma                 93.281187
_cell_volume                      1582.59677512

loop_
_atom_site_label
_atom_site_type_symbol
_atom_type_description
_atom_site_fract_x
_atom_site_fract_y
_atom_site_fract_z
_atom_type_partial_charge
C1    C     C_R   0.491783 0.253493 0.440998 0.538700
C2    C     C_2   0.469232 0.069583 0.518555 -0.154818
C3    C     C_2   0.498719 0.885768 0.588891 -0.093907
C4    C     C_R   0.340507 0.499096 0.500579 0.563631
C5    C     C_2   0.452501 0.929651 0.494049 0.024976
C6    C     C_2   0.509435 0.515797 0.083002 0.349525
C7    C     C_2   0.487705 0.498732 0.924220 0.024859
C8    C     C_R   0.501688 0.745625 0.558903 0.606463
C9    C     C_R   0.659374 0.499459 0.499070 0.593918
C10   C     C_3   0.057921 0.448869 0.615481 -0.264577
C11   C     C_3   0.032465 0.394436 0.343930 0.125354
C12   C     C_3   0.963271 0.468137 0.630859 0.123361
C13   C     C_3   0.933634 0.389881 0.345441 0.095242
C14   C     C_1   0.748513 0.497950 0.496462 0.157597
C15   C     C_3   0.082550 0.494724 0.493560 -0.080569
C16   C     C_2   0.380155 0.846072 0.378234 0.627775
C17   C     C_3   0.915752 0.492990 0.494125 -0.053483
C18   C     C_3   0.956730 0.630444 0.499752 0.013070
C19   C     C_3   0.055940 0.635025 0.521729 -0.213104
C20   C     C_1   0.823736 0.495757 0.494453 0.131947
C21   C     C_1   0.175281 0.497079 0.499319 0.012802
C22   C     C_1   0.251042 0.498418 0.501665 0.058997
C23   C     C_2   0.478558 0.112352 0.409949 -0.074991
Cu1   Cu    Cu3+1 0.514650 0.521810 0.644910 1.038966
Cu2   Cu    Cu3+1 0.485350 0.478190 0.355090 1.112721
H1    H     H_    0.100030 0.505861 0.722250 0.141876
H2    H     H_    0.412175 0.381416 0.067277 0.183726
H3    H     H_    0.053134 0.296039 0.331691 0.181805
H4    H     H_    0.902541 0.420915 0.256971 0.177696
H5    H     H_    0.085129 0.700303 0.635300 0.150175
H6    H     H_    0.081561 0.678293 0.447825 0.206527
H7    H     H_    0.866489 0.363008 0.891678 0.403935
H8    H     H_    0.282084 0.700970 0.318283 0.367131
H9    H     H_    0.649949 0.814470 0.153574 0.380302
H10   H     H_    0.050390 0.293012 0.960749 0.401284
H11   H     H_    0.759415 0.122545 0.270437 0.386615
H12   H     H_    0.966169 0.560424 0.725936 0.196934
H13   H     H_    0.002556 0.811047 0.836906 0.355327
H14   H     H_    0.935347 0.638019 0.391615 0.187959
H15   H     H_    0.477414 0.138583 0.631084 0.144862
H16   H     H_    0.542110 0.954524 0.683950 0.115398
H17   H     H_    0.474112 0.044222 0.298062 0.180651
H18   H     H_    0.428448 0.439976 0.859406 0.106232
H19   H     H_    0.597884 0.595462 0.912179 0.298118
H20   H     H_    0.068878 0.343959 0.588034 0.195319
N1    N     N_2   0.463320 0.445430 0.137380 -0.362619
N2    N     N_2   0.536720 0.554500 0.862620 -0.321975
O1    O     O_R   0.507820 0.332330 0.577400 -0.507671
O2    O     O_2   0.967189 0.241225 0.690005 -0.205954
O3    O     O_3   0.898553 0.429180 0.865223 -0.453873
O4    O     O_2   0.362092 0.865004 0.263942 -0.493330
O5    O     O_R   0.329901 0.749782 0.403534 -0.685715
O6    O     O_2   0.625527 0.690686 0.344587 -0.222590
O7    O     O_2   0.680002 0.574935 0.125341 -0.292897
O8    O     O_3   0.591263 0.769003 0.134995 -0.538246
O9    O     O_2   0.021690 0.545242 0.174346 -0.255533
O10   O     O_2   0.153240 0.440797 0.191372 -0.297457
O11   O     O_3   0.014645 0.293387 0.034951 -0.429601
O12   O     O_R   0.483070 0.295500 0.332660 -0.495531
O13   O     O_2   0.893816 0.148992 0.134694 -0.182096
O14   O     O_2   0.929198 0.154367 0.383935 -0.191993
O15   O     O_3   0.779927 0.217264 0.300566 -0.501909
O16   O     O_2   0.974514 0.896151 0.621942 -0.198015
O17   O     O_2   0.830805 0.785087 0.582004 -0.192418
O18   O     O_3   0.940423 0.783405 0.800741 -0.463895
O19   O     O_R   0.391820 0.518430 0.622420 -0.514399
O20   O     O_R   0.367070 0.481600 0.377680 -0.464960
O21   O     O_R   0.516930 0.704500 0.667340 -0.481480
O22   O     O_R   0.492180 0.667670 0.422600 -0.421480
O23   O     O_R   0.632930 0.518400 0.622320 -0.487721
O24   O     O_R   0.608180 0.481570 0.377580 -0.437393
O25   O     O_2   0.825636 0.287844 0.601304 -0.211781
S1    S     S_3+6 0.912002 0.348913 0.691899 0.084701
S2    S     S_3+6 0.603207 0.636136 0.181514 0.065650
S3    S     S_3+6 0.057899 0.424317 0.185093 0.011089
S4    S     S_3+6 0.884931 0.222051 0.290928 0.074363
S5    S     S_3+6 0.924219 0.777623 0.627362 0.050401

loop_
_geom_bond_atom_site_label_1
_geom_bond_atom_site_label_2
_ccdc_geom_bond_type
C12   C17   S    
C4    O20   A    
C4    O19   A    
C9    C14   S    
C16   O4    D    
C1    O1    A    
C8    O21   A    
C6    C7    S    
Cu2   O24   S    
C7    H18   S    
C4    C22   S    
O17   S5    D    
C13   S4    S    
O6    S2    D    
Cu2   O20   S    
H19   N2    S    
C13   C17   S    
C18   H14   S    
C19   H6    S    
Cu2   O12   S    
O10   S3    D    
C10   H20   S    
C17   C18   S    
Cu1   O23   S    
H9    O8    S    
O8    S2    S    
O9    S3    D    
C11   S3    S    
C21   C22   T    
Cu1   Cu2   S    
H8    O5    S    
C15   C19   S    
C11   C13   S    
O7    S2    D    
H7    O3    S    
C8    O22   A    
C19   H5    S    
C23   H17   S    
C10   C12   S    
H13   O18   S    
C18   S5    S    
H11   O15   S    
C11   H3    S    
H2    N1    S    
C13   H4    S    
O13   S4    D    
O11   S3    S    
C6    S2    S    
C1    C23   S    
C11   C15   S    
C10   C15   S    
C1    O12   A    
O14   S4    D    
C6    N1    D    
O2    S1    D    
C3    C8    S    
C2    C5    S    
Cu2   O22   S    
Cu1   O21   S    
Cu1   O1    S    
C2    H15   S    
C15   C21   S    
C17   C20   S    
O18   S5    S    
C9    O23   A    
C14   C20   T    
C16   O5    S    
C18   C19   S    
O16   S5    D    
O3    S1    S    
C2    C23   D    
C3    H16   S    
C5    C16   S    
H10   O11   S    
O15   S4    S    
C12   S1    S    
Cu1   N2    S    
Cu1   O19   S    
Cu2   N1    S    
C12   H12   S    
C10   H1    S    
C9    O24   A    
O25   S1    D    
C3    C5    D    
C7    N2    D    
