data_mof_unit_27339.cif
_audit_creation_date              2012-12-11T15:18:32-0500
_audit_creation_method            fapswitch 2.2
_symmetry_space_group_name_H-M    P1
_symmetry_Int_Tables_number       1
_space_group_crystal_system       triclinic
_cell_length_a                    6.928413
_cell_length_b                    19.898506
_cell_length_c                    23.745806
_cell_angle_alpha                 93.245838
_cell_angle_beta                  91.550382
_cell_angle_gamma                 88.851444
_cell_volume                      3266.70674183

loop_
_atom_site_label
_atom_site_type_symbol
_atom_type_description
_atom_site_fract_x
_atom_site_fract_y
_atom_site_fract_z
_atom_type_partial_charge
O1    O     O_R   0.620100 0.812200 0.810870 -0.542155
O2    O     O_R   0.379900 0.187800 0.189130 -0.542154
O3    O     O_R   0.296960 0.671650 0.794750 -0.541604
O4    O     O_R   0.703040 0.328350 0.205250 -0.541605
O5    O     O_R   0.120160 0.687800 0.689130 -0.541754
O6    O     O_R   0.879840 0.312200 0.310870 -0.541753
C1    C     C_R   0.469099 0.646673 0.804528 0.708306
C2    C     C_R   0.530901 0.353327 0.195472 0.708304
O7    O     O_R   0.290810 0.810670 0.817290 -0.538787
O8    O     O_R   0.709190 0.189330 0.182710 -0.538783
O9    O     O_R   0.113980 0.827820 0.711840 -0.527812
O10   O     O_R   0.886020 0.172180 0.288160 -0.527811
C3    C     C_R   0.460036 0.831841 0.834348 0.726773
C4    C     C_R   0.539964 0.168158 0.165652 0.726775
O11   O     O_R   0.626290 0.672180 0.788160 -0.540015
O12   O     O_R   0.373710 0.327820 0.211840 -0.540016
O13   O     O_3   0.451520 0.755460 0.715370 -0.354381
O14   O     O_3   0.548480 0.244540 0.284630 -0.354383
V1    V     V_3+5 0.179200 0.748980 0.756420 1.491872
V2    V     V_3+5 0.820800 0.251020 0.243580 1.491879
O15   O     O_R   0.783880 0.828350 0.705250 -0.528956
O16   O     O_R   0.216120 0.171650 0.294750 -0.528957
C5    C     C_R   0.950527 0.852689 0.694490 0.783425
C6    C     C_R   0.049472 0.147311 0.305510 0.783426
O17   O     O_R   0.790030 0.689320 0.682700 -0.523751
O18   O     O_R   0.209970 0.310680 0.317300 -0.523754
C7    C     C_R   0.958079 0.670043 0.664419 0.734901
C8    C     C_R   0.041921 0.329957 0.335581 0.734899
V3    V     V_3+5 0.678400 0.751010 0.743570 1.519111
V4    V     V_3+5 0.321600 0.248990 0.256430 1.519108
O19   O     O_3   0.955950 0.744540 0.784620 -0.376914
O20   O     O_3   0.044050 0.255460 0.215380 -0.376911
C9    C     C_R   0.878099 0.424108 0.389120 -0.153661
C10   C     C_R   0.121903 0.575895 0.610878 -0.153656
C11   C     C_R   0.033717 0.377958 0.385933 -0.121466
C12   C     C_R   0.966284 0.622044 0.614066 -0.121463
C13   C     C_R   0.175934 0.378834 0.430134 0.144988
C14   C     C_R   0.824071 0.621170 0.569863 0.144996
C15   C     C_R   0.164871 0.428919 0.475068 0.052962
C16   C     C_R   0.835137 0.571086 0.524929 0.052968
C17   C     C_R   0.006685 0.475290 0.477279 0.014601
C18   C     C_R   0.993319 0.524713 0.522719 0.014601
C19   C     C_R   0.861382 0.472183 0.434318 0.055677
C20   C     C_R   0.138624 0.527821 0.565679 0.055682
C21   C     C_R   0.308816 0.433968 0.517966 -0.141488
C22   C     C_R   0.691201 0.566043 0.482026 -0.141484
C23   C     C_R   0.297024 0.482313 0.562650 0.260832
C24   C     C_R   0.702990 0.517695 0.437344 0.260825
H1    H     H_    0.770405 0.422571 0.355267 0.179637
H2    H     H_    0.229596 0.577431 0.644731 0.179638
H3    H     H_    0.434435 0.401043 0.517402 0.195596
H4    H     H_    0.565593 0.598975 0.482584 0.195601
C25   C     C_R   0.954708 0.915531 0.663902 -0.140539
C26   C     C_R   0.045291 0.084469 0.336097 -0.140539
C27   C     C_R   0.962155 0.038057 0.664543 0.196341
C28   C     C_R   0.037843 0.961943 0.335456 0.196342
C29   C     C_R   0.959229 0.978342 0.693827 0.209528
C30   C     C_R   0.040769 0.021657 0.306172 0.209525
C31   C     C_R   0.971054 0.912345 0.605051 -0.232619
C32   C     C_R   0.028946 0.087654 0.394949 -0.232619
C33   C     C_R   0.977622 0.971659 0.574507 0.051532
C34   C     C_R   0.022376 0.028340 0.425493 0.051531
C35   C     C_R   0.948063 0.034827 0.604543 -0.046347
C36   C     C_R   0.051934 0.965172 0.395456 -0.046346
C37   C     C_R   0.009287 0.969963 0.514912 0.045599
C38   C     C_R   0.990711 0.030036 0.485087 0.045599
C39   C     C_R   0.927929 0.089113 0.514987 -0.184796
C40   C     C_R   0.072068 0.910887 0.485013 -0.184796
C41   C     C_R   0.903720 0.091833 0.573166 0.190466
C42   C     C_R   0.096275 0.908166 0.426833 0.190466
H5    H     H_    0.027150 0.137157 0.416088 0.135050
H6    H     H_    0.972851 0.862842 0.583912 0.135050
H7    H     H_    0.885153 0.133417 0.493288 0.154564
H8    H     H_    0.114842 0.866582 0.506711 0.154564
C43   C     C_R   0.495713 0.584780 0.835645 -0.093996
C44   C     C_R   0.504286 0.415221 0.164356 -0.093998
C45   C     C_R   0.675955 0.479523 0.842618 0.230986
C46   C     C_R   0.324044 0.520477 0.157384 0.230984
C47   C     C_R   0.605022 0.531997 0.811062 -0.175451
C48   C     C_R   0.394978 0.468002 0.188939 -0.175446
C49   C     C_R   0.440791 0.581728 0.891751 -0.180710
C50   C     C_R   0.559209 0.418274 0.108251 -0.180714
C51   C     C_R   0.509138 0.528634 0.925375 0.060732
C52   C     C_R   0.490865 0.471370 0.074627 0.060732
C53   C     C_R   0.645835 0.481059 0.901707 -0.000001
C54   C     C_R   0.354167 0.518943 0.098295 -0.000003
C55   C     C_R   0.453094 0.523695 0.982637 0.046812
C56   C     C_R   0.546913 0.476309 0.017366 0.046812
C57   C     C_R   0.701294 0.437640 0.994829 -0.170810
C58   C     C_R   0.298717 0.562365 0.005173 -0.170807
C59   C     C_R   0.751591 0.439631 0.938576 0.276140
C60   C     C_R   0.248415 0.560373 0.061427 0.276139
H9    H     H_    0.641114 0.375864 0.090500 0.110894
H10   H     H_    0.358884 0.624139 0.909501 0.110890
H11   H     H_    0.361492 0.467650 0.233258 0.160827
H12   H     H_    0.638506 0.532348 0.766743 0.160827
H13   H     H_    0.793148 0.407556 0.021292 0.155726
H14   H     H_    0.206869 0.592452 0.978711 0.155724
C61   C     C_R   0.365224 0.078038 0.107390 -0.171446
C62   C     C_R   0.634823 0.921950 0.892618 -0.171436
C63   C     C_R   0.528237 0.118885 0.116170 -0.078666
C64   C     C_R   0.471762 0.881115 0.883830 -0.078636
C65   C     C_R   0.679621 0.111956 0.077697 -0.182348
C66   C     C_R   0.320337 0.888055 0.922296 -0.182346
C67   C     C_R   0.668111 0.065408 0.030930 0.090914
C68   C     C_R   0.331866 0.934598 0.969067 0.090907
C69   C     C_R   0.505618 0.023852 0.023214 0.061833
C70   C     C_R   0.494373 0.976151 0.976785 0.061831
C71   C     C_R   0.354254 0.029955 0.061816 0.084155
C72   C     C_R   0.645768 0.970040 0.938188 0.084170
C73   C     C_R   0.816164 0.059637 0.991653 -0.170286
C74   C     C_R   0.183832 0.940365 0.008347 -0.170327
C75   C     C_R   0.805265 0.012333 0.945770 -0.146360
C76   C     C_R   0.194770 0.987659 0.054235 -0.146362
H15   H     H_    0.247653 0.083060 0.136509 0.168966
H16   H     H_    0.752448 0.916914 0.863508 0.168938
H17   H     H_    0.805395 0.143365 0.083722 0.128526
H18   H     H_    0.194530 0.856655 0.916266 0.128517
H19   H     H_    0.941422 0.091385 0.996651 0.146063
H20   H     H_    0.058576 0.908616 0.003349 0.146066
H21   H     H_    0.922456 0.008557 0.916379 0.175266
H22   H     H_    0.077616 0.991425 0.083632 0.175290
Br1   Br    Br    0.996788 0.397105 0.921613 -0.478470
Br2   Br    Br    0.003210 0.602900 0.078387 -0.478467
I1    I     I_    0.791786 0.397004 0.792317 -0.120992
I2    I     I_    0.208195 0.602993 0.207687 -0.120985
I3    I     I_    0.394866 0.300548 0.432614 -0.362930
I4    I     I_    0.605135 0.699454 0.567386 -0.362934
Br3   Br    Br    0.504860 0.483180 0.618164 -0.526009
Br4   Br    Br    0.495166 0.516834 0.381825 -0.525996
I5    I     I_    0.737260 0.177159 0.603467 -0.204192
I6    I     I_    0.262733 0.822839 0.396532 -0.204194
Br5   Br    Br    0.033301 0.018436 0.224713 -0.535333
Br6   Br    Br    0.966699 0.981565 0.775285 -0.535315
I7    I     I_    0.053804 0.127582 0.711593 -0.114580
I8    I     I_    0.946192 0.872419 0.288405 -0.114584

loop_
_geom_bond_atom_site_label_1
_geom_bond_atom_site_label_2
_ccdc_geom_bond_type
C51   C55   A    
C55   C56   A    
C62   C72   A    
C26   C32   A    
C69   C71   A    
C17   C18   A    
C62   H16   S    
O4    C2    A    
V1    O19   S    
C74   C76   A    
C25   C31   A    
C15   C17   A    
C68   C74   A    
C16   C22   A    
C67   C69   A    
O9    V1    S    
C43   C47   A    
C23   Br3   S    
C32   C34   A    
C11   C13   A    
C52   C54   A    
O3    C1    A    
C60   Br2   S    
C61   H15   S    
C9    C11   A    
C46   C48   A    
C21   H3    S    
C40   H8    S    
C61   C71   A    
C22   H4    S    
C2    C44   S    
O13   V3    S    
C73   H19   S    
C33   C35   A    
O7    C3    A    
C34   C36   A    
C28   I8    S    
O5    C7    A    
O7    V1    S    
O6    C8    A    
C35   C41   A    
C8    C11   S    
O8    V2    S    
C27   C35   A    
C69   C70   A    
C28   C36   A    
O3    V1    S    
C39   H7    S    
C36   C42   A    
C28   C30   A    
C57   C59   A    
C19   C24   A    
C10   C12   A    
C20   C23   A    
C31   H6    S    
C15   C21   A    
C46   C54   A    
C16   C18   A    
C38   C39   A    
C67   C73   A    
C45   C53   A    
C2    O12   A    
C50   H9    S    
C59   Br1   S    
C17   C19   A    
C24   Br4   S    
C65   H17   S    
C18   C20   A    
O1    V3    S    
C49   C51   A    
V2    O20   S    
O11   V3    S    
C66   H18   S    
C21   C23   A    
C30   Br5   S    
O17   V3    S    
C13   C15   A    
C22   C24   A    
C10   H2    S    
C31   C33   A    
C34   C38   A    
C9    C19   A    
C44   C48   A    
C10   C20   A    
C73   C75   A    
O8    C4    A    
C44   C50   A    
C74   H20   S    
C25   C29   A    
C43   C49   A    
C4    C63   S    
C1    C43   S    
C1    O11   A    
C32   H5    S    
O15   V3    S    
C57   H13   S    
C39   C41   A    
O4    V2    S    
V4    O20   S    
C58   C60   A    
C41   I5    S    
C37   C40   A    
O10   V2    S    
C42   I6    S    
C45   C47   A    
C65   C67   A    
C48   H11   S    
C64   C66   A    
C72   C75   A    
C71   C76   A    
O14   V4    S    
C40   C42   A    
C51   C53   A    
O18   V4    S    
C50   C52   A    
C27   C29   A    
O16   C6    A    
C29   Br6   S    
C55   C58   A    
O1    C3    A    
O12   V4    S    
C12   C14   A    
C53   C59   A    
C45   I1    S    
C62   C64   A    
C26   C30   A    
O16   V4    S    
C61   C63   A    
C52   C56   A    
C14   I4    S    
C66   C68   A    
O5    V1    S    
C7    C12   S    
O17   C7    A    
O6    V2    S    
O10   C6    A    
O18   C8    A    
O2    V4    S    
O15   C5    A    
C47   H12   S    
V3    O19   S    
C54   C60   A    
C14   C16   A    
C49   H10   S    
C68   C70   A    
C27   I7    S    
C5    C25   S    
O9    C5    A    
O13   V1    S    
C70   C72   A    
O14   V2    S    
O2    C4    A    
C76   H22   S    
C33   C37   A    
C75   H21   S    
C56   C57   A    
C63   C65   A    
C37   C38   A    
C9    H1    S    
C3    C64   S    
C6    C26   S    
C58   H14   S    
C13   I3    S    
C46   I2    S    
