data_mof_unit_26374.cif
_audit_creation_date              2012-10-26T19:09:29-0400
_audit_creation_method            fapswitch 2.2
_symmetry_space_group_name_H-M    P1
_symmetry_Int_Tables_number       1
_space_group_crystal_system       triclinic
_cell_length_a                    10.918519
_cell_length_b                    9.48714
_cell_length_c                    19.363516
_cell_angle_alpha                 89.978776
_cell_angle_beta                  90.230456
_cell_angle_gamma                 89.920255
_cell_volume                      2005.76153237

loop_
_atom_site_label
_atom_site_type_symbol
_atom_type_description
_atom_site_fract_x
_atom_site_fract_y
_atom_site_fract_z
_atom_type_partial_charge
C1    C     C_R   0.262085 0.500160 0.499485 0.577068
C2    C     C_R   0.063838 0.627457 0.510451 0.205541
C3    C     C_R   0.872053 0.500162 0.500324 -0.068080
C4    C     C_R   0.128397 0.500650 0.499054 -0.071279
C5    C     C_R   0.435417 0.074647 0.451335 0.035338
C6    C     C_R   0.565110 0.925350 0.548478 0.012512
C7    C     C_R   0.564483 0.074362 0.548716 0.014921
C8    C     C_R   0.434840 0.925636 0.451543 0.027792
C9    C     C_R   0.500099 0.627737 0.254804 -0.138254
C10   C     C_R   0.501073 0.372269 0.745201 -0.137454
C11   C     C_R   0.497987 0.627692 0.745138 -0.139304
C12   C     C_R   0.738077 0.499969 0.500293 0.584357
C13   C     C_R   0.496876 0.372326 0.254852 -0.138308
C14   C     C_R   0.499547 0.627744 0.182853 -0.121707
C15   C     C_R   0.500568 0.372265 0.817150 -0.121722
C16   C     C_R   0.497526 0.627709 0.817087 -0.122180
C17   C     C_R   0.496367 0.372313 0.182902 -0.122151
C18   C     C_R   0.497800 0.500025 0.146169 0.034308
C19   C     C_R   0.498776 0.499990 0.853826 0.034357
C20   C     C_R   0.498914 0.500031 0.291421 0.014366
C21   C     C_R   0.499737 0.499976 0.708578 0.014109
C22   C     C_3   0.122546 0.227867 0.401188 -0.086630
C23   C     C_R   0.498292 0.499998 0.929944 0.344755
C24   C     C_3   0.874423 0.823164 0.446340 -0.070061
C25   C     C_3   0.885036 0.176065 0.555054 -0.078669
C26   C     C_3   0.131241 0.777393 0.593524 -0.071828
C27   C     C_R   0.497735 0.500016 0.070049 0.344754
C28   C     C_R   0.499657 0.500016 0.367346 0.533915
C29   C     C_R   0.500002 0.499985 0.632653 0.533517
C30   C     C_R   0.063892 0.374138 0.487560 0.206532
C31   C     C_R   0.936519 0.628846 0.505478 0.206432
C32   C     C_R   0.937013 0.371914 0.494655 0.206915
Cu1   Cu    Cu3+1 0.500000 0.640660 0.500000 0.961241
Cu2   Cu    Cu3+1 0.500000 0.359340 0.500000 0.973639
H1    H     H_    0.501565 0.727839 0.281676 0.121561
H2    H     H_    0.617603 0.868967 0.587121 0.124025
H3    H     H_    0.615729 0.130579 0.587827 0.099181
H4    H     H_    0.382462 0.869478 0.412851 0.114948
H5    H     H_    0.164400 0.123883 0.389913 0.119773
H6    H     H_    0.177419 0.309954 0.374341 0.101162
H7    H     H_    0.027540 0.225509 0.380134 0.142833
H8    H     H_    0.814691 0.917601 0.449302 0.150992
H9    H     H_    0.835852 0.753475 0.405390 0.104652
H10   H     H_    0.967629 0.859242 0.431712 0.158790
H11   H     H_    0.834994 0.074687 0.552137 0.138601
H12   H     H_    0.502529 0.272161 0.718336 0.122852
H13   H     H_    0.841780 0.240607 0.596361 0.093251
H14   H     H_    0.981496 0.150914 0.569099 0.160953
H15   H     H_    0.183493 0.875915 0.602593 0.141858
H16   H     H_    0.180778 0.690486 0.620459 0.105816
H17   H     H_    0.038573 0.791906 0.616162 0.135900
H18   H     H_    0.496891 0.727799 0.718225 0.121917
H19   H     H_    0.495678 0.272225 0.281761 0.121876
H20   H     H_    0.500655 0.727956 0.156086 0.136228
H21   H     H_    0.501643 0.272050 0.843923 0.136213
H22   H     H_    0.496115 0.727930 0.843808 0.136205
H23   H     H_    0.494880 0.272099 0.156174 0.136141
H24   H     H_    0.384424 0.131132 0.412191 0.106716
N1    N     N_R   0.500000 0.852070 0.500000 -0.226857
N2    N     N_R   0.500000 0.147930 0.500000 -0.217780
N3    N     N_R   0.497817 0.376927 0.034360 -0.230770
N4    N     N_R   0.498142 0.623087 0.965633 -0.230805
N5    N     N_R   0.498097 0.376919 0.965685 -0.230739
N6    N     N_R   0.497889 0.623095 0.034308 -0.230771
O1    O     O_R   0.319640 0.618740 0.500000 -0.460279
O2    O     O_3   0.875598 0.756361 0.511505 -0.546400
O3    O     O_3   0.876829 0.243825 0.490266 -0.533312
O4    O     O_3   0.124489 0.753464 0.521731 -0.528364
O5    O     O_R   0.680360 0.381260 0.500000 -0.458376
O6    O     O_R   0.680360 0.618740 0.500000 -0.463669
O7    O     O_R   0.319640 0.381260 0.500000 -0.456422
O8    O     O_R   0.499980 0.618820 0.400140 -0.521190
O9    O     O_R   0.500020 0.381180 0.599860 -0.517795
O10   O     O_R   0.500020 0.618820 0.599860 -0.516977
O11   O     O_R   0.499980 0.381180 0.400140 -0.515610
O12   O     O_3   0.124276 0.249160 0.473285 -0.525069

loop_
_geom_bond_atom_site_label_1
_geom_bond_atom_site_label_2
_ccdc_geom_bond_type
C31   O2    S    
C12   O5    A    
C24   H8    S    
C14   C18   A    
C19   C23   S    
C25   O3    S    
C22   O12   S    
Cu1   O1    S    
C15   C19   A    
C1    O7    A    
C5    H24   S    
C2    O4    S    
C10   C15   A    
C26   H16   S    
C8    N1    A    
C22   H7    S    
C29   O9    A    
N3    N5    A    
N4    N6    A    
C3    C12   S    
C27   N3    A    
Cu1   O8    S    
C23   N4    A    
C10   H12   S    
C1    O1    A    
C11   H18   S    
C25   H13   S    
C13   C20   A    
C24   O2    S    
Cu2   O11   S    
C23   N5    A    
Cu1   N1    S    
Cu2   N2    S    
C28   O8    A    
C8    H4    S    
Cu1   Cu2   S    
C13   H19   S    
C10   C21   A    
C26   H15   S    
C29   O10   A    
C20   C28   S    
C21   C29   S    
C11   C21   A    
C2    C31   A    
C15   H21   S    
C2    C4    A    
C9    C14   A    
C16   H22   S    
C30   O12   S    
C11   C16   A    
C9    C20   A    
Cu2   O5    S    
C22   H6    S    
C17   C18   A    
C7    H3    S    
C3    C31   A    
C25   H14   S    
Cu1   O6    S    
C32   O3    S    
C14   H20   S    
C24   H10   S    
C25   H11   S    
C7    N2    A    
C12   O6    A    
C5    N2    A    
C6    N1    A    
C18   C27   S    
C5    C8    A    
C6    C7    A    
C13   C17   A    
C1    C4    S    
C26   O4    S    
C26   H17   S    
C30   C32   A    
C16   C19   A    
C22   H5    S    
C6    H2    S    
C3    C32   A    
C27   N6    A    
Cu2   O9    S    
Cu1   O10   S    
C9    H1    S    
C24   H9    S    
C28   O11   A    
Cu2   O7    S    
C4    C30   A    
C17   H23   S    
