data_mof_unit_38076.cif
_audit_creation_date              2013-03-05T16:05:40-0500
_audit_creation_method            fapswitch 2.2
_symmetry_space_group_name_H-M    P1
_symmetry_Int_Tables_number       1
_space_group_crystal_system       triclinic
_cell_length_a                    10.649911
_cell_length_b                    15.031087
_cell_length_c                    15.307901
_cell_angle_alpha                 80.976331
_cell_angle_beta                  91.095921
_cell_angle_gamma                 103.00364
_cell_volume                      2357.76089759

loop_
_atom_site_label
_atom_site_type_symbol
_atom_site_description
_atom_site_fract_x
_atom_site_fract_y
_atom_site_fract_z
_atom_type_partial_charge
O1    O     O_R   0.462770 0.383110 0.605620 -0.520980
O2    O     O_R   0.510160 0.531900 0.639510 -0.602111
C1    C     C_R   0.474786 0.441582 0.662250 1.012933
O3    O     O_R   0.661510 0.425600 0.483070 -0.581459
O4    O     O_R   0.708900 0.574390 0.516960 -0.617312
C2    C     C_R   0.741437 0.499993 0.499125 0.905731
Zn1   Zn    Zn3+2 0.468350 0.400660 0.477370 1.049726
Zn2   Zn    Zn3+2 0.531650 0.599340 0.522630 1.083127
O5    O     O_R   0.489840 0.468100 0.360490 -0.643557
O6    O     O_R   0.537230 0.616890 0.394380 -0.529182
O7    O     O_R   0.291100 0.425610 0.483040 -0.624832
O8    O     O_R   0.338490 0.574400 0.516930 -0.556682
C3    C     C_R   0.518934 0.558798 0.337436 0.917690
C4    C     C_R   0.258412 0.500003 0.499396 0.911230
C5    C     C_3   0.901663 0.417313 0.454420 -0.335224
H1    H     H_    0.876167 0.428098 0.383226 0.204732
H2    H     H_    0.841279 0.349469 0.484158 0.264773
C6    C     C_3   0.042978 0.413057 0.462444 -0.393579
H3    H     H_    0.051129 0.348912 0.507561 0.242637
H4    H     H_    0.080767 0.408185 0.396470 0.230838
H5    H     H_    0.913250 0.598823 0.376375 0.251022
C7    C     C_3   0.953484 0.589576 0.443996 -0.441286
C8    C     C_3   0.926702 0.490447 0.596123 0.093889
C9    C     C_3   0.877681 0.498448 0.499065 -0.114208
H6    H     H_    0.908134 0.550524 0.624123 0.185385
C10   C     C_3   0.121318 0.499784 0.499072 -0.099151
C11   C     C_3   0.096873 0.588096 0.439618 0.269100
C12   C     C_3   0.073499 0.495477 0.595939 0.059687
H7    H     H_    0.095174 0.433072 0.637226 0.192318
H8    H     H_    0.943274 0.650029 0.474805 0.219218
H9    H     H_    0.151732 0.649875 0.464752 0.239142
C13   C     C_R   0.429398 0.407492 0.754060 -0.261836
C14   C     C_R   0.521528 0.596649 0.242983 -0.155715
C15   C     C_R   0.267229 0.314028 0.861712 0.369324
C16   C     C_R   0.320816 0.333333 0.775689 0.293958
C17   C     C_R   0.478838 0.463054 0.817552 0.299624
C18   C     C_R   0.407004 0.456993 0.894923 -0.044133
C19   C     C_R   0.310209 0.376179 0.921849 -0.074271
C20   C     C_R   0.432919 0.527326 0.948284 0.122281
C21   C     C_R   0.395490 0.505167 0.038201 0.073688
C22   C     C_R   0.305458 0.421453 0.066793 -0.184228
C23   C     C_R   0.259229 0.360046 0.008204 -0.030089
C24   C     C_R   0.489544 0.620045 0.913442 -0.089731
C25   C     C_R   0.530938 0.685014 0.969147 -0.126351
C26   C     C_R   0.520095 0.657797 0.060587 0.070522
C27   C     C_R   0.451634 0.567462 0.095864 0.101502
C28   C     C_R   0.581901 0.718319 0.116873 -0.174077
C29   C     C_R   0.586762 0.687931 0.207818 0.336957
C30   C     C_R   0.452014 0.539081 0.187086 -0.231130
H10   H     H_    0.186371 0.298739 0.032323 0.223183
H11   H     H_    0.404511 0.469606 0.215415 0.170690
H12   H     H_    0.578290 0.754971 0.940835 0.204477
H13   H     H_    0.264021 0.404337 0.132796 0.166499
H14   H     H_    0.501307 0.642926 0.842834 0.199767
H15   H     H_    0.634272 0.787322 0.089369 0.202657
N1    N     N_R   0.573860 0.731700 0.552730 -0.174214
N2    N     N_R   0.426060 0.268290 0.447230 -0.152287
C31   C     C_R   0.660034 0.827433 0.659925 0.338177
C32   C     C_R   0.650608 0.746972 0.623208 -0.076118
C33   C     C_R   0.514311 0.796885 0.510265 0.396819
C34   C     C_R   0.540823 0.885459 0.535027 -0.109112
C35   C     C_R   0.598739 0.895892 0.617528 -0.039836
C36   C     C_R   0.499252 0.960470 0.484640 0.025037
C37   C     C_R   0.486694 0.035987 0.525254 0.017086
C38   C     C_R   0.507998 0.030307 0.617964 0.315580
C39   C     C_R   0.579518 0.968248 0.659406 -0.131651
C40   C     C_R   0.473338 0.962254 0.394094 -0.139147
C41   C     C_R   0.412352 0.026946 0.347507 0.463873
C42   C     C_R   0.393385 0.101400 0.387670 -0.100641
C43   C     C_R   0.449545 0.112132 0.471979 -0.153747
C44   C     C_R   0.331067 0.170069 0.345145 0.372207
C45   C     C_R   0.347640 0.252711 0.378167 -0.122712
C46   C     C_R   0.478077 0.201901 0.494366 0.512532
H16   H     H_    0.605496 0.969731 0.727932 0.233660
H17   H     H_    0.303705 0.307216 0.345815 0.172637
H18   H     H_    0.695124 0.692808 0.655435 0.217774
H19   H     H_    0.500358 0.912715 0.358414 0.226401
Cl1   Cl    Cl    0.155591 0.591126 0.648366 -0.553927
N3    N     N_R   0.664851 0.748395 0.261541 0.234721
O9    O     O_R   0.753096 0.720022 0.311147 -0.378995
O10   O     O_R   0.664941 0.836064 0.248367 -0.320473
Cl2   Cl    Cl    0.140347 0.215423 0.890801 -0.372612
Cl3   Cl    Cl    0.245019 0.266911 0.695698 -0.400263
Cl4   Cl    Cl    0.640930 0.528150 0.806116 -0.508117
Cl5   Cl    Cl    0.601210 0.236939 0.568515 -0.473697
Cl6   Cl    Cl    0.384126 0.017317 0.235081 -0.384896
Cl7   Cl    Cl    0.744136 0.837615 0.759395 -0.511355
N4    N     N_R   0.402197 0.769128 0.459148 0.205923
O11   O     O_R   0.295756 0.791123 0.478486 -0.367257
O12   O     O_R   0.412768 0.743302 0.383094 -0.331967
N5    N     N_R   0.442384 0.076072 0.672382 0.245581
O13   O     O_R   0.487630 0.093088 0.749120 -0.268097
O14   O     O_R   0.327834 0.088325 0.651377 -0.281173
Cl8   Cl    Cl    0.225154 0.156869 0.255780 -0.469965
Cl9   Cl    Cl    0.150128 0.597735 0.327047 -0.537591
N6    N     N_R   0.857022 0.405523 0.651948 0.231864
O15   O     O_R   0.779064 0.410954 0.714171 -0.279783
O16   O     O_R   0.879748 0.325268 0.645341 -0.307424

loop_
_geom_bond_atom_site_label_1
_geom_bond_atom_site_label_2
_geom_bond_distance
_ccdc_geom_bond_type
C31   C35   1.408120 A    
C5    C6    1.522486 S    
C41   Cl6   1.764064 S    
C22   C23   1.391761 A    
C11   Cl9   1.798413 S    
C40   H19   1.079642 S    
C31   Cl7   1.761654 S    
Zn2   N1    2.061480 S    
C33   N4    1.433353 S    
C44   Cl8   1.763079 S    
C26   C27   1.416491 A    
Zn1   O7    2.011628 S    
C27   C30   1.394881 A    
C10   C11   1.557445 S    
C13   C17   1.398751 A    
C29   N3    1.435982 S    
C12   H7    1.112882 S    
C19   C23   1.403103 A    
C45   H17   1.082491 S    
O4    C2    1.311071 A    
O7    C4    1.304069 A    
C14   C30   1.395977 A    
C5    H1    1.113919 S    
C39   H16   1.082063 S    
C8    N6    1.471807 S    
Zn1   O5    1.903544 S    
C15   C16   1.406511 A    
N2    C46   1.353125 A    
C42   C44   1.417956 A    
O5    C3    1.319951 A    
C6    C10   1.559417 S    
C41   C42   1.411933 A    
C30   H11   1.078479 S    
N6    O16   1.301768 A    
C8    C9    1.561105 S    
C37   C43   1.424869 A    
C12   Cl1   1.801358 S    
C34   C35   1.410247 A    
C25   H12   1.083798 S    
C38   N5    1.440057 S    
H5    C7    1.113163 S    
C42   C43   1.428889 A    
O3    Zn1   2.009056 S    
C26   C28   1.399260 A    
C36   C40   1.405393 A    
C35   C39   1.399867 A    
C11   H9    1.100459 S    
C40   C41   1.387414 A    
C13   C16   1.417104 A    
O3    C2    1.298152 A    
N5    O13   1.301792 A    
N3    O10   1.301252 A    
C16   Cl3   1.769409 S    
C6    H3    1.113838 S    
C20   C24   1.411157 A    
C31   C32   1.394676 A    
N3    O9    1.301242 A    
C33   C34   1.407473 A    
O1    C1    1.313194 A    
C15   C19   1.410994 A    
C21   C27   1.414415 A    
C24   C25   1.388616 A    
C3    C14   1.466773 S    
C18   C19   1.415544 A    
N5    O14   1.301197 A    
C24   H14   1.082317 S    
C28   C29   1.399254 A    
Zn2   O8    2.009056 S    
C2    C9    1.456412 S    
N6    O15   1.299377 A    
C43   C46   1.409622 A    
C34   C36   1.414555 A    
C8    C12   1.548149 S    
C4    C10   1.459218 S    
C22   H13   1.079908 S    
C23   H10   1.081673 S    
Zn2   O6    1.939686 S    
C5    C9    1.558164 S    
N4    O12   1.298166 A    
C7    C11   1.535133 S    
C7    C9    1.550722 S    
C20   C21   1.407783 A    
C25   C26   1.394730 A    
C28   H15   1.084327 S    
C46   Cl5   1.762143 S    
C5    H2    1.109584 S    
C21   C22   1.412313 A    
C7    H8    1.113905 S    
O1    Zn1   1.939686 S    
O2    Zn2   1.903544 S    
O8    C4    1.306172 A    
O6    C3    1.309949 A    
O4    Zn2   2.011627 S    
C10   C12   1.564057 S    
N1    C32   1.358038 A    
C37   C38   1.425230 A    
O2    C1    1.316329 A    
C44   C45   1.387322 A    
C18   C20   1.411379 A    
C17   Cl4   1.779254 S    
C6    H4    1.113220 S    
C8    H6    1.115021 S    
N2    C45   1.351257 A    
C1    C13   1.469709 S    
C36   C37   1.409159 A    
N1    C33   1.359721 A    
N4    O11   1.301599 A    
C17   C18   1.402063 A    
C38   C39   1.402991 A    
C14   C29   1.417268 A    
C15   Cl2   1.770791 S    
C32   H18   1.081538 S    
Zn1   N2    2.061848 S    
