data_mof_unit_22301.cif
_audit_creation_date              2012-12-11T14:56:48-0500
_audit_creation_method            fapswitch 2.2
_symmetry_space_group_name_H-M    P1
_symmetry_Int_Tables_number       1
_space_group_crystal_system       triclinic
_cell_length_a                    10.846848
_cell_length_b                    10.901883
_cell_length_c                    17.196779
_cell_angle_alpha                 79.828517
_cell_angle_beta                  90.373491
_cell_angle_gamma                 119.810861
_cell_volume                      1728.82942939

loop_
_atom_site_label
_atom_site_type_symbol
_atom_type_description
_atom_site_fract_x
_atom_site_fract_y
_atom_site_fract_z
_atom_type_partial_charge
C1    C     C_R   0.226552 0.856281 0.129138 0.566574
C2    C     C_1   0.660830 0.343158 0.707275 0.236893
C3    C     C_R   0.535415 0.751514 0.783200 0.236298
C4    C     C_R   0.637098 0.278353 0.087134 0.596868
C5    C     C_R   0.579548 0.728570 0.718105 0.177565
C6    C     C_R   0.651803 0.841912 0.654228 -0.015237
C7    C     C_R   0.715226 0.982814 0.667341 0.228338
C8    C     C_R   0.729108 0.002105 0.746888 0.200947
C9    C     C_R   0.627868 0.883483 0.806261 -0.022773
C10   C     C_R   0.188376 0.937613 0.766406 0.226229
C11   C     C_R   0.117309 0.926818 0.699880 0.226293
C12   C     C_R   0.748499 0.309919 0.286433 0.177199
C13   C     C_R   0.053383 0.788105 0.679663 -0.032484
C14   C     C_R   0.018696 0.666439 0.741298 0.248063
C15   C     C_R   0.043437 0.684845 0.820261 0.256212
C16   C     C_R   0.639040 0.858539 0.125362 0.555792
C17   C     C_R   0.140408 0.823030 0.831870 0.008609
C18   C     C_R   0.687898 0.807832 0.356897 0.586165
C19   C     C_R   0.683639 0.387435 0.398153 0.596407
C20   C     C_R   0.101057 0.810037 0.358916 0.553021
C21   C     C_R   0.675228 0.804903 0.581130 0.633557
C22   C     C_R   0.681366 0.383145 0.623850 0.658075
C23   C     C_R   0.769954 0.345199 0.204133 0.173802
C24   C     C_R   0.030751 0.776565 0.596134 0.597636
C25   C     C_R   0.210440 0.856413 0.905188 0.579531
C26   C     C_R   0.639284 0.284418 0.861506 0.606012
C27   C     C_R   0.608085 0.890712 0.888619 0.562394
C28   C     C_R   0.541744 0.337481 0.199276 0.193268
C29   C     C_R   0.538272 0.336676 0.281036 0.193368
C30   C     C_R   0.645693 0.328288 0.324923 -0.057424
C31   C     C_R   0.656043 0.336487 0.160572 -0.054347
C32   C     C_1   0.668169 0.847041 0.205268 0.021724
C33   C     C_1   0.680767 0.836654 0.274514 0.045095
C34   C     C_1   0.183152 0.827381 0.211737 0.049088
C35   C     C_1   0.151355 0.821381 0.279812 0.022602
C36   C     C_1   0.653745 0.322256 0.778097 0.213393
Cl1   Cl    Cl    0.408564 0.352869 0.145397 -0.403798
Cl2   Cl    Cl    0.987102 0.503335 0.719894 -0.380048
Cl3   Cl    Cl    0.986785 0.536495 0.898988 -0.415434
Cl4   Cl    Cl    0.392138 0.334751 0.327969 -0.442471
Cl5   Cl    Cl    0.775386 0.127629 0.585677 -0.405417
Cr1   Cr    Cr6+3 0.402240 0.783890 0.019450 1.171759
Cr2   Cr    Cr6+3 0.382360 0.097900 0.991800 1.140184
Cr3   Cr    Cr6+3 0.715380 0.118170 0.988700 1.186339
Cr4   Cr    Cr6+3 0.936650 0.882420 0.465510 1.187537
Cr5   Cr    Cr6+3 0.605770 0.565620 0.493360 1.131915
Cr6   Cr    Cr6+3 0.921340 0.550490 0.496380 1.194094
H1    H     H_    0.275390 0.247068 0.531780 0.362148
H2    H     H_    0.022731 0.282038 0.402503 0.378885
H3    H     H_    0.061827 0.581960 0.051115 0.395112
H4    H     H_    0.274177 0.414691 0.812156 0.397147
H5    H     H_    0.422287 0.484970 0.666257 0.396668
H6    H     H_    0.059164 0.100856 0.833020 0.385010
H7    H     H_    0.467010 0.022942 0.851332 0.330516
O1    O     O_R   0.521780 0.757110 0.108900 -0.457750
O2    O     O_R   0.805020 0.410040 0.421340 -0.424982
O3    O     O_R   0.049240 0.685450 0.403290 -0.483259
O4    O     O_R   0.275160 0.783810 0.101120 -0.484848
O5    O     O_R   0.077520 0.903010 0.551800 -0.427466
O6    O     O_R   0.802980 0.872780 0.546830 -0.442973
O7    O     O_R   0.578090 0.681300 0.569920 -0.512881
O8    O     O_R   0.608530 0.436370 0.586530 -0.442922
O9    O     O_R   0.798770 0.401880 0.597100 -0.446233
O10   O     O_R   0.043450 0.677890 0.566230 -0.442282
O11   O     O_3   0.821250 0.666180 0.485090 -0.370339
O12   O     O_R   0.513330 0.228330 0.898660 -0.461281
O13   O     O_R   0.237900 0.972600 0.090980 -0.484823
O14   O     O_R   0.511190 0.220540 0.061620 -0.461452
O15   O     O_R   0.736920 0.257720 0.063840 -0.425596
O16   O     O_R   0.710450 0.984050 0.081720 -0.481909
O17   O     O_R   0.524090 0.765520 0.933110 -0.437456
O18   O     O_R   0.277300 0.791600 0.938160 -0.454634
O19   O     O_R   0.240210 0.981010 0.915190 -0.502863
O20   O     O_2   0.009844 0.073961 0.607785 -0.222932
O21   O     O_2   0.200733 0.214514 0.684740 -0.169799
O22   O     O_3   0.267638 0.155453 0.559581 -0.428384
O23   O     O_R   0.739230 0.266130 0.888050 -0.432883
O24   O     O_2   0.736031 0.112953 0.408896 -0.258954
O25   O     O_2   0.869601 0.146485 0.285378 -0.241620
O26   O     O_3   0.987752 0.341467 0.370553 -0.416007
O27   O     O_2   0.053189 0.503100 0.213793 -0.224189
O28   O     O_2   0.974597 0.316238 0.134447 -0.171626
O29   O     O_3   0.966359 0.548980 0.076900 -0.504850
O30   O     O_2   0.294388 0.596549 0.890965 -0.199312
O31   O     O_2   0.296756 0.733498 0.759890 -0.269490
O32   O     O_3   0.278169 0.489679 0.768512 -0.412694
O33   O     O_2   0.744840 0.627372 0.695183 -0.400132
O34   O     O_R   0.712580 0.991850 0.918770 -0.455621
O35   O     O_2   0.604908 0.538906 0.824459 -0.268351
O36   O     O_3   0.469059 0.444910 0.703374 -0.434875
O37   O     O_2   0.982707 0.241397 0.694794 -0.101799
O38   O     O_2   0.903891 0.212641 0.830105 -0.194806
O39   O     O_3   0.983280 0.039134 0.802161 -0.529535
O40   O     O_2   0.418065 0.112448 0.664537 -0.222218
O41   O     O_2   0.370513 0.190457 0.781617 -0.236170
O42   O     O_3   0.467230 0.009588 0.796605 -0.595929
O43   O     O_3   0.499990 0.999980 0.999980 -0.389680
O44   O     O_R   0.083770 0.911170 0.376030 -0.465041
O45   O     O_R   0.808770 0.880340 0.383890 -0.454553
O46   O     O_R   0.584340 0.689460 0.394160 -0.490504
O47   O     O_R   0.614320 0.443940 0.423590 -0.469645
S1    S     S_3+6 0.146938 0.096293 0.638528 0.155636
S2    S     S_3+6 0.834844 0.222159 0.338911 0.106664
S3    S     S_3+6 0.946727 0.427375 0.157934 0.111329
S4    S     S_3+6 0.348672 0.641356 0.804979 0.113371
S5    S     S_3+6 0.603557 0.582362 0.736565 -0.000486
S6    S     S_3+6 0.901283 0.131561 0.768388 0.119720
S7    S     S_3+6 0.365520 0.068315 0.750895 0.046413

loop_
_geom_bond_atom_site_label_1
_geom_bond_atom_site_label_2
_ccdc_geom_bond_type
C19   O2    A    
Cr2   O19   S    
Cr4   O6    S    
C11   C13   A    
H1    O22   S    
H5    O36   S    
Cr1   O4    S    
C7    C8    A    
C3    S4    S    
C12   C23   A    
O40   S7    D    
Cr5   O8    S    
Cr3   O23   S    
Cr4   O44   S    
Cr2   O12   S    
Cr6   O9    S    
C5    C6    A    
C22   O8    A    
C10   C17   A    
C1    C34   S    
C34   C35   T    
C22   O9    A    
C20   C35   S    
C10   S7    S    
C8    C9    A    
O35   S5    D    
C2    C22   S    
O21   S1    D    
Cr3   O16   S    
C21   O7    A    
O20   S1    D    
O42   S7    S    
C24   O10   A    
C13   C14   A    
O25   S2    D    
C18   O46   A    
O31   S4    D    
H4    O32   S    
C4    O15   A    
H3    O29   S    
C5    S5    S    
O22   S1    S    
Cr5   O47   S    
C26   O23   A    
O29   S3    S    
O26   S2    S    
H6    O39   S    
C26   O12   A    
O37   S6    D    
C16   O16   A    
O36   S5    S    
C21   O6    A    
Cr4   O45   S    
Cr1   O43   S    
Cr6   O10   S    
C4    O14   A    
Cr2   O14   S    
Cr5   O7    S    
C6    C21   S    
C13   C24   S    
C23   C31   A    
C29   C30   A    
C3    C9    A    
Cr1   O1    S    
Cr6   O3    S    
Cr3   O43   S    
O38   S6    D    
C23   S3    S    
Cr1   O18   S    
O30   S4    D    
Cr3   O15   S    
C25   O18   A    
C15   Cl3   S    
O41   S7    D    
Cr5   O11   S    
C26   C36   S    
Cr4   O11   S    
O32   S4    S    
C18   O45   A    
C14   Cl2   S    
C28   C29   A    
C8    S6    S    
C27   O17   A    
C9    C27   S    
C2    C36   T    
C15   C17   A    
Cr5   O46   S    
Cr4   O5    S    
C12   C30   A    
O24   S2    D    
H7    O42   S    
C28   C31   A    
Cr2   O43   S    
C3    C5    A    
C6    C7    A    
C16   C32   S    
H2    O26   S    
C17   C25   S    
C32   C33   T    
C16   O1    A    
C1    O4    A    
O39   S6    S    
C19   O47   A    
C12   S2    S    
O33   S5    D    
C28   Cl1   S    
C24   O5    A    
C29   Cl4   S    
Cr1   O17   S    
C1    O13   A    
C11   S1    S    
C25   O19   A    
C7    Cl5   S    
C27   O34   A    
C18   C33   S    
C4    C31   S    
C10   C11   A    
C20   O44   A    
Cr2   O13   S    
O28   S3    D    
C14   C15   A    
C20   O3    A    
Cr3   O34   S    
C19   C30   S    
Cr6   O11   S    
Cr6   O2    S    
O27   S3    D    
