data_mof_unit_30642.cif
_audit_creation_date              2012-12-11T15:34:27-0500
_audit_creation_method            fapswitch 2.2
_symmetry_space_group_name_H-M    P1
_symmetry_Int_Tables_number       1
_space_group_crystal_system       triclinic
_cell_length_a                    15.04362
_cell_length_b                    15.019247
_cell_length_c                    34.797564
_cell_angle_alpha                 90.077511
_cell_angle_beta                  90.067163
_cell_angle_gamma                 60.127335
_cell_volume                      6817.65999543

loop_
_atom_site_label
_atom_site_type_symbol
_atom_type_description
_atom_site_fract_x
_atom_site_fract_y
_atom_site_fract_z
_atom_type_partial_charge
C1    C     C_R   0.298688 0.609402 0.555130 0.570730
C2    C     C_R   0.643927 0.673918 0.670445 0.036186
C3    C     C_R   0.254858 0.581239 0.272307 -0.024903
C4    C     C_R   0.163380 0.630440 0.294328 0.008582
C5    C     C_R   0.065955 0.676153 0.276565 -0.024882
C6    C     C_R   0.060618 0.683854 0.236141 -0.037332
C7    C     C_R   0.151610 0.646731 0.214172 -0.021077
C8    C     C_R   0.169923 0.571144 0.360874 -0.123712
C9    C     C_R   0.195305 0.569319 0.399555 -0.004797
C10   C     C_R   0.220490 0.715301 0.388234 -0.137456
C11   C     C_R   0.188190 0.721392 0.350136 0.047776
C12   C     C_R   0.171736 0.642790 0.335857 0.093543
C13   C     C_R   0.555065 0.732321 0.649224 -0.141430
C14   C     C_R   0.231604 0.635398 0.412363 0.015711
C15   C     C_R   0.734565 0.029080 0.944010 0.570405
C16   C     C_R   0.743547 0.722502 0.945416 0.568547
C17   C     C_R   0.037665 0.734984 0.947570 0.524948
C18   C     C_R   0.722260 0.041177 0.052325 0.553543
C19   C     C_R   0.734050 0.733535 0.054831 0.550366
C20   C     C_R   0.027513 0.744563 0.058119 0.546428
C21   C     C_R   0.550274 0.707052 0.611225 -0.149820
C22   C     C_R   0.653926 0.681454 0.789379 0.371800
C23   C     C_R   0.638860 0.682480 0.712109 0.339516
C24   C     C_R   0.743697 0.593265 0.851243 -0.022082
C25   C     C_R   0.758546 0.602565 0.890997 -0.027270
C26   C     C_R   0.617938 0.780874 0.889541 -0.013793
C27   C     C_R   0.602385 0.768963 0.850957 -0.132891
C28   C     C_R   0.667641 0.679583 0.831137 0.002502
C29   C     C_R   0.609109 0.584659 0.556843 0.543901
C30   C     C_R   0.703799 0.700585 0.909222 0.003111
C31   C     C_R   0.717572 0.088192 0.907944 0.010377
C32   C     C_R   0.641185 0.095944 0.882950 -0.136739
C33   C     C_R   0.635112 0.128815 0.845119 -0.013509
C34   C     C_R   0.712707 0.147209 0.830894 0.020966
C35   C     C_R   0.786405 0.147368 0.856432 -0.032052
C36   C     C_R   0.783882 0.124652 0.895859 -0.032902
C37   C     C_R   0.683318 0.257457 0.771739 0.061579
C38   C     C_R   0.676917 0.264433 0.731513 -0.064423
C39   C     C_R   0.703395 0.177371 0.708983 0.052892
C40   C     C_R   0.590092 0.300663 0.553790 0.535485
C41   C     C_R   0.744442 0.080878 0.726114 -0.079284
C42   C     C_R   0.752381 0.072360 0.765929 -0.095548
C43   C     C_R   0.718917 0.160114 0.789045 0.090282
C44   C     C_R   0.576052 0.222618 0.655282 0.024394
C45   C     C_R   0.551391 0.250142 0.616701 -0.153465
C46   C     C_R   0.725613 0.209838 0.603490 -0.141848
C47   C     C_R   0.751928 0.180470 0.641674 -0.153463
C48   C     C_R   0.677283 0.190139 0.668007 0.035045
C49   C     C_R   0.624376 0.247909 0.591028 0.014843
C50   C     C_R   0.096174 0.697166 0.910353 0.016235
C51   C     C_R   0.296347 0.611974 0.447039 0.574881
C52   C     C_R   0.103882 0.766653 0.883613 0.004560
C53   C     C_R   0.147496 0.729821 0.846716 0.019087
C54   C     C_R   0.154519 0.637981 0.833267 -0.002713
C55   C     C_R   0.151953 0.569097 0.859312 -0.118239
C56   C     C_R   0.134701 0.593199 0.898559 -0.002888
C57   C     C_R   0.248617 0.541593 0.774868 -0.117183
C58   C     C_R   0.262260 0.538099 0.735082 -0.052387
C59   C     C_R   0.183813 0.610245 0.711573 0.124335
C60   C     C_R   0.088823 0.679631 0.727635 -0.020203
C61   C     C_R   0.073638 0.683491 0.767473 0.035672
C62   C     C_R   0.608215 0.591228 0.445695 0.548761
C63   C     C_R   0.157311 0.618016 0.791482 0.035910
C64   C     C_R   0.210036 0.700597 0.655655 0.010410
C65   C     C_R   0.212705 0.712953 0.615311 -0.031684
C66   C     C_R   0.216754 0.550260 0.604794 -0.045564
C67   C     C_R   0.199315 0.544434 0.644399 -0.040810
C68   C     C_R   0.200994 0.616804 0.670042 0.010028
C69   C     C_R   0.236143 0.628155 0.591045 0.019539
C70   C     C_R   0.701572 0.714736 0.092651 -0.029045
C71   C     C_R   0.598607 0.754468 0.104526 0.005050
C72   C     C_R   0.578424 0.737506 0.143168 0.010355
C73   C     C_R   0.589070 0.300511 0.444282 0.528234
C74   C     C_R   0.662399 0.684995 0.168917 0.018120
C75   C     C_R   0.763562 0.632903 0.154862 0.003631
C76   C     C_R   0.781439 0.651071 0.117549 -0.113145
C77   C     C_R   0.634665 0.617110 0.230619 0.000709
C78   C     C_R   0.629570 0.620093 0.270550 -0.124639
C79   C     C_R   0.640301 0.693260 0.291520 -0.062826
C80   C     C_R   0.652217 0.769557 0.272764 0.003642
C81   C     C_R   0.658592 0.768126 0.232028 0.015967
C82   C     C_R   0.646928 0.692746 0.211017 0.020022
C83   C     C_R   0.550577 0.746214 0.354969 0.016448
C84   C     C_R   0.628920 0.615253 0.595273 0.006304
C85   C     C_R   0.544624 0.718988 0.392851 -0.117805
C86   C     C_R   0.718785 0.577202 0.389929 -0.084057
C87   C     C_R   0.727763 0.603222 0.352012 0.009782
C88   C     C_R   0.641091 0.684588 0.333741 -0.024120
C89   C     C_R   0.625992 0.631674 0.409757 -0.026978
C90   C     C_R   0.696624 0.106673 0.087273 0.019269
C91   C     C_R   0.764757 0.135822 0.103969 0.013686
C92   C     C_R   0.754997 0.159366 0.143326 -0.113101
C93   C     C_R   0.672230 0.168160 0.164609 0.020786
C94   C     C_R   0.592901 0.160460 0.145910 0.015653
C95   C     C_R   0.718579 0.551788 0.618038 0.017435
C96   C     C_R   0.607550 0.127353 0.107674 -0.167933
C97   C     C_R   0.624742 0.268966 0.225193 -0.071272
C98   C     C_R   0.626379 0.273381 0.265081 -0.143137
C99   C     C_R   0.679391 0.183446 0.286991 0.024362
C100  C     C_R   0.734638 0.087048 0.268210 0.036666
C101  C     C_R   0.733407 0.084303 0.227926 -0.121534
C102  C     C_R   0.676816 0.174424 0.206583 0.060629
C103  C     C_R   0.747036 0.184254 0.353903 0.076500
C104  C     C_R   0.727254 0.199869 0.394229 0.041430
C105  C     C_R   0.548344 0.251154 0.382024 -0.150192
C106  C     C_R   0.731151 0.592864 0.653040 0.034983
C107  C     C_R   0.570701 0.223481 0.343849 -0.111448
C108  C     C_R   0.667708 0.194188 0.329139 0.035050
C109  C     C_R   0.624046 0.244958 0.407213 0.004464
C110  C     C_R   0.081875 0.708843 0.095037 -0.017830
C111  C     C_R   0.102460 0.614118 0.110211 -0.117107
C112  C     C_R   0.133521 0.588569 0.148451 0.034798
C113  C     C_R   0.142918 0.660476 0.171950 0.104424
C114  C     C_R   0.131997 0.751913 0.155776 0.098131
C115  C     C_R   0.101849 0.774741 0.117296 -0.069792
C116  C     C_R   0.249056 0.592534 0.231856 0.007430
Cr1   Cr    Cr6+3 0.421670 0.426920 0.499620 1.086691
Cr2   Cr    Cr6+3 0.427030 0.651190 0.500980 1.009409
Cr3   Cr    Cr6+3 0.651280 0.421870 0.499380 1.008463
Cr4   Cr    Cr6+3 0.910810 0.908010 0.001130 1.043107
Cr5   Cr    Cr6+3 0.682800 0.909890 0.998370 1.018131
Cr6   Cr    Cr6+3 0.908370 0.682300 0.002180 1.034828
H1    H     H_    0.829465 0.155220 0.651228 0.113648
H2    H     H_    0.647088 0.338536 0.717675 0.111003
H3    H     H_    0.765209 0.013258 0.708828 0.115980
H4    H     H_    0.779353 0.997829 0.779006 0.104070
H5    H     H_    0.472926 0.279631 0.607263 0.105955
H6    H     H_    0.480417 0.755312 0.595421 0.137892
H7    H     H_    0.783218 0.207366 0.584177 0.117448
H8    H     H_    0.335338 0.482592 0.722796 0.110427
H9    H     H_    0.311635 0.489436 0.792968 0.096969
H10   H     H_    0.027607 0.733315 0.709079 0.102493
H11   H     H_    0.164844 0.495557 0.848927 0.126211
H12   H     H_    0.860669 0.617516 0.108495 0.147714
H13   H     H_    0.621048 0.562017 0.285820 0.125368
H14   H     H_    0.472906 0.762534 0.408202 0.135384
H15   H     H_    0.782630 0.511396 0.403407 0.188638
H16   H     H_    0.551263 0.111959 0.094481 0.118054
H17   H     H_    0.509726 0.231691 0.324943 0.141689
H18   H     H_    0.585081 0.347279 0.279123 0.097952
H19   H     H_    0.582004 0.338852 0.208763 0.118801
H20   H     H_    0.488361 0.795903 0.662402 0.131212
H21   H     H_    0.813128 0.169569 0.157813 0.123029
H22   H     H_    0.774642 0.011437 0.212979 0.131112
H23   H     H_    0.469587 0.282659 0.391295 0.136059
H24   H     H_    0.089425 0.561705 0.092856 0.122880
H25   H     H_    0.087996 0.847116 0.105329 0.173744
H26   H     H_    0.150425 0.515433 0.349849 0.117391
H27   H     H_    0.243237 0.769479 0.398155 0.128091
H28   H     H_    0.540267 0.832365 0.835589 0.156003
H29   H     H_    0.587650 0.072113 0.892394 0.131292
N1    N     N_R   0.647085 0.605383 0.771168 -0.205197
N2    N     N_R   0.640006 0.605820 0.733100 -0.232555
N3    N     N_R   0.641711 0.760690 0.730296 -0.235727
N4    N     N_R   0.648636 0.760274 0.768422 -0.254991
O1    O     O_R   0.502070 0.323090 0.541280 -0.515640
O2    O     O_R   0.520720 0.641670 0.461580 -0.502748
O3    O     O_R   0.674120 0.502090 0.457500 -0.503526
O4    O     O_R   0.640110 0.338380 0.459630 -0.504506
O5    O     O_3   0.499990 0.499990 0.499990 -0.249192
O6    O     O_R   0.017640 0.822070 0.960410 -0.523045
O7    O     O_R   0.822000 0.989470 0.960340 -0.469166
O8    O     O_R   0.666920 0.007430 0.955290 -0.542835
O9    O     O_R   0.694410 0.812480 0.959650 -0.527462
O10   O     O_R   0.831550 0.656950 0.958960 -0.465152
O11   O     O_R   0.998590 0.685540 0.963930 -0.510464
O12   O     O_R   0.338340 0.520690 0.539540 -0.456422
O13   O     O_R   0.008220 0.831200 0.045060 -0.511411
O14   O     O_R   0.813270 0.997930 0.038810 -0.495387
O15   O     O_R   0.657500 0.016560 0.039940 -0.519291
O16   O     O_R   0.685680 0.820940 0.038120 -0.509465
O17   O     O_R   0.822130 0.666070 0.043610 -0.503946
O18   O     O_R   0.989860 0.694000 0.042400 -0.507099
O19   O     O_3   0.833990 0.833400 0.000560 -0.245464
O20   O     O_R   0.324760 0.674070 0.543580 -0.536981
O21   O     O_R   0.522400 0.640310 0.540110 -0.499635
O22   O     O_R   0.675940 0.500630 0.542210 -0.528461
O23   O     O_R   0.641790 0.337020 0.538150 -0.514285
O24   O     O_R   0.500260 0.324550 0.456580 -0.513521
O25   O     O_R   0.336660 0.522040 0.461020 -0.452083
O26   O     O_R   0.322940 0.675540 0.458880 -0.532790
C117  C     C_3   0.792850 0.439327 0.607199 -0.260290
C118  C     C_3   0.848034 0.364275 0.640224 -0.450543
H30   H     H_    0.915913 0.367755 0.650322 0.162800
H31   H     H_    0.794114 0.377311 0.664169 0.167256
H32   H     H_    0.878100 0.284476 0.629741 0.129145
H33   H     H_    0.747806 0.406266 0.594864 0.188058
H34   H     H_    0.849197 0.435081 0.585628 0.163890
C119  C     C_2   0.850300 0.138987 0.924002 0.226431
H35   H     H_    0.925685 0.124783 0.915833 0.082781
O27   O     O_2   0.819579 0.170477 0.956417 -0.487312
C120  C     C_3   0.649948 0.354612 0.794846 -0.263363
C121  C     C_3   0.535071 0.428555 0.791036 -0.433356
H36   H     H_    0.514460 0.456262 0.761014 0.165421
H37   H     H_    0.492194 0.389593 0.799783 0.149517
H38   H     H_    0.512458 0.495971 0.810015 0.150337
H39   H     H_    0.667666 0.338388 0.825812 0.147984
H40   H     H_    0.692527 0.392873 0.784618 0.188262
C122  C     C_3   0.547496 0.137936 0.820414 -0.268245
C123  C     C_3   0.443388 0.219322 0.836115 -0.429353
H41   H     H_    0.427455 0.195075 0.864181 0.153653
H42   H     H_    0.441246 0.293765 0.839863 0.147905
H43   H     H_    0.381961 0.230363 0.815681 0.164138
H44   H     H_    0.552214 0.159121 0.790338 0.206366
H45   H     H_    0.550539 0.062476 0.819532 0.153937
C124  C     C_2   0.492160 0.233684 0.681011 0.214427
H46   H     H_    0.414216 0.269228 0.670149 0.091526
O28   O     O_2   0.508062 0.202537 0.714062 -0.524139
C125  C     C_2   0.864931 0.172594 0.842368 0.181902
H47   H     H_    0.889006 0.215827 0.860311 0.099835
O29   O     O_2   0.904892 0.143990 0.810870 -0.500963
C126  C     C_3   0.058240 0.881127 0.891749 -0.266738
C127  C     C_3   0.133463 0.902507 0.913989 -0.384748
H48   H     H_    0.155489 0.860470 0.941684 0.191060
H49   H     H_    0.204252 0.878222 0.896977 0.167118
H50   H     H_    0.097942 0.985855 0.919978 0.137063
H51   H     H_    0.034793 0.927029 0.864960 0.133972
H52   H     H_    0.982881 0.914477 0.906073 0.174684
C128  C     C_3   0.155608 0.506775 0.926346 -0.260816
C129  C     C_3   0.263772 0.414747 0.921584 -0.446872
H53   H     H_    0.271991 0.375570 0.893675 0.145014
H54   H     H_    0.321708 0.439909 0.923457 0.168303
H55   H     H_    0.279160 0.358198 0.944806 0.148446
H56   H     H_    0.151262 0.531155 0.956644 0.169435
H57   H     H_    0.098311 0.481628 0.921743 0.155048
C130  C     C_2   0.179855 0.462112 0.658812 0.200243
H58   H     H_    0.220334 0.385583 0.646660 0.082903
O30   O     O_2   0.117014 0.479346 0.684049 -0.524455
C131  C     C_3   0.187021 0.785866 0.821220 -0.258579
C132  C     C_3   0.303843 0.725085 0.818053 -0.394397
H59   H     H_    0.339012 0.712553 0.847063 0.155954
H60   H     H_    0.330367 0.649790 0.804095 0.165972
H61   H     H_    0.330751 0.768733 0.800478 0.178186
H62   H     H_    0.152404 0.799647 0.792157 0.190254
H63   H     H_    0.168757 0.862140 0.832060 0.153228
C133  C     C_3   0.969532 0.761708 0.783218 -0.303135
C134  C     C_3   0.887332 0.735172 0.771974 -0.415938
H64   H     H_    0.878508 0.736084 0.740266 0.160062
H65   H     H_    0.907543 0.658085 0.783156 0.195391
H66   H     H_    0.812821 0.792803 0.784609 0.161589
H67   H     H_    0.969147 0.766902 0.814984 0.156144
H68   H     H_    0.948473 0.838889 0.771900 0.141188
C135  C     C_2   0.222393 0.772849 0.682037 0.206970
H69   H     H_    0.217877 0.842472 0.671216 0.116519
O31   O     O_2   0.242943 0.753793 0.716038 -0.533050
C136  C     C_2   0.831673 0.509464 0.912856 0.237066
H70   H     H_    0.903813 0.453105 0.900068 0.087795
O32   O     O_2   0.809831 0.493118 0.944873 -0.464678
C137  C     C_3   0.181662 0.818080 0.598208 -0.273890
C138  C     C_3   0.071049 0.897704 0.608641 -0.450958
H71   H     H_    0.017767 0.871935 0.598105 0.169575
H72   H     H_    0.060335 0.910787 0.640050 0.144601
H73   H     H_    0.050231 0.972118 0.594741 0.137201
H74   H     H_    0.235602 0.844338 0.607303 0.130692
H75   H     H_    0.181938 0.816727 0.566444 0.187425
C139  C     C_2   0.204899 0.480803 0.577291 0.255142
H76   H     H_    0.233498 0.400715 0.584081 0.071471
O33   O     O_2   0.160545 0.513827 0.546745 -0.435985
C140  C     C_2   0.514537 0.811760 0.076549 0.223937
H77   H     H_    0.511959 0.873970 0.059963 0.127921
O34   O     O_2   0.448661 0.788406 0.070975 -0.497205
C141  C     C_2   0.826524 0.542559 0.331187 0.235762
H78   H     H_    0.836140 0.563871 0.302355 0.097144
O35   O     O_2   0.898959 0.468228 0.346102 -0.487218
C142  C     C_3   0.633560 0.528195 0.210221 -0.277780
C143  C     C_3   0.724167 0.425117 0.222780 -0.443928
H79   H     H_    0.795747 0.428869 0.224545 0.167966
H80   H     H_    0.709567 0.403375 0.251547 0.153417
H81   H     H_    0.735921 0.364411 0.201833 0.136996
H82   H     H_    0.560953 0.529183 0.216894 0.148676
H83   H     H_    0.636394 0.533732 0.178531 0.169311
C144  C     C_3   0.469739 0.770895 0.156754 -0.236571
C145  C     C_3   0.404252 0.886601 0.162851 -0.418259
H84   H     H_    0.427956 0.909169 0.189626 0.144276
H85   H     H_    0.410119 0.930229 0.138235 0.155691
H86   H     H_    0.322769 0.907416 0.166172 0.194686
H87   H     H_    0.431608 0.744465 0.136111 0.226962
H88   H     H_    0.470014 0.732921 0.184083 0.152413
C146  C     C_2   0.658695 0.848578 0.296449 0.203904
H89   H     H_    0.697599 0.827954 0.324016 0.150653
O36   O     O_2   0.615902 0.938346 0.286443 -0.504784
C147  C     C_3   0.836994 0.568625 0.667005 -0.274489
C148  C     C_3   0.868342 0.514639 0.706068 -0.373293
H90   H     H_    0.841919 0.572141 0.729568 0.204138
H91   H     H_    0.836529 0.462955 0.710682 0.183448
H92   H     H_    0.953101 0.468399 0.707964 0.197749
H93   H     H_    0.896287 0.523183 0.645194 0.167385
H94   H     H_    0.838365 0.641814 0.669158 0.152863
C149  C     C_3   0.692587 0.836280 0.211735 -0.245518
C150  C     C_3   0.603864 0.932409 0.194525 -0.386649
H95   H     H_    0.632441 0.984597 0.186080 0.160280
H96   H     H_    0.540703 0.972273 0.215576 0.212955
H97   H     H_    0.575389 0.913450 0.168206 0.133230
H98   H     H_    0.735151 0.859447 0.231577 0.171595
H99   H     H_    0.748506 0.794118 0.188662 0.161695
C151  C     C_3   0.455915 0.836058 0.337601 -0.274007
C152  C     C_3   0.433708 0.937650 0.355854 -0.410370
H100  H     H_    0.415048 0.939387 0.386805 0.142886
H101  H     H_    0.500881 0.948950 0.352921 0.196167
H102  H     H_    0.367041 0.002077 0.341273 0.156437
H103  H     H_    0.462201 0.842047 0.306099 0.172221
H104  H     H_    0.389405 0.824803 0.342444 0.123850
C153  C     C_3   0.855910 0.562093 0.179168 -0.284939
C154  C     C_3   0.907447 0.452066 0.163787 -0.445038
H105  H     H_    0.850578 0.426087 0.160200 0.163026
H106  H     H_    0.943784 0.446779 0.135493 0.146097
H107  H     H_    0.967857 0.399859 0.184150 0.142661
H108  H     H_    0.912129 0.589404 0.178418 0.139272
H109  H     H_    0.836190 0.561195 0.209763 0.149352
C155  C     C_3   0.848392 0.141684 0.081550 -0.256582
C156  C     C_3   0.842247 0.246029 0.086171 -0.430399
H110  H     H_    0.764115 0.309068 0.078829 0.178532
H111  H     H_    0.861526 0.257086 0.115939 0.139775
H112  H     H_    0.898043 0.250377 0.066497 0.163040
H113  H     H_    0.924664 0.079906 0.091428 0.167940
H114  H     H_    0.841950 0.132689 0.050292 0.197707
C157  C     C_2   0.793143 0.987708 0.288740 0.244020
H115  H     H_    0.841469 0.918632 0.272419 0.110421
O37   O     O_2   0.787504 0.980672 0.323475 -0.486889
C158  C     C_2   0.846968 0.162009 0.336818 0.215823
H116  H     H_    0.870566 0.124928 0.309029 0.109794
O38   O     O_2   0.902455 0.188522 0.352639 -0.513390
C159  C     C_3   0.814897 0.160386 0.423264 -0.244203
C160  C     C_3   0.883277 0.043766 0.420772 -0.403289
H117  H     H_    0.837408 0.005757 0.426475 0.176714
H118  H     H_    0.919235 0.019594 0.392129 0.189722
H119  H     H_    0.945191 0.017444 0.442603 0.133607
H120  H     H_    0.860574 0.199210 0.419619 0.205788
H121  H     H_    0.786753 0.175347 0.453253 0.142848
C161  C     C_2   0.496941 0.179001 0.165225 0.188174
H122  H     H_    0.443107 0.163852 0.149783 0.090182
O39   O     O_2   0.475888 0.211498 0.198048 -0.513928
C162  C     C_3   0.177684 0.808715 0.325072 -0.275317
C163  C     C_3   0.085084 0.910401 0.336901 -0.406203
H123  H     H_    0.013913 0.905678 0.334561 0.207999
H124  H     H_    0.094165 0.930136 0.366863 0.156360
H125  H     H_    0.078079 0.972455 0.317636 0.155071
H126  H     H_    0.247678 0.815032 0.327587 0.118598
H127  H     H_    0.169295 0.796112 0.294189 0.154778
C164  C     C_2   0.809198 0.493986 0.831249 0.211249
H128  H     H_    0.826737 0.422207 0.844966 0.098401
O40   O     O_2   0.847412 0.491160 0.800038 -0.514970
C165  C     C_3   0.358099 0.516385 0.292275 -0.281317
C166  C     C_3   0.419673 0.571882 0.295270 -0.446241
H129  H     H_    0.495481 0.519537 0.308296 0.131680
H130  H     H_    0.431530 0.596596 0.266678 0.154548
H131  H     H_    0.380015 0.640178 0.314047 0.156597
H132  H     H_    0.349185 0.493573 0.321665 0.146309
H133  H     H_    0.402923 0.442043 0.277188 0.135253
C167  C     C_2   0.344691 0.547223 0.208264 0.195968
H134  H     H_    0.411750 0.476602 0.216873 0.113104
O41   O     O_2   0.350835 0.589529 0.179281 -0.540046
C168  C     C_3   0.150853 0.486512 0.163508 -0.286326
C169  C     C_3   0.251145 0.398066 0.148269 -0.411619
H135  H     H_    0.249805 0.395005 0.116395 0.143429
H136  H     H_    0.316819 0.407204 0.157523 0.198812
H137  H     H_    0.261891 0.324451 0.159793 0.153424
H138  H     H_    0.152716 0.482965 0.195343 0.152703
H139  H     H_    0.086674 0.475104 0.154252 0.133393
C170  C     C_2   0.969216 0.717950 0.299764 0.221034
H140  H     H_    0.899823 0.725549 0.287307 0.074951
O42   O     O_2   0.964418 0.746167 0.332978 -0.475156
C171  C     C_2   0.959093 0.731641 0.216848 0.163240
H141  H     H_    0.904812 0.707407 0.224559 0.065424
O43   O     O_2   0.934819 0.799072 0.192847 -0.540508
C172  C     C_2   0.182613 0.497394 0.425012 0.260426
H142  H     H_    0.184901 0.429567 0.412964 0.097304
O44   O     O_2   0.163529 0.515943 0.459133 -0.430542
C173  C     C_2   0.146392 0.826525 0.179374 0.264152
H143  H     H_    0.171419 0.809568 0.209038 0.112322
O45   O     O_2   0.130655 0.908186 0.165920 -0.538223
C174  C     C_2   0.542062 0.880038 0.907050 0.228493
H144  H     H_    0.565064 0.930315 0.920453 0.147458
O46   O     O_2   0.450622 0.909039 0.904806 -0.511089

loop_
_geom_bond_atom_site_label_1
_geom_bond_atom_site_label_2
_ccdc_geom_bond_type
C150  H97   S    
Cr2   O5    S    
C55   C56   A    
C60   H10   S    
C46   H7    S    
C114  C115  A    
C39   C41   A    
C155  H114  S    
C162  C163  S    
C147  C148  S    
C15   O8    A    
C104  C159  S    
C5    C6    A    
C18   O14   A    
C54   C63   S    
C1    O12   A    
C138  H72   S    
C122  H45   S    
C145  H86   S    
C174  H144  S    
C34   C35   A    
C131  H62   S    
C61   C63   A    
C110  C111  A    
C129  H53   S    
C46   C47   A    
C154  H107  S    
C160  H117  S    
C50   C52   A    
C159  H121  S    
C120  H40   S    
C4    C12   S    
C94   C96   A    
C130  O30   D    
C138  H73   S    
C83   C88   A    
C59   C60   A    
C29   O22   A    
C22   N1    A    
C127  H49   S    
C161  H122  S    
C159  C160  S    
C41   H3    S    
C164  H128  S    
C124  H46   S    
C67   C130  S    
C140  O34   D    
C55   H11   S    
C142  H82   S    
C37   C38   A    
C47   H1    S    
C153  C154  S    
Cr3   O3    S    
C62   O2    A    
C13   C21   A    
C13   H20   S    
C132  H60   S    
C87   C141  S    
N3    N4    A    
C151  C152  S    
C137  H75   S    
C23   N2    A    
C122  H44   S    
C111  H24   S    
C75   C153  S    
Cr4   O13   S    
C144  H88   S    
C103  C158  S    
C4    C5    A    
C51   O26   A    
C6    C171  S    
C6    C7    A    
C64   C65   A    
C163  H125  S    
C77   C82   A    
C160  H119  S    
C146  O36   D    
C167  H134  S    
C42   H4    S    
C3    C165  S    
C126  C127  S    
C123  H42   S    
C98   C99   A    
C52   C126  S    
C33   C122  S    
C31   C36   A    
C112  C168  S    
Cr3   O22   S    
C44   C48   A    
C26   C30   A    
C7    C116  A    
C111  C112  A    
C97   C98   A    
C64   C135  S    
C53   C54   A    
C16   O9    A    
C151  H104  S    
C99   C108  S    
C105  C107  A    
C137  C138  S    
C149  H99   S    
C64   C68   A    
C58   H8    S    
C17   O11   A    
C10   H27   S    
C96   H16   S    
C38   C39   A    
Cr4   O14   S    
C162  H127  S    
C71   C140  S    
C40   C49   S    
Cr5   O8    S    
C143  H80   S    
C133  C134  S    
C119  O27   D    
C128  H56   S    
C117  C118  S    
C47   C48   A    
C139  O33   D    
C80   C146  S    
C107  C108  A    
C100  C157  S    
Cr4   O7    S    
C153  H109  S    
C25   C136  S    
C154  H106  S    
Cr5   O15   S    
C24   C164  S    
Cr2   O21   S    
C147  H93   S    
Cr6   O10   S    
C134  H64   S    
C148  H92   S    
C152  H101  S    
C119  H35   S    
C170  H140  S    
C57   C63   A    
C22   N4    A    
C26   C174  S    
C19   O17   A    
C29   C84   S    
C10   C14   A    
C118  H32   S    
C91   C92   A    
C163  H123  S    
C144  C145  S    
Cr6   O19   S    
C2    C106  A    
C50   C56   A    
C106  C147  S    
C84   C95   A    
C158  O38   D    
C133  H67   S    
C95   C106  A    
C83   C151  S    
C31   C32   A    
C16   O10   A    
C8    C12   A    
C121  H38   S    
C125  H47   S    
C117  H34   S    
C21   H6    S    
C168  H139  S    
C17   O6    A    
C20   C110  S    
Cr4   O19   S    
C66   C139  S    
C121  H36   S    
C27   H28   S    
C156  H111  S    
C3    C4    A    
C52   C53   A    
C105  C109  A    
C54   C55   A    
C1    O20   A    
C91   C155  S    
C34   C43   S    
C24   C28   A    
C143  H81   S    
C15   C31   S    
C141  H78   S    
C128  H57   S    
C73   O4    A    
C169  H136  S    
C5    C170  S    
C71   C72   A    
C116  C167  S    
C57   C58   A    
C100  C101  A    
C145  H85   S    
C174  O46   D    
C107  H17   S    
C10   C11   A    
C85   H14   S    
Cr1   O24   S    
C122  C123  S    
C37   C120  S    
C166  H129  S    
C160  H118  S    
C169  H135  S    
C134  H66   S    
C2    C23   S    
C81   C149  S    
C129  H55   S    
C38   H2    S    
C140  H77   S    
C173  O45   D    
Cr3   O5    S    
C87   C88   A    
C101  C102  A    
C41   C42   A    
C35   C36   A    
C156  H110  S    
C168  C169  S    
C77   C78   A    
C46   C49   A    
C26   C27   A    
C93   C94   A    
C161  O39   D    
Cr6   O11   S    
C164  O40   D    
C101  H22   S    
C124  O28   D    
C126  H51   S    
C135  H69   S    
C62   C89   S    
C115  H25   S    
C150  H95   S    
C9    C172  S    
C157  O37   D    
C92   H21   S    
C172  H142  S    
C86   H15   S    
C136  H70   S    
C171  H141  S    
C62   O3    A    
C70   C71   A    
C78   H13   S    
C97   C102  A    
C18   O15   A    
C137  H74   S    
C22   C28   S    
Cr1   O5    S    
C8    H26   S    
C74   C82   S    
C170  O42   D    
C79   C88   S    
C155  H113  S    
C67   C68   A    
C18   C90   S    
C72   C74   A    
C128  C129  S    
C85   C89   A    
C86   C87   A    
C58   C59   A    
C1    C69   S    
C60   C61   A    
C37   C43   A    
C9    C14   A    
Cr5   O19   S    
C21   C84   A    
C127  H48   S    
C105  H23   S    
C44   C124  S    
C120  H39   S    
C90   C96   A    
C20   O18   A    
C97   H19   S    
C153  H108  S    
C83   C85   A    
C42   C43   A    
C29   O21   A    
C169  H137  S    
C44   C45   A    
C113  C114  A    
C127  H50   S    
C25   C30   A    
C155  C156  S    
C76   H12   S    
C11   C162  S    
Cr3   O4    S    
C86   C89   A    
C93   C102  S    
C73   C109  S    
C149  H98   S    
C3    C116  A    
C32   C33   A    
C142  H83   S    
C146  H89   S    
C120  C121  S    
C90   C91   A    
C162  H126  S    
Cr1   O12   S    
C65   C69   A    
C165  H133  S    
C92   C93   A    
C77   C142  S    
C132  H59   S    
C23   N3    A    
C103  C104  A    
Cr2   O2    S    
Cr2   O26   S    
C16   C30   S    
C110  C115  A    
C56   C128  S    
C53   C131  S    
C39   C48   S    
C165  C166  S    
C147  H94   S    
C144  H87   S    
C94   C161  S    
C65   C137  S    
C148  H91   S    
C152  H100  S    
C15   O7    A    
C75   C76   A    
C129  H54   S    
C81   C82   A    
C131  C132  S    
C19   O16   A    
C118  H31   S    
C104  C109  A    
C163  H124  S    
C66   C69   A    
C114  C173  S    
C132  H61   S    
C159  H120  S    
C133  H68   S    
C2    C13   A    
C14   C51   S    
C8    C9    A    
C121  H37   S    
C166  H131  S    
C103  C108  A    
Cr3   O23   S    
C45   C49   A    
C142  C143  S    
C168  H138  S    
Cr1   O25   S    
C165  H132  S    
C171  O43   D    
C112  C113  A    
C151  H103  S    
C20   O13   A    
C136  O32   D    
C74   C75   A    
C36   C119  S    
C24   C25   A    
C78   C79   A    
C123  H41   S    
C141  O35   D    
C135  O31   D    
Cr5   O9    S    
C98   H18   S    
C167  O41   D    
C118  H30   S    
C59   C68   S    
C99   C100  A    
C139  H76   S    
Cr1   O1    S    
C33   C34   A    
N1    N2    A    
Cr4   O6    S    
C40   O23   A    
C154  H105  S    
Cr5   O16   S    
C166  H130  S    
Cr2   O20   S    
C130  H58   S    
Cr6   O17   S    
C134  H65   S    
C70   C76   A    
C152  H102  S    
C51   O25   A    
C148  H90   S    
C149  C150  S    
C173  H143  S    
C57   H9    S    
C80   C81   A    
C17   C50   S    
C11   C12   A    
C95   C117  S    
Cr6   O18   S    
C158  H116  S    
C7    C113  S    
C35   C125  S    
C32   H29   S    
C126  H52   S    
C45   H5    S    
C123  H43   S    
C125  O29   D    
C66   C67   A    
C150  H96   S    
C117  H33   S    
C157  H115  S    
C172  O44   D    
C131  H63   S    
C138  H71   S    
C143  H79   S    
C79   C80   A    
C73   O24   A    
C156  H112  S    
C27   C28   A    
C72   C144  S    
C61   C133  S    
C40   O1    A    
C19   C70   S    
C145  H84   S    
