data_mof_unit_53807.cif
_audit_creation_date              2012-12-11T15:42:50-0500
_audit_creation_method            fapswitch 2.2
_symmetry_space_group_name_H-M    P1
_symmetry_Int_Tables_number       1
_space_group_crystal_system       triclinic
_cell_length_a                    6.931226
_cell_length_b                    14.554873
_cell_length_c                    16.193525
_cell_angle_alpha                 90.417951
_cell_angle_beta                  90.066254
_cell_angle_gamma                 89.96657
_cell_volume                      1633.60840464

loop_
_atom_site_label
_atom_site_type_symbol
_atom_type_description
_atom_site_fract_x
_atom_site_fract_y
_atom_site_fract_z
_atom_type_partial_charge
O1    O     O_R   0.505810 0.583360 0.413880 -0.540234
O2    O     O_R   0.175870 0.595480 0.585520 -0.544486
O3    O     O_R   0.005540 0.416640 0.586120 -0.541489
C1    C     C_R   0.344959 0.617620 0.614688 0.686059
O4    O     O_R   0.176100 0.594390 0.414490 -0.540427
O5    O     O_R   0.005770 0.415540 0.413870 -0.540704
C2    C     C_R   0.344932 0.616158 0.385634 0.700957
O6    O     O_R   0.505580 0.584460 0.586130 -0.541012
O7    O     O_3   0.339190 0.441320 0.500000 -0.370896
V1    V     V_3+5 0.064350 0.510890 0.500000 1.409558
O8    O     O_R   0.676050 0.404520 0.414480 -0.545046
C3    C     C_R   0.845091 0.382108 0.385701 0.688550
O9    O     O_R   0.675830 0.405610 0.585510 -0.540302
C4    C     C_R   0.845163 0.383669 0.613723 0.746197
V2    V     V_3+5 0.564340 0.489110 0.500000 1.407801
O10   O     O_3   0.839370 0.558680 0.500000 -0.370959
C5    C     C_2   0.720327 0.208934 0.785910 -0.128188
C6    C     C_2   0.885540 0.181814 0.822585 -0.306149
H1    H     H_    0.584279 0.180243 0.806657 0.135408
H2    H     H_    0.023247 0.209829 0.803944 0.128334
C7    C     C_2   0.708140 0.277422 0.717977 -0.131615
C8    C     C_2   0.861791 0.315445 0.680526 -0.306867
H3    H     H_    0.564051 0.296495 0.697971 0.135177
H4    H     H_    0.007063 0.297063 0.698622 0.129195
C9    C     C_R   0.047430 0.222938 0.219475 -0.154119
H5    H     H_    0.188274 0.204291 0.195830 0.116235
C10   C     C_R   0.036124 0.286946 0.284260 -0.144640
H6    H     H_    0.168853 0.315803 0.308364 0.119301
C11   C     C_R   0.856369 0.313359 0.317303 -0.045030
C12   C     C_R   0.688231 0.274037 0.283671 -0.152626
H7    H     H_    0.547388 0.292689 0.307313 0.116376
C13   C     C_R   0.699537 0.210028 0.218885 -0.147462
H8    H     H_    0.566808 0.181174 0.194777 0.117138
C14   C     C_R   0.879296 0.183593 0.185860 -0.045666
C15   C     C_R   0.188290 0.723527 0.718998 -0.153978
H9    H     H_    0.047416 0.705474 0.694934 0.116199
C16   C     C_R   0.199622 0.785703 0.785362 -0.141434
H10   H     H_    0.066883 0.813870 0.810042 0.120635
C17   C     C_R   0.379338 0.811342 0.819151 -0.045603
C18   C     C_R   0.547376 0.772896 0.784604 -0.144557
H11   H     H_    0.688245 0.790934 0.808686 0.120682
C19   C     C_R   0.536043 0.710720 0.718238 -0.148196
H12   H     H_    0.668779 0.682539 0.693571 0.119048
C20   C     C_R   0.356337 0.685154 0.684388 -0.048962
C21   C     C_R   0.206044 0.745039 0.301052 -0.136935
H13   H     H_    0.079177 0.746330 0.340030 0.128419
C22   C     C_R   0.219644 0.807842 0.236122 -0.147908
H14   H     H_    0.102768 0.856252 0.227400 0.140907
C23   C     C_R   0.381785 0.809067 0.183636 -0.087540
C24   C     C_R   0.530678 0.743950 0.197704 0.152376
C25   C     C_R   0.517574 0.683035 0.264179 -0.162529
H15   H     H_    0.632781 0.633892 0.273657 0.143443
C26   C     C_R   0.356078 0.682675 0.316464 -0.084224
O11   O     O_R   0.230120 0.912300 0.917180 -0.541141
O12   O     O_R   0.559740 0.902430 0.088770 -0.523811
O13   O     O_R   0.729930 0.081310 0.089370 -0.542853
C27   C     C_R   0.391142 0.878507 0.116198 0.726576
O14   O     O_R   0.559840 0.901330 0.917750 -0.539640
O15   O     O_R   0.730030 0.080210 0.917120 -0.540851
C28   C     C_R   0.390733 0.879050 0.888701 0.694290
O16   O     O_R   0.230020 0.913400 0.089430 -0.534314
O17   O     O_3   0.396460 0.055470 0.003290 -0.377259
V3    V     V_3+5 0.671360 0.985960 0.003250 1.455651
O18   O     O_R   0.059740 0.091300 0.917690 -0.547175
C29   C     C_R   0.890914 0.113231 0.889472 0.736409
O19   O     O_R   0.059640 0.092400 0.088720 -0.547059
C30   C     C_R   0.890593 0.114798 0.117501 0.682533
V4    V     V_3+5 0.171350 0.007820 0.003190 1.427465
O20   O     O_3   0.896380 0.938200 0.003220 -0.351524
I1    I     I_    0.774010 0.724579 0.119364 -0.415509

loop_
_geom_bond_atom_site_label_1
_geom_bond_atom_site_label_2
_ccdc_geom_bond_type
C14   C30   S    
O5    V1    S    
O19   V4    S    
O8    C3    A    
C27   O16   A    
C11   C12   A    
O1    V2    S    
C3    C11   S    
C10   C11   A    
O13   C30   A    
O7    V1    S    
O2    C1    A    
C15   H9    S    
O9    V2    S    
O17   V4    S    
C9    C14   A    
C1    O6    A    
O18   C29   A    
C4    C8    S    
O8    V2    S    
C18   C19   A    
C5    C6    D    
C24   I1    S    
O13   V3    S    
C21   C26   A    
O4    V1    S    
C16   C17   A    
O3    V1    S    
O11   C28   A    
O9    C4    A    
O15   C29   A    
C6    C29   S    
C12   C13   A    
C15   C20   A    
O16   V4    S    
O17   V3    S    
O3    C4    A    
C19   C20   A    
C17   C28   S    
O18   V4    S    
V3    O20   S    
C18   H11   S    
C5    H1    S    
C16   H10   S    
O19   C30   A    
O6    V2    S    
C6    H2    S    
O12   C27   A    
C7    H3    S    
O5    C3    A    
C12   H7    S    
C8    H4    S    
O11   V4    S    
C19   H12   S    
C2    C26   S    
C25   C26   A    
O14   C28   A    
C25   H15   S    
O2    V1    S    
C22   H14   S    
C21   H13   S    
C17   C18   A    
C23   C27   S    
C22   C23   A    
C23   C24   A    
C21   C22   A    
C9    C10   A    
O14   V3    S    
O4    C2    A    
C24   C25   A    
O1    C2    A    
V1    O10   S    
C1    C20   S    
C15   C16   A    
C9    H5    S    
C7    C8    D    
O15   V3    S    
C5    C7    S    
V2    O10   S    
C13   H8    S    
O12   V3    S    
V4    O20   S    
C10   H6    S    
O7    V2    S    
C13   C14   A    
