data_mof_unit_38346.cif
_audit_creation_date              2012-12-10T17:44:37-0500
_audit_creation_method            fapswitch 2.2
_symmetry_space_group_name_H-M    P1
_symmetry_Int_Tables_number       1
_space_group_crystal_system       triclinic
_cell_length_a                    9.976366
_cell_length_b                    10.713354
_cell_length_c                    15.386581
_cell_angle_alpha                 91.494872
_cell_angle_beta                  76.209352
_cell_angle_gamma                 92.397003
_cell_volume                      1595.49907804

loop_
_atom_site_label
_atom_site_type_symbol
_atom_type_description
_atom_site_fract_x
_atom_site_fract_y
_atom_site_fract_z
_atom_type_partial_charge
Br1   Br    Br    0.049397 0.224420 0.068161 -0.477187
Br2   Br    Br    0.803624 0.876262 0.502569 -0.562671
Br3   Br    Br    0.445424 0.766343 0.290057 -0.493498
Br4   Br    Br    0.391719 0.273703 0.268688 -0.550672
C1    C     C_R   0.507478 0.739177 0.489766 0.955699
C2    C     C_R   0.694312 0.378197 0.057864 0.010165
C3    C     C_R   0.552083 0.369373 0.101069 0.000597
C4    C     C_R   0.420351 0.476801 0.670221 0.916789
C5    C     C_R   0.788200 0.450633 0.095699 0.564987
C6    C     C_R   0.741052 0.499372 0.181858 -0.363938
C7    C     C_R   0.517642 0.391218 0.193785 0.195120
C8    C     C_R   0.350285 0.877526 0.382169 0.212664
C9    C     C_R   0.224147 0.924189 0.374804 0.506701
C10   C     C_R   0.172318 0.027672 0.426806 -0.310278
C11   C     C_R   0.247690 0.088967 0.482282 0.536688
C12   C     C_R   0.423953 0.337457 0.895186 -0.142760
C13   C     C_R   0.383496 0.050651 0.480952 -0.107556
C14   C     C_R   0.419535 0.932248 0.444746 -0.140978
C15   C     C_R   0.524681 0.872453 0.471892 -0.154978
C16   C     C_R   0.494217 0.259267 0.506579 0.943611
C17   C     C_R   0.626613 0.942779 0.502786 0.196736
C18   C     C_R   0.604278 0.067343 0.526992 0.456295
C19   C     C_R   0.485901 0.123261 0.512573 -0.222323
C20   C     C_R   0.818885 0.644803 0.626135 -0.219795
C21   C     C_R   0.866292 0.722345 0.688132 0.467534
C22   C     C_R   0.008389 0.729786 0.684820 0.412071
C23   C     C_R   0.278296 0.325619 0.928343 -0.096297
C24   C     C_R   0.098082 0.657757 0.621384 -0.296305
C25   C     C_R   0.051726 0.574402 0.561352 0.073454
C26   C     C_R   0.907591 0.571124 0.562699 -0.042001
C27   C     C_R   0.947595 0.433644 0.437790 0.517078
C28   C     C_R   0.579632 0.492185 0.326948 1.000717
C29   C     C_R   0.090365 0.430568 0.440697 -0.201431
C30   C     C_R   0.386405 0.406592 0.753654 -0.208499
C31   C     C_R   0.610501 0.464585 0.232066 -0.129200
C32   C     C_R   0.192364 0.341087 0.868601 0.594935
C33   C     C_R   0.253638 0.356180 0.778535 -0.434524
C34   C     C_R   0.508550 0.319934 0.955015 0.120408
C35   C     C_R   0.478893 0.385086 0.807795 0.477039
C36   C     C_3   0.979123 0.589776 0.059534 -0.291142
C37   C     C_3   0.093355 0.755387 0.344839 -0.187301
C38   C     C_3   0.141471 0.121266 0.628411 -0.299910
C39   C     C_3   0.818423 0.157425 0.533374 -0.130244
C40   C     C_3   0.980837 0.360471 0.291446 -0.265043
C41   C     C_3   0.669219 0.739773 0.799804 -0.280182
C42   C     C_3   0.002802 0.811212 0.827177 -0.213637
C43   C     C_3   0.004965 0.454456 0.853593 -0.274714
C44   C     C_3   0.695990 0.343367 0.723527 -0.269188
C45   C     C_R   0.455350 0.338769 0.047791 0.066778
C46   C     C_R   0.310703 0.330812 0.079894 -0.242389
C47   C     C_R   0.225395 0.306232 0.020760 0.352679
C48   C     C_R   0.644363 0.281967 0.926455 -0.164051
C49   C     C_R   0.736888 0.310317 0.978509 -0.154946
H1    H     H_    0.072451 0.060621 0.424233 0.193079
H2    H     H_    0.903534 0.662986 0.058320 0.156626
H3    H     H_    0.069666 0.607957 0.003016 0.191080
H4    H     H_    0.017444 0.596816 0.121655 0.172771
H5    H     H_    0.058054 0.750336 0.419029 0.164672
H6    H     H_    0.166920 0.680510 0.319709 0.180310
H7    H     H_    0.001590 0.735869 0.317027 0.193779
H8    H     H_    0.233007 0.112306 0.656931 0.186026
H9    H     H_    0.086861 0.028659 0.626603 0.206078
H10   H     H_    0.068314 0.182884 0.673816 0.179561
H11   H     H_    0.845298 0.254970 0.548183 0.157166
H12   H     H_    0.714034 0.652457 0.623480 0.249068
H13   H     H_    0.837230 0.145178 0.459329 0.199235
H14   H     H_    0.890002 0.101398 0.559932 0.201282
H15   H     H_    0.061240 0.290018 0.285132 0.201435
H16   H     H_    0.028008 0.454877 0.272023 0.133272
H17   H     H_    0.917444 0.332753 0.243584 0.246654
H18   H     H_    0.705982 0.661147 0.832973 0.174714
H19   H     H_    0.590227 0.705540 0.763899 0.188576
H20   H     H_    0.617977 0.805014 0.853466 0.193365
H21   H     H_    0.950479 0.719521 0.848569 0.111211
H22   H     H_    0.928044 0.886889 0.845656 0.221996
H23   H     H_    0.204414 0.673111 0.620160 0.248566
H24   H     H_    0.083047 0.828290 0.865552 0.173289
H25   H     H_    0.982906 0.418483 0.790103 0.141143
H26   H     H_    0.079243 0.536249 0.841059 0.155382
H27   H     H_    0.906362 0.489772 0.893703 0.211020
H28   H     H_    0.723332 0.379223 0.655062 0.223189
H29   H     H_    0.795585 0.334767 0.742228 0.147945
H30   H     H_    0.647310 0.247868 0.723452 0.197885
H31   H     H_    0.159656 0.371082 0.395108 0.200194
H32   H     H_    0.810346 0.554058 0.213537 0.179172
H33   H     H_    0.839002 0.277171 0.957508 0.263366
H34   H     H_    0.189322 0.352623 0.731100 0.206232
H35   H     H_    0.261534 0.338350 0.149830 0.199526
H36   H     H_    0.677961 0.228205 0.865793 0.160145
N1    N     N_R   0.856800 0.501200 0.500850 -0.148562
N2    N     N_R   0.142390 0.501280 0.500880 -0.104467
O1    O     O_R   0.385310 0.683220 0.500000 -0.640319
O2    O     O_3   0.152342 0.873521 0.314815 -0.554662
O3    O     O_3   0.179870 0.175996 0.543226 -0.603120
O4    O     O_3   0.681092 0.129105 0.580526 -0.636815
O5    O     O_3   0.893581 0.359448 0.378217 -0.595699
O6    O     O_3   0.779051 0.805638 0.741930 -0.589053
O7    O     O_3   0.067121 0.816523 0.734912 -0.620176
O8    O     O_3   0.052037 0.357523 0.899613 -0.565439
O9    O     O_3   0.615111 0.429395 0.783033 -0.633666
O10   O     O_R   0.614640 0.683250 0.500010 -0.596999
O11   O     O_R   0.319840 0.499980 0.632240 -0.643989
O12   O     O_R   0.549160 0.500000 0.632250 -0.643379
O13   O     O_R   0.385360 0.316750 0.499990 -0.553461
O14   O     O_R   0.614690 0.316780 0.500000 -0.585058
O15   O     O_R   0.450840 0.500000 0.367750 -0.582193
O16   O     O_R   0.680160 0.500020 0.367760 -0.582115
O17   O     O_3   0.924643 0.467969 0.048597 -0.558335
Zn1   Zn    Zn3+2 0.346880 0.499980 0.499990 0.987911
Zn2   Zn    Zn3+2 0.653120 0.500020 0.500010 0.989476

loop_
_geom_bond_atom_site_label_1
_geom_bond_atom_site_label_2
_ccdc_geom_bond_type
O14   Zn2   S    
C6    H32   S    
C41   H18   S    
C30   C33   A    
C18   O4    S    
C43   H26   S    
C26   N1    A    
C2    C5    A    
C34   C45   A    
C5    O17   S    
C3    C7    A    
C13   C19   A    
O12   Zn2   S    
C32   C33   A    
C15   C17   A    
C37   H5    S    
C29   N2    A    
O13   Zn1   S    
O1    Zn1   S    
C34   C48   A    
C27   O5    S    
C43   O8    S    
C44   H28   S    
C41   H20   S    
C14   C15   A    
Br3   C8    S    
C37   O2    S    
C36   H3    S    
C28   O16   A    
C39   O4    S    
C27   C29   A    
C40   H17   S    
C6    C31   A    
C5    C6    A    
C38   H9    S    
C46   H35   S    
C36   O17   S    
C27   N1    A    
C12   C23   A    
C42   O7    S    
C28   O15   A    
C9    C10   A    
C41   H19   S    
C48   H36   S    
C43   H27   S    
C11   O3    S    
C42   H22   S    
C4    O12   A    
C23   C47   A    
C39   H11   S    
C13   C14   A    
C44   O9    S    
C1    O10   A    
C30   C35   A    
C28   C31   S    
C20   C21   A    
C3    C45   A    
C21   C22   A    
C9    O2    S    
C25   C26   A    
C40   O5    S    
C10   C11   A    
C16   C19   S    
C36   H2    S    
Br2   C17   S    
C46   C47   A    
C40   H16   S    
C4    C30   S    
Br4   C7    S    
Br1   C47   S    
C38   H8    S    
C37   H6    S    
C49   H33   S    
C20   H12   S    
C22   O7    S    
C1    C15   S    
C21   O6    S    
C10   H1    S    
O16   Zn2   S    
C40   H15   S    
N1    Zn2   S    
C2    C49   A    
C24   H23   S    
C42   H21   S    
C48   C49   A    
C16   O14   A    
C11   C13   A    
C24   C25   A    
C36   H4    S    
C38   O3    S    
C33   H34   S    
C37   H7    S    
C42   H24   S    
C2    C3    A    
C16   O13   A    
C23   C32   A    
C22   C24   A    
C44   H30   S    
N2    Zn1   S    
C7    C31   A    
O10   Zn2   S    
C41   O6    S    
C35   O9    S    
C39   H13   S    
C44   H29   S    
C32   O8    S    
C29   H31   S    
C20   C26   A    
C1    O1    A    
C12   C35   A    
C8    C9    A    
C39   H14   S    
C45   C46   A    
C8    C14   A    
C18   C19   A    
O11   Zn1   S    
C43   H25   S    
C17   C18   A    
C4    O11   A    
C38   H10   S    
O15   Zn1   S    
C12   C34   A    
C25   N2    A    
