data_mof_unit_41814.cif
_audit_creation_date              2012-10-26T18:43:50-0400
_audit_creation_method            fapswitch 2.2
_symmetry_space_group_name_H-M    P1
_symmetry_Int_Tables_number       1
_space_group_crystal_system       triclinic
_cell_length_a                    9.532827
_cell_length_b                    10.820575
_cell_length_c                    17.353823
_cell_angle_alpha                 90.418658
_cell_angle_beta                  85.255209
_cell_angle_gamma                 90.014916
_cell_volume                      1783.87624931

loop_
_atom_site_label
_atom_site_type_symbol
_atom_type_description
_atom_site_fract_x
_atom_site_fract_y
_atom_site_fract_z
_atom_type_partial_charge
C1    C     C_R   0.500051 0.737665 0.500993 0.554735
C2    C     C_R   0.530180 0.505019 0.265611 0.015612
C3    C     C_R   0.382198 0.936792 0.534617 0.008593
C4    C     C_R   0.480573 0.497834 0.650011 0.562899
C5    C     C_R   0.501900 0.870826 0.506937 0.009493
C6    C     C_R   0.628279 0.935627 0.489560 -0.164236
C7    C     C_R   0.627885 0.064249 0.489019 -0.169247
C8    C     C_R   0.501593 0.129324 0.506758 -0.001106
C9    C     C_R   0.382112 0.063952 0.534968 0.014414
C10   C     C_3   0.231847 0.070429 0.516145 -0.123033
C11   C     C_3   0.232450 0.929115 0.515640 -0.249449
C12   C     C_R   0.338107 0.505010 0.778624 0.270769
C13   C     C_R   0.931682 0.406670 0.464548 0.154212
C14   C     C_R   0.919235 0.584589 0.541913 -0.023975
C15   C     C_R   0.068245 0.584517 0.541971 -0.013876
C16   C     C_R   0.499999 0.262352 0.500894 0.541806
C17   C     C_R   0.079047 0.406509 0.464648 0.151150
C18   C     C_3   0.097611 0.370432 0.381401 -0.274346
C19   C     C_3   0.938568 0.371490 0.381245 -0.281602
C20   C     C_R   0.519060 0.501115 0.350057 0.545331
C21   C     C_R   0.468191 0.487689 0.734493 0.022440
C22   C     C_R   0.588197 0.455474 0.771548 -0.183800
C23   C     C_R   0.421136 0.540874 0.146862 -0.109339
C24   C     C_R   0.581372 0.445597 0.851311 -0.128926
C25   C     C_R   0.454850 0.470295 0.895744 -0.001652
C26   C     C_R   0.333415 0.497928 0.859268 -0.096508
C27   C     C_3   0.136381 0.129529 0.582195 -0.253296
C28   C     C_3   0.980689 0.119373 0.566958 -0.306587
C29   C     C_3   0.887914 0.192221 0.627212 -0.439834
C30   C     C_3   0.124733 0.439988 0.744691 -0.115596
C31   C     C_R   0.412860 0.539496 0.227043 -0.134808
C32   C     C_R   0.656962 0.474840 0.222826 -0.129747
C33   C     C_R   0.665379 0.476463 0.142441 -0.116220
C34   C     C_R   0.546776 0.506770 0.104133 0.041993
C35   C     C_2   0.446880 0.470408 0.980427 -0.132550
C36   C     C_2   0.556879 0.502693 0.019533 -0.130551
Cu1   Cu    Cu3+1 0.359330 0.500020 0.500000 0.943273
Cu2   Cu    Cu3+1 0.640670 0.499980 0.500000 0.923357
H1    H     H_    0.687963 0.437270 0.738863 0.129455
H2    H     H_    0.148832 0.443445 0.344313 0.150587
H3    H     H_    0.314886 0.566339 0.258745 0.115135
H4    H     H_    0.144018 0.276713 0.372690 0.114621
H5    H     H_    0.900550 0.446455 0.345064 0.146284
H6    H     H_    0.892765 0.278610 0.371985 0.114736
H7    H     H_    0.748622 0.447784 0.251149 0.110049
H8    H     H_    0.657963 0.524717 0.989330 0.116702
H9    H     H_    0.235585 0.517597 0.893510 0.107000
H10   H     H_    0.329666 0.569751 0.118612 0.101697
H11   H     H_    0.346111 0.448402 0.011082 0.112777
H12   H     H_    0.763419 0.451188 0.110110 0.097820
H13   H     H_    0.675415 0.418656 0.877830 0.110986
H14   H     H_    0.901100 0.156863 0.686102 0.141093
H15   H     H_    0.915845 0.291873 0.624918 0.149784
H16   H     H_    0.775753 0.182331 0.615480 0.167615
H17   H     H_    0.964935 0.155736 0.508641 0.154937
H18   H     H_    0.947620 0.020864 0.568680 0.159940
H19   H     H_    0.153419 0.085070 0.638309 0.147873
H20   H     H_    0.165010 0.228690 0.586859 0.174055
H21   H     H_    0.175180 0.356347 0.716718 0.114076
H22   H     H_    0.035130 0.465494 0.711076 0.132531
H23   H     H_    0.725510 0.887567 0.471987 0.130589
H24   H     H_    0.081150 0.418676 0.804538 0.097020
H25   H     H_    0.724491 0.112059 0.470558 0.127788
H26   H     H_    0.220440 0.111308 0.458375 0.137063
H27   H     H_    0.164256 0.886242 0.563199 0.129833
H28   H     H_    0.221650 0.888558 0.457371 0.129313
H29   H     H_    0.858444 0.654529 0.574592 0.119656
H30   H     H_    0.119276 0.654088 0.574874 0.134836
N1    N     N_R   0.852130 0.499070 0.499500 -0.231888
N2    N     N_R   0.148040 0.499110 0.499500 -0.236516
O1    O     O_R   0.381190 0.680360 0.500000 -0.505042
O2    O     O_R   0.618770 0.680320 0.499990 -0.511310
O3    O     O_R   0.367430 0.500040 0.613600 -0.458007
O4    O     O_R   0.605020 0.500000 0.613590 -0.521575
O5    O     O_R   0.381230 0.319680 0.500010 -0.511583
O6    O     O_R   0.618810 0.319640 0.500000 -0.508552
O7    O     O_R   0.394980 0.500000 0.386410 -0.510702
O8    O     O_R   0.632570 0.499960 0.386400 -0.505196
O9    O     O_3   0.219119 0.540530 0.743852 -0.555276

loop_
_geom_bond_atom_site_label_1
_geom_bond_atom_site_label_2
_ccdc_geom_bond_type
C10   C27   S    
C16   O5    A    
C32   H7    S    
C35   C36   D    
C28   H18   S    
C7    C8    A    
Cu2   O6    S    
C1    O1    A    
C13   N1    A    
C20   O7    A    
C1    C5    S    
C6    H23   S    
C28   C29   S    
C18   H4    S    
C5    C6    A    
C29   H16   S    
C15   H30   S    
C12   O9    S    
C2    C32   A    
C18   C19   S    
C18   H2    S    
C8    C9    A    
C30   H22   S    
C35   H11   S    
C14   H29   S    
C36   H8    S    
C9    C10   S    
C4    O4    A    
C11   H28   S    
C24   H13   S    
Cu1   O5    S    
Cu2   N1    S    
C17   N2    A    
C8    C16   S    
Cu1   N2    S    
C28   H17   S    
C19   H5    S    
C33   C34   A    
Cu2   O2    S    
C1    O2    A    
C13   C19   S    
C2    C20   S    
C24   C25   A    
C27   H19   S    
Cu2   O8    S    
C25   C26   A    
Cu1   O7    S    
C12   C21   A    
C12   C26   A    
C2    C31   A    
C23   C31   A    
Cu1   Cu2   S    
C3    C9    A    
C23   C34   A    
C30   H21   S    
C17   C18   S    
C7    H25   S    
C4    O3    A    
C26   H9    S    
C25   C35   S    
C30   O9    S    
C30   H24   S    
C14   N1    A    
C22   C24   A    
C19   H6    S    
Cu2   O4    S    
C15   N2    A    
Cu1   O3    S    
C23   H10   S    
C31   H3    S    
C16   O6    A    
C10   H26   S    
C3    C5    A    
C27   H20   S    
C6    C7    A    
C20   O8    A    
C13   C17   A    
C32   C33   A    
Cu1   O1    S    
C33   H12   S    
C4    C21   S    
C29   H15   S    
C22   H1    S    
C34   C36   S    
C3    C11   S    
C10   C11   S    
C27   C28   S    
C14   C15   A    
C21   C22   A    
C11   H27   S    
C29   H14   S    
