data_mof_unit_7815.cif
_audit_creation_date              2012-12-10T17:17:31-0500
_audit_creation_method            fapswitch 2.2
_symmetry_space_group_name_H-M    P1
_symmetry_Int_Tables_number       1
_space_group_crystal_system       triclinic
_cell_length_a                    10.186558
_cell_length_b                    10.829235
_cell_length_c                    12.387086
_cell_angle_alpha                 90.639112
_cell_angle_beta                  109.108947
_cell_angle_gamma                 96.035624
_cell_volume                      1282.48908742

loop_
_atom_site_label
_atom_site_type_symbol
_atom_type_description
_atom_site_fract_x
_atom_site_fract_y
_atom_site_fract_z
_atom_type_partial_charge
C1    C     C_R   0.050186 0.732225 0.489649 0.952666
C2    C     C_R   0.210786 0.525607 0.835637 -0.122479
C3    C     C_2   0.073225 0.863507 0.474174 -0.386547
C4    C     C_R   0.133350 0.507997 0.713779 0.869703
C5    C     C_2   0.969403 0.931559 0.468122 -0.148372
C6    C     C_2   0.910178 0.134474 0.497393 -0.385225
C7    C     C_2   0.991724 0.063718 0.465175 -0.150209
C8    C     C_2   0.432638 0.510920 0.509804 -0.124489
C9    C     C_2   0.567499 0.488517 0.490770 -0.138459
C10   C     C_R   0.946365 0.267355 0.504445 0.937183
C11   C     C_R   0.866144 0.488298 0.286594 0.872902
C12   C     C_R   0.445556 0.545202 0.974238 0.057736
C13   C     C_R   0.746532 0.369960 0.982187 -0.201342
C14   C     C_R   0.792332 0.475639 0.164967 -0.058405
C15   C     C_R   0.171999 0.613299 0.899598 -0.244621
C16   C     C_R   0.272197 0.676202 0.993618 -0.150318
C17   C     C_R   0.411843 0.652406 0.024580 0.209007
C18   C     C_3   0.518985 0.755138 0.094846 -0.963560
C19   C     C_R   0.342394 0.481772 0.878601 0.045281
C20   C     C_R   0.576947 0.498400 0.013590 0.082210
C21   C     C_R   0.612829 0.409488 0.945965 0.171154
C22   C     C_R   0.510423 0.351274 0.850386 -0.248775
C23   C     C_R   0.374513 0.379841 0.823071 -0.181690
C24   C     C_R   0.664906 0.523395 0.125175 -0.275988
C25   C     C_R   0.837732 0.404996 0.091625 -0.192915
H1    H     H_    0.937366 0.367803 0.121998 0.156840
H2    H     H_    0.628889 0.570360 0.185495 0.186110
H3    H     H_    0.069396 0.645067 0.868641 0.170022
H4    H     H_    0.243758 0.753592 0.034119 0.151535
H5    H     H_    0.294860 0.322932 0.755877 0.164302
H6    H     H_    0.081852 0.103138 0.443104 0.187148
H7    H     H_    0.565310 0.415500 0.429284 0.165659
H8    H     H_    0.527844 0.750434 0.186428 0.243203
H9    H     H_    0.622495 0.752616 0.083954 0.252416
H10   H     H_    0.486381 0.847280 0.065711 0.246098
H11   H     H_    0.869128 0.890885 0.472696 0.189007
H12   H     H_    0.820377 0.094620 0.519542 0.148823
H13   H     H_    0.173262 0.904620 0.469653 0.148541
H14   H     H_    0.434914 0.583600 0.571628 0.168913
H15   H     H_    0.684305 0.621884 0.602864 0.161602
H16   H     H_    0.315612 0.378335 0.396896 0.157914
H17   H     H_    0.532990 0.277239 0.801872 0.147557
H18   H     H_    0.776486 0.305417 0.929388 0.137991
N1    N     N_2   0.313640 0.446500 0.454900 -0.194411
N2    N     N_2   0.686360 0.553430 0.545150 -0.193124
O1    O     O_R   0.936910 0.692950 0.509080 -0.611296
O2    O     O_R   0.138320 0.658600 0.480130 -0.606915
O3    O     O_R   0.002900 0.525670 0.675280 -0.608269
O4    O     O_R   0.204310 0.491320 0.646330 -0.606069
O5    O     O_R   0.861680 0.341400 0.519870 -0.608696
O6    O     O_R   0.063090 0.307050 0.490920 -0.617228
O7    O     O_R   0.795690 0.508680 0.353670 -0.616758
O8    O     O_R   0.997100 0.474330 0.324720 -0.613504
Zn1   Zn    Zn3+2 0.865520 0.522940 0.519330 0.933554
Zn2   Zn    Zn3+2 0.134480 0.477060 0.480670 0.934588

loop_
_geom_bond_atom_site_label_1
_geom_bond_atom_site_label_2
_ccdc_geom_bond_type
C12   C17   A    
C6    C10   S    
C19   C23   A    
C23   H5    S    
C9    N2    D    
C6    C7    D    
C8    H14   S    
C18   H10   S    
C2    C4    S    
C11   O8    A    
C24   H2    S    
C4    O4    A    
O4    Zn2   S    
O1    Zn1   S    
C17   C18   S    
C16   H4    S    
C6    H12   S    
C13   C21   A    
O5    Zn1   S    
C21   C22   A    
O3    Zn1   S    
C2    C15   A    
C18   H9    S    
N1    Zn2   S    
C13   C25   A    
C15   H3    S    
C22   H17   S    
C12   C20   A    
C10   O6    A    
C12   C19   A    
C18   H8    S    
O7    Zn1   S    
N2    Zn1   S    
O6    Zn2   S    
O8    Zn2   S    
C14   C25   A    
H15   N2    S    
H16   N1    S    
C1    O1    A    
C7    H6    S    
C15   C16   A    
C10   O5    A    
C5    H11   S    
C8    N1    D    
C13   H18   S    
C16   C17   A    
C20   C21   A    
O2    Zn2   S    
C4    O3    A    
C14   C24   A    
C11   C14   S    
C5    C7    S    
C22   C23   A    
C1    O2    A    
C11   O7    A    
C9    H7    S    
C3    C5    D    
C25   H1    S    
C2    C19   A    
C20   C24   A    
C3    H13   S    
C8    C9    S    
C1    C3    S    
