data_mof_unit_46857.cif
_audit_creation_date              2012-12-10T19:10:05-0500
_audit_creation_method            fapswitch 2.2
_symmetry_space_group_name_H-M    P1
_symmetry_Int_Tables_number       1
_space_group_crystal_system       triclinic
_cell_length_a                    10.95021
_cell_length_b                    10.72783
_cell_length_c                    9.630949
_cell_angle_alpha                 89.805864
_cell_angle_beta                  91.112692
_cell_angle_gamma                 89.576697
_cell_volume                      1131.11549314

loop_
_atom_site_label
_atom_site_type_symbol
_atom_type_description
_atom_site_fract_x
_atom_site_fract_y
_atom_site_fract_z
_atom_type_partial_charge
C1    C     C_R   0.500581 0.262918 0.500074 0.801854
C2    C     C_R   0.159701 0.661507 0.982511 0.362571
C3    C     C_R   0.931587 0.496707 0.377929 -0.257582
C4    C     C_R   0.871928 0.494902 0.504347 -0.087241
C5    C     C_R   0.942588 0.493462 0.628175 -0.005964
C6    C     C_R   0.068820 0.482337 0.621510 -0.187922
C7    C     C_R   0.128426 0.495302 0.495289 -0.055439
C8    C     C_R   0.057548 0.508483 0.371981 0.006354
C9    C     C_R   0.882542 0.657819 0.792073 -0.087499
C10   C     C_R   0.853973 0.696571 0.925410 -0.180293
C11   C     C_R   0.834326 0.608315 0.028958 -0.147967
C12   C     C_R   0.262385 0.499796 0.498296 0.850194
C13   C     C_R   0.841645 0.480755 0.998930 -0.136970
C14   C     C_R   0.873387 0.441651 0.866329 -0.135869
C15   C     C_R   0.894037 0.530356 0.762745 0.148238
C16   C     C_R   0.607746 0.063153 0.487655 0.121599
C17   C     C_R   0.498841 0.129712 0.498196 -0.132908
C18   C     C_R   0.387285 0.067085 0.486952 -0.251531
C19   C     C_R   0.386112 0.936763 0.485489 0.437547
C20   C     C_R   0.497456 0.870584 0.496604 -0.146932
C21   C     C_R   0.607027 0.934821 0.487040 0.039332
C22   C     C_3   0.720415 0.926011 0.575180 -0.478457
C23   C     C_R   0.500012 0.737107 0.499598 0.890668
C24   C     C_3   0.720946 0.067722 0.576340 -0.448900
C25   C     C_R   0.557082 0.591897 0.073138 0.168309
C26   C     C_R   0.453699 0.403025 0.073493 -0.052930
C27   C     C_R   0.453696 0.403012 0.925207 -0.079603
C28   C     C_R   0.558734 0.590742 0.927448 0.229289
C29   C     C_3   0.542028 0.728364 0.917085 -0.479981
C30   C     C_3   0.540685 0.731055 0.075002 0.184562
C31   C     C_R   0.737691 0.499212 0.501663 0.765871
C32   C     C_R   0.113943 0.738350 0.086306 -0.074553
C33   C     C_R   0.086733 0.688253 0.215636 -0.120807
C34   C     C_R   0.104235 0.560554 0.241970 0.141185
C35   C     C_R   0.148711 0.483184 0.137298 -0.164519
C36   C     C_R   0.177563 0.534095 0.008298 -0.162092
Cu1   Cu    Cu3+1 0.499990 0.499980 0.640670 0.976533
Cu2   Cu    Cu3+1 0.500010 0.500020 0.359330 0.992293
H1    H     H_    0.810161 0.639972 0.131214 0.119674
H2    H     H_    0.823253 0.411904 0.077873 0.131444
H3    H     H_    0.883054 0.343101 0.844727 0.120455
H4    H     H_    0.301970 0.118982 0.483220 0.160673
H5    H     H_    0.704285 0.884132 0.678762 0.194883
H6    H     H_    0.798032 0.884774 0.517967 0.203188
H7    H     H_    0.704611 0.108205 0.680586 0.200222
H8    H     H_    0.799075 0.108223 0.520119 0.199498
H9    H     H_    0.412345 0.326080 0.127486 0.141931
H10   H     H_    0.098995 0.836732 0.066621 0.162199
H11   H     H_    0.412186 0.326140 0.869973 0.143037
H12   H     H_    0.622435 0.775440 0.873511 0.151906
H13   H     H_    0.454180 0.755522 0.866113 0.278418
H14   H     H_    0.620545 0.779771 0.121921 0.097566
H15   H     H_    0.048113 0.748150 0.294005 0.173572
H16   H     H_    0.159371 0.383924 0.154978 0.129922
H17   H     H_    0.212598 0.474089 0.928557 0.137033
H18   H     H_    0.879224 0.500530 0.282915 0.159228
H19   H     H_    0.120864 0.475515 0.717464 0.168426
H20   H     H_    0.900239 0.726971 0.712902 0.148003
H21   H     H_    0.847405 0.794990 0.948719 0.131464
N1    N     N_R   0.500790 0.500930 0.147930 -0.167704
N2    N     N_R   0.500790 0.500890 0.852020 -0.170241
O1    O     O_R   0.500000 0.319640 0.618810 -0.592272
O2    O     O_R   0.500010 0.319680 0.381230 -0.590569
O3    O     O_R   0.319640 0.499990 0.618790 -0.566090
O4    O     O_R   0.319650 0.500030 0.381210 -0.559889
O5    O     O_R   0.499990 0.680320 0.618770 -0.575208
O6    O     O_R   0.500000 0.680360 0.381190 -0.528297
O7    O     O_R   0.680350 0.499970 0.618790 -0.577930
O8    O     O_R   0.680360 0.500010 0.381210 -0.602893
Br1   Br    Br    0.197219 0.732428 0.806936 -0.501914
Cl1   Cl    Cl    0.244978 0.859956 0.474121 -0.595215
Cl2   Cl    Cl    0.397486 0.786384 0.135108 -0.564959

loop_
_geom_bond_atom_site_label_1
_geom_bond_atom_site_label_2
_ccdc_geom_bond_type
C30   Cl2   S    
Cu2   O4    S    
C16   C21   A    
C25   N1    A    
C11   C13   A    
C3    H18   S    
C1    C17   S    
C22   H5    S    
C20   C23   S    
C10   H21   S    
C24   H8    S    
C32   C33   A    
C20   C21   A    
C19   Cl1   S    
Cu1   O1    S    
C9    C15   A    
Cu2   O8    S    
C7    C8    A    
C16   C24   S    
C36   H17   S    
C8    C34   S    
C13   C14   A    
C28   N2    A    
C35   H16   S    
C11   H1    S    
C32   H10   S    
C6    H19   S    
C26   C27   A    
C29   C30   S    
C2    Br1   S    
C26   H9    S    
C14   H3    S    
Cu2   N1    S    
C24   H7    S    
C1    O2    A    
C23   O5    A    
C2    C32   A    
C28   C29   S    
Cu1   Cu2   S    
C33   C34   A    
Cu2   O2    S    
C6    C7    A    
C29   H12   S    
C18   H4    S    
Cu1   O5    S    
C33   H15   S    
C5    C6    A    
C12   O3    A    
C22   C24   S    
C7    C12   S    
C5    C15   S    
C4    C31   S    
C16   C17   A    
C10   C11   A    
C29   H13   S    
C2    C36   A    
C3    C4    A    
Cu1   O7    S    
C27   H11   S    
C31   O8    A    
Cu1   O3    S    
C18   C19   A    
Cu2   O6    S    
C3    C8    A    
C1    O1    A    
C17   C18   A    
C34   C35   A    
C12   O4    A    
C23   O6    A    
C25   C30   S    
C30   H14   S    
C14   C15   A    
C9    H20   S    
C13   H2    S    
Cu1   N2    S    
C27   N2    A    
C21   C22   S    
C26   N1    A    
C31   O7    A    
C22   H6    S    
C19   C20   A    
C9    C10   A    
C4    C5    A    
C25   C28   A    
C35   C36   A    
