data_mof_unit_44823.cif
_audit_creation_date              2013-03-05T16:12:17-0500
_audit_creation_method            fapswitch 2.2
_symmetry_space_group_name_H-M    P1
_symmetry_Int_Tables_number       1
_space_group_crystal_system       triclinic
_cell_length_a                    8.354191
_cell_length_b                    16.21266
_cell_length_c                    26.842961
_cell_angle_alpha                 72.70807
_cell_angle_beta                  96.696978
_cell_angle_gamma                 96.029672
_cell_volume                      3438.19002743

loop_
_atom_site_label
_atom_site_type_symbol
_atom_site_description
_atom_site_fract_x
_atom_site_fract_y
_atom_site_fract_z
_atom_type_partial_charge
P1    P     P_3+3 0.610630 0.953360 0.619150 0.509169
O1    O     O_2   0.431310 0.922990 0.623550 -0.387942
O2    O     O_3   0.663280 0.983100 0.563360 -0.394633
O3    O     O_3   0.126250 0.812630 0.574830 -0.341986
O4    O     O_2   0.294003 0.785841 0.666952 -0.413741
O5    O     O_3   0.632847 0.039778 0.646329 -0.547343
O6    O     O_3   0.129090 0.651778 0.656384 -0.571717
C1    C     C_3   0.968047 0.524898 0.694895 -0.850777
H1    H     H_    0.056080 0.481980 0.689666 0.261091
H2    H     H_    0.999802 0.537009 0.733557 0.249842
P2    P     P_3+3 0.057260 0.861390 0.437850 0.522265
P3    P     P_3+3 0.501840 0.700967 0.527670 0.488973
O7    O     O_2   0.229950 0.835370 0.450810 -0.383172
O8    O     O_3   0.517580 0.797570 0.545130 -0.425514
O9    O     O_2   0.337682 0.693779 0.495542 -0.359358
O10   O     O_3   0.044011 0.904948 0.369772 -0.551286
O11   O     O_3   0.488716 0.612329 0.583867 -0.483383
C2    C     C_3   0.499024 0.643196 0.627778 0.520245
H3    H     H_    0.403216 0.687451 0.623495 0.177640
H4    H     H_    0.618334 0.678187 0.632759 0.001524
C3    C     C_3   0.476062 0.567474 0.676503 -0.820066
H5    H     H_    0.357057 0.531582 0.672145 0.279247
H6    H     H_    0.572552 0.522593 0.682555 0.254993
C4    C     C_3   0.569571 0.882111 0.378053 1.067567
H7    H     H_    0.570294 0.875964 0.420397 0.025952
C5    C     C_3   0.427345 0.820999 0.365018 -1.093192
H8    H     H_    0.416710 0.821468 0.323389 0.239842
H9    H     H_    0.440237 0.753819 0.390630 0.241040
H10   H     H_    0.312046 0.842880 0.369824 0.271840
Ba1   Ba    Ba6+2 0.337820 0.939830 0.518500 1.589872
C6    C     C_3   0.593912 0.116199 0.608102 0.419819
H11   H     H_    0.466768 0.109164 0.592431 0.055648
H12   H     H_    0.674448 0.132091 0.575975 0.150864
C7    C     C_3   0.615753 0.189419 0.633543 -0.914227
H13   H     H_    0.524120 0.179775 0.661989 0.251589
H14   H     H_    0.602555 0.252617 0.603519 0.221759
H15   H     H_    0.738432 0.190993 0.654346 0.285125
C8    C     C_3   0.128184 0.986184 0.355436 0.213374
H16   H     H_    0.249784 0.984342 0.376837 0.059730
H17   H     H_    0.060262 0.034610 0.364324 0.131397
C9    C     C_3   0.147939 0.010660 0.296639 -0.133582
H18   H     H_    0.197809 0.956241 0.287672 0.152528
H19   H     H_    0.235866 0.067379 0.285156 0.081456
P4    P     P_3+3 0.579040 0.046590 0.380840 0.490259
O12   O     O_2   0.758370 0.077020 0.376420 -0.326082
O13   O     O_3   0.526390 0.016840 0.436620 -0.424598
O14   O     O_3   0.063420 0.187310 0.425160 -0.400984
O15   O     O_3   0.546816 0.967358 0.346783 -0.616137
P5    P     P_3+3 0.684441 0.303422 0.467385 0.454308
O16   O     O_3   0.173250 0.067890 0.537260 -0.407633
O17   O     O_3   0.672100 0.202370 0.454860 -0.390094
O18   O     O_2   0.834187 0.306028 0.506652 -0.372989
O19   O     O_3   0.727735 0.391367 0.412087 -0.604707
Ba2   Ba    Ba6+2 0.851970 0.060110 0.481480 1.614287
P6    P     P_3+3 0.124034 0.764159 0.642856 0.439076
C10   C     C_3   0.973895 0.610586 0.651338 0.830558
H20   H     H_    0.876826 0.648656 0.655924 -0.063881
H21   H     H_    0.845536 0.491216 0.694545 0.240045
O20   O     O_3   0.016420 0.932050 0.462720 -0.381819
C11   C     C_3   0.116172 0.022066 0.657241 1.057848
H22   H     H_    0.114758 0.986431 0.627656 0.032633
C12   C     C_3   0.246996 0.983726 0.700950 -1.047942
H23   H     H_    0.261925 0.017238 0.731892 0.240768
H24   H     H_    0.217348 0.913475 0.718745 0.240470
H25   H     H_    0.365319 0.993283 0.685043 0.276695
P7    P     P_3+3 0.141747 0.147055 0.567564 0.494448
O21   O     O_2   0.959730 0.164640 0.549160 -0.309456
O22   O     O_3   0.155855 0.111533 0.636544 -0.605495
H26   H     H_    0.480861 0.591788 0.711242 0.227752
C13   C     C_3   0.663573 0.373736 0.365060 0.796010
H27   H     H_    0.693059 0.308926 0.364593 0.066250
C14   C     C_3   0.737439 0.440249 0.318451 -0.949614
H28   H     H_    0.865839 0.430815 0.318164 0.260672
H29   H     H_    0.675400 0.432239 0.281123 0.259854
H30   H     H_    0.726441 0.507199 0.319871 0.265748
P8    P     P_3+3 0.064484 0.242238 0.358689 0.518049
C15   C     C_3   0.097561 0.365438 0.403085 0.557257
H31   H     H_    0.191097 0.331665 0.432298 0.105249
O23   O     O_2   0.888061 0.234935 0.334689 -0.417417
O24   O     O_3   0.105668 0.353063 0.353538 -0.478846
H32   H     H_    0.980613 0.338873 0.418128 0.122714
H33   H     H_    0.246593 0.486908 0.390024 0.286876
C16   C     C_3   0.122500 0.461218 0.400106 -0.943058
H34   H     H_    0.106511 0.469336 0.438847 0.227405
H35   H     H_    0.034194 0.499453 0.370488 0.264437
C17   C     C_R   0.498081 0.265675 0.173385 0.551548
O25   O     O_2   0.505366 0.187111 0.187179 -0.562979
N1    N     N_R   0.449268 0.305961 0.207382 -0.168826
C18   C     C_R   0.438309 0.394957 0.191165 0.512484
C19   C     C_2   0.256419 0.257774 0.274434 -0.058354
C20   C     C_3   0.203827 0.196484 0.325575 0.192903
C21   C     C_1   0.474498 0.143511 0.342748 0.240952
C22   C     C_2   0.518691 0.193128 0.296480 -0.191228
C23   C     C_2   0.404702 0.254360 0.259337 0.076534
C24   C     C_R   0.525099 0.404707 0.105439 -0.061188
C25   C     C_R   0.536511 0.314329 0.122295 -0.069481
C26   C     C_R   0.585254 0.274164 0.087615 -0.061932
C27   C     C_R   0.476330 0.445109 0.140362 -0.064094
C28   C     C_2   0.346846 0.158954 0.362350 -0.387105
H36   H     H_    0.634899 0.187133 0.284183 0.216272
H37   H     H_    0.596926 0.204927 0.099466 0.177309
C29   C     C_2   0.830828 0.836506 0.639195 -0.414838
C30   C     C_R   0.637988 0.461940 0.966058 0.042324
C31   C     C_R   0.592227 0.596022 0.986175 0.041959
C32   C     C_R   0.632903 0.553610 0.950463 0.084127
C33   C     C_R   0.673262 0.422858 0.928285 -0.200594
C34   C     C_R   0.706091 0.471819 0.877813 -0.086096
C35   C     C_R   0.705803 0.562252 0.862329 -0.048017
C36   C     C_R   0.668945 0.603436 0.898552 -0.067297
C37   C     C_R   0.668053 0.694451 0.882828 -0.059350
C38   C     C_R   0.706490 0.742941 0.831710 0.526297
N2    N     N_R   0.743505 0.701779 0.796510 -0.163108
C39   C     C_R   0.741123 0.612188 0.811221 0.511210
C40   C     C_2   0.931847 0.746946 0.727892 -0.250748
C41   C     C_3   0.978243 0.806450 0.675300 0.172998
C42   C     C_1   0.711633 0.857979 0.659613 0.377252
C43   C     C_2   0.672574 0.814173 0.707616 -0.250413
C44   C     C_2   0.786683 0.752750 0.744385 0.169087
O26   O     O_2   0.768494 0.575701 0.779657 -0.623744
C45   C     C_R   0.606751 0.412495 0.018355 0.040026
C46   C     C_R   0.561690 0.454618 0.053593 0.086706
C47   C     C_R   0.552364 0.546041 0.037539 0.040843
C48   C     C_R   0.619650 0.321797 0.037034 -0.203645
H38   H     H_    0.019686 0.705480 0.753703 0.155595
H39   H     H_    0.732407 0.438049 0.850758 0.168134
H40   H     H_    0.674579 0.353877 0.936067 0.128888
H41   H     H_    0.658093 0.285049 0.013737 0.130276
O27   O     O_2   0.395887 0.430797 0.221031 -0.545492
C49   C     C_R   0.465395 0.534948 0.123726 -0.075685
H42   H     H_    0.168801 0.298356 0.247835 0.150800
H43   H     H_    0.427458 0.568028 0.149503 0.172532
C50   C     C_R   0.593486 0.687605 0.969022 -0.199426
C51   C     C_R   0.630508 0.735348 0.918723 -0.087524
O28   O     O_2   0.708995 0.821960 0.818835 -0.596829
C52   C     C_R   0.502336 0.584206 0.073720 -0.199816
H44   H     H_    0.568317 0.725249 0.993746 0.128623
H45   H     H_    0.629721 0.805239 0.908046 0.166182
H46   H     H_    0.558791 0.822620 0.720578 0.180501
H47   H     H_    0.488022 0.652427 0.064573 0.129112
H48   H     H_    0.338198 0.138573 0.404371 0.182741
H49   H     H_    0.813686 0.829028 0.599989 0.135771
C53   C     C_2   0.395680 0.248643 0.511590 -0.507967
C54   C     C_R   0.794676 0.762573 0.485864 -0.456125
C55   C     C_2   0.265370 0.316379 0.566189 0.163019
C56   C     C_2   0.266109 0.249528 0.544993 0.101906
C57   C     C_2   0.504015 0.316440 0.497447 0.286083
C58   C     C_3   0.464008 0.401778 0.502711 -0.179584
C59   C     C_3   0.395458 0.389803 0.554776 0.121599
C60   C     C_2   0.598433 0.471166 0.494929 0.012493
C61   C     C_2   0.562492 0.553753 0.476975 -0.134116
C62   C     C_R   0.826438 0.623425 0.447575 0.081436
C63   C     C_R   0.688656 0.625095 0.472353 0.009049
C64   C     C_R   0.945444 0.691752 0.440816 -0.230095
C65   C     C_R   0.928095 0.762035 0.459298 0.438795
C66   C     C_R   0.672482 0.695592 0.491486 0.214529
H50   H     H_    0.047358 0.691336 0.419449 0.146918
H51   H     H_    0.411477 0.188894 0.502940 0.182162
H52   H     H_    0.781970 0.817508 0.499779 0.153964
H53   H     H_    0.722405 0.455165 0.507972 0.187696
H54   H     H_    0.436791 0.568777 0.468021 0.160031
N3    N     N_R   0.944901 0.593154 0.600504 0.215129
O29   O     O_R   0.811668 0.550538 0.589279 -0.431756
O30   O     O_R   0.055775 0.614284 0.567715 -0.352236
N4    N     N_R   0.993902 0.030534 0.265628 0.275071
O31   O     O_R   0.918062 0.095135 0.268074 -0.379872
O32   O     O_R   0.940462 0.989751 0.231267 -0.389938
O33   O     O_3   0.959988 0.007422 0.675647 -0.650399
C67   C     C_3   0.951134 0.042305 0.717739 -0.093973
H55   H     H_    0.008720 0.109311 0.710662 0.161809
H56   H     H_    0.003637 0.998962 0.755035 0.131769
H57   H     H_    0.822741 0.044976 0.723251 0.189223
N5    N     N_R   0.489239 0.376991 0.359264 0.222932
O34   O     O_R   0.404182 0.312424 0.387287 -0.486818
O35   O     O_R   0.418431 0.444254 0.329033 -0.348953
N6    N     N_R   0.160737 0.314736 0.605669 0.263107
O36   O     O_R   0.011453 0.283147 0.603447 -0.337855
O37   O     O_R   0.207702 0.357530 0.639488 -0.386887
O38   O     O_3   0.719724 0.856825 0.369891 -0.667745
C68   C     C_3   0.724109 0.850160 0.318566 -0.037684
H58   H     H_    0.670791 0.905200 0.287778 0.186629
H59   H     H_    0.664474 0.787216 0.315345 0.098754
H60   H     H_    0.850926 0.849472 0.310749 0.194336

loop_
_geom_bond_atom_site_label_1
_geom_bond_atom_site_label_2
_geom_bond_distance
_ccdc_geom_bond_type
P7    O22   1.761678 S    
C51   H45   1.083610 S    
C22   C23   1.508374 S    
C2    C3    1.519569 S    
C9    H18   1.112114 S    
C53   C57   1.339580 D    
C43   H46   1.084521 S    
P8    O23   1.545501 D    
O6    P6    1.752881 S    
C55   C59   1.510317 S    
C1    C10   1.527358 S    
O38   C68   1.418546 S    
C24   C27   1.408538 A    
N6    O37   1.301382 A    
C15   H31   1.103202 S    
C42   C43   1.332889 D    
C52   H47   1.075823 S    
Ba1   Ba2   4.564524 S    
C5    H8    1.108418 S    
O16   Ba2   2.926718 S    
C61   H54   1.086245 S    
C21   C22   1.332859 D    
N4    O31   1.301026 A    
C58   C60   1.489945 S    
C4    C5    1.541968 S    
O14   P8    1.741889 S    
C7    H13   1.110738 S    
C8    H16   1.105877 S    
O2    Ba2   2.763647 S    
C17   N1    1.386650 Am   
C31   C47   1.433420 A    
C33   C34   1.393738 A    
C15   C16   1.524213 S    
C7    H15   1.110120 S    
C35   C36   1.408915 A    
C55   N6    1.442991 S    
C11   C12   1.538686 S    
P1    O1    1.533734 D    
C13   N5    1.451406 S    
C37   C38   1.418600 A    
N2    C39   1.385975 Am   
P7    C56   1.841854 S    
C12   H24   1.109798 S    
C29   C41   1.503447 S    
P2    C65   1.821798 S    
C1    H21   1.108691 S    
C39   O26   1.221324 D    
C48   H41   1.075971 S    
C67   H57   1.106735 S    
C58   C59   1.523463 S    
P2    Ba1   3.409491 S    
P4    O13   1.532228 S    
C1    H1    1.111029 S    
P5    O17   1.758313 S    
P3    O11   1.751995 S    
C62   C63   1.401373 A    
C6    H12   1.108872 S    
C13   H27   1.108072 S    
P1    C42   1.828897 S    
C2    H4    1.108329 S    
P4    C21   1.844534 S    
C45   C48   1.416918 A    
C68   H60   1.105580 S    
C40   H38   1.085647 S    
C24   C46   1.436273 A    
P3    C66   1.839187 S    
C67   H56   1.110199 S    
P7    O21   1.571533 D    
Ba1   O16   2.799480 S    
C8    H17   1.109869 S    
C49   C52   1.393691 A    
C3    H5    1.110185 S    
Ba1   O20   2.927573 S    
C9    H19   1.105699 S    
C53   C56   1.487664 S    
O6    C10   1.405780 S    
O8    Ba1   2.753715 S    
C14   H30   1.111057 S    
P2    O20   1.569817 S    
O19   C13   1.409627 S    
C31   C32   1.422735 A    
N3    O30   1.301622 A    
N5    O35   1.301971 A    
C19   C23   1.358936 D    
Ba2   O20   2.798888 S    
N1    C23   1.464747 S    
C11   O33   1.420741 S    
P1    O5    1.746762 S    
C4    O15   1.406819 S    
C68   H59   1.110262 S    
O7    Ba1   2.847561 S    
O1    Ba1   2.776613 S    
C4    H7    1.110456 S    
C34   H39   1.083700 S    
C8    C9    1.533102 S    
C14   H29   1.109733 S    
O33   C67   1.417779 S    
C17   O25   1.222228 D    
C2    H3    1.103990 S    
C54   C65   1.393588 A    
Ba2   O21   2.848035 S    
C10   N3    1.462294 S    
C3    H26   1.110407 S    
C11   H22   1.110717 S    
P1    O2    1.532476 S    
C35   C39   1.417233 A    
O2    Ba1   2.944948 S    
C12   H23   1.109266 S    
C60   H53   1.086462 S    
P2    O10   1.747136 S    
C54   C66   1.396330 A    
C16   H34   1.110899 S    
C63   C66   1.409241 A    
C15   H32   1.096960 S    
C50   H44   1.075826 S    
P5    O18   1.544553 D    
C25   C26   1.400349 A    
O13   Ba2   2.945800 S    
O11   C2    1.401826 S    
C6    C7    1.521898 S    
C30   C32   1.423066 A    
C64   H50   1.082266 S    
O16   P7    1.766307 S    
C22   H36   1.083756 S    
C46   C47   1.423177 A    
C40   C44   1.359975 D    
C17   C25   1.418610 A    
O14   Ba2   2.768219 S    
C67   H55   1.111975 S    
C29   H49   1.086177 S    
P3    O8    1.751754 S    
O12   Ba2   2.776831 S    
P3    O9    1.545452 D    
C3    H6    1.108184 S    
O3    P6    1.761830 S    
C4    O38   1.419551 S    
C61   C63   1.467383 S    
C28   H48   1.085885 S    
C10   H20   1.107837 S    
C34   C35   1.400218 A    
N5    O34   1.291065 A    
O5    C6    1.394583 S    
C45   C46   1.422620 A    
C54   H52   1.082091 S    
C57   C58   1.506750 S    
C15   O24   1.412877 S    
C12   H25   1.100182 S    
C32   C36   1.436135 A    
C38   N2    1.385679 Am   
C16   H35   1.107651 S    
O4    P6    1.540877 D    
C6    H11   1.103206 S    
P4    O12   1.534056 D    
P8    O24   1.760502 S    
C14   H28   1.100542 S    
C38   O28   1.222281 D    
C40   C41   1.520954 S    
C33   H40   1.075955 S    
C5    H9    1.110311 S    
Ba1   O13   2.763030 S    
C18   C27   1.417515 A    
C55   C56   1.366492 D    
O17   Ba2   2.754282 S    
N4    O32   1.300668 A    
C26   C48   1.394064 A    
N6    O36   1.299169 A    
N3    O29   1.300393 A    
C43   C44   1.506744 S    
N2    C44   1.462357 S    
P2    O7    1.517855 D    
C19   C20   1.517564 S    
P6    C41   1.868114 S    
P5    O19   1.768017 S    
C27   C49   1.400374 A    
P1    Ba1   3.369418 S    
C30   C45   1.433150 A    
P5    C57   1.849176 S    
C50   C51   1.394131 A    
C30   C33   1.416757 A    
C7    H14   1.106162 S    
C62   C64   1.392723 A    
O3    Ba1   2.768950 S    
C47   C52   1.416707 A    
C29   C42   1.314052 D    
P8    C20   1.873565 S    
C68   H58   1.112176 S    
C19   H42   1.085580 S    
P4    Ba2   3.369760 S    
N1    C18   1.387374 Am   
C11   O22   1.409028 S    
C5    H10   1.094654 S    
C1    H2    1.109933 S    
H33   C16   1.108680 S    
C31   C50   1.417110 A    
C9    N4    1.459648 S    
C36   C37   1.409575 A    
C24   C25   1.409243 A    
C37   C51   1.400137 A    
C13   C14   1.532048 S    
C53   H51   1.085090 S    
C20   C28   1.514205 S    
C64   C65   1.397531 A    
C60   C61   1.335039 D    
C26   H37   1.083626 S    
P4    O15   1.768154 S    
C21   C28   1.319887 D    
O10   C8    1.394429 S    
C49   H43   1.083650 S    
C18   O27   1.221616 D    
