data_mof_unit_63063.cif
_audit_creation_date              2012-12-10T21:27:24-0500
_audit_creation_method            fapswitch 2.2
_symmetry_space_group_name_H-M    P1
_symmetry_Int_Tables_number       1
_space_group_crystal_system       triclinic
_cell_length_a                    10.417251
_cell_length_b                    16.126428
_cell_length_c                    16.747746
_cell_angle_alpha                 88.373672
_cell_angle_beta                  91.192505
_cell_angle_gamma                 104.688167
_cell_volume                      2720.19393731

loop_
_atom_site_label
_atom_site_type_symbol
_atom_type_description
_atom_site_fract_x
_atom_site_fract_y
_atom_site_fract_z
_atom_type_partial_charge
C1    C     C_R   0.496955 0.488955 0.653168 0.959220
C2    C     C_R   0.504777 0.511287 0.346931 0.875736
C3    C     C_R   0.503654 0.408938 0.780996 -0.165998
C4    C     C_R   0.510045 0.592829 0.219015 -0.211161
C5    C     C_R   0.434977 0.753315 0.460734 -0.000033
C6    C     C_R   0.563843 0.246330 0.539825 -0.011723
C7    C     C_R   0.438278 0.841024 0.462954 -0.254779
C8    C     C_R   0.560304 0.158595 0.537616 -0.255387
C9    C     C_R   0.525706 0.894764 0.516579 0.320487
C10   C     C_R   0.473686 0.105082 0.483483 0.319311
C11   C     C_R   0.606592 0.857719 0.566266 -0.315674
C12   C     C_R   0.393669 0.142370 0.433382 -0.318602
C13   C     C_R   0.600454 0.769929 0.562307 0.115362
C14   C     C_R   0.400054 0.230208 0.437338 0.110472
C15   C     C_R   0.745746 0.534183 0.504404 0.946056
C16   C     C_R   0.254265 0.465395 0.502020 0.948400
C17   C     C_2   0.887640 0.549077 0.518247 -0.285608
C18   C     C_2   0.112654 0.448733 0.515978 -0.307845
C19   C     C_2   0.932144 0.498931 0.572667 0.339959
C20   C     C_2   0.069708 0.493547 0.572418 0.343750
C21   C     C_R   0.485239 0.481737 0.739414 -0.046340
C22   C     C_R   0.526193 0.519976 0.261442 -0.044218
C23   C     C_R   0.452350 0.547848 0.780498 -0.189873
C24   C     C_R   0.569796 0.456482 0.222497 -0.248426
C25   C     C_R   0.442601 0.543044 0.862958 -0.000892
C26   C     C_R   0.590646 0.463350 0.140816 0.008066
C27   C     C_R   0.469896 0.472280 0.904866 0.270429
C28   C     C_R   0.564765 0.533706 0.097592 0.276007
C29   C     C_R   0.495657 0.404326 0.863697 -0.170111
C30   C     C_R   0.529641 0.599583 0.137142 -0.179262
H1    H     H_    0.587694 0.401596 0.255578 0.171600
H2    H     H_    0.433984 0.603205 0.748478 0.198099
H3    H     H_    0.514799 0.349495 0.896073 0.165114
H4    H     H_    0.510866 0.653930 0.103773 0.163231
H5    H     H_    0.527378 0.356845 0.749901 0.183610
H6    H     H_    0.478991 0.643195 0.248651 0.165160
H7    H     H_    0.630026 0.286868 0.581516 0.189184
H8    H     H_    0.367887 0.712421 0.419582 0.146118
H9    H     H_    0.624531 0.133374 0.577876 0.169754
H10   H     H_    0.373177 0.866037 0.423163 0.164429
H11   H     H_    0.674516 0.897422 0.608063 0.157751
H12   H     H_    0.326196 0.102818 0.391276 0.156625
N1    N     N_2   0.478840 0.470179 0.988430 -0.180911
N2    N     N_2   0.559378 0.535189 0.013958 -0.182287
N3    N     N_R   0.515370 0.719110 0.509820 -0.103878
N4    N     N_R   0.484630 0.280890 0.490180 -0.111345
N5    N     N_2   0.536487 0.984938 0.523155 -0.172580
N6    N     N_2   0.462789 0.014890 0.476892 -0.173736
O1    O     O_R   0.494500 0.421750 0.612630 -0.610676
O2    O     O_R   0.505500 0.578250 0.387370 -0.629451
O3    O     O_R   0.504370 0.562470 0.618930 -0.604703
O4    O     O_R   0.495630 0.437530 0.381070 -0.621161
O5    O     O_R   0.679100 0.455920 0.498020 -0.585486
O6    O     O_R   0.320900 0.544080 0.501980 -0.578375
O7    O     O_R   0.688960 0.596630 0.504320 -0.608822
O8    O     O_R   0.311040 0.403370 0.495680 -0.606772
Zn1   Zn    Zn3+2 0.493410 0.406040 0.495790 0.985298
Zn2   Zn    Zn3+2 0.506590 0.593960 0.504210 0.990657
Cl1   Cl    Cl    0.175514 0.552366 0.646293 -0.580891
Cl2   Cl    Cl    0.828918 0.435902 0.645932 -0.607898
C31   C     C_1   0.685285 0.734335 0.614409 0.234344
N7    N     N_1   0.753799 0.706061 0.656492 -0.167779
C32   C     C_1   0.315769 0.265910 0.384940 0.236984
N8    N     N_1   0.247664 0.294230 0.342597 -0.193991
C33   C     C_1   0.021811 0.391254 0.463396 0.159083
N9    N     N_1   0.949086 0.345350 0.421417 -0.164974
C34   C     C_1   0.976556 0.610521 0.466949 0.156965
N10   N     N_1   0.047739 0.659591 0.426001 -0.189393
C35   C     C_1   0.636719 0.397547 0.102130 0.197123
N11   N     N_1   0.673620 0.344835 0.071111 -0.182365
C36   C     C_1   0.404343 0.610815 0.903439 0.224205
N12   N     N_1   0.373652 0.665104 0.935841 -0.185185

loop_
_geom_bond_atom_site_label_1
_geom_bond_atom_site_label_2
_ccdc_geom_bond_type
C2    C22   S    
C12   H12   S    
C7    H10   S    
C4    H6    S    
C1    C21   S    
C25   C36   S    
C8    H9    S    
C27   N1    S    
C19   Cl2   S    
C25   C27   A    
C4    C22   A    
C26   C28   A    
C19   C20   S    
C3    H5    S    
N1    N2    D    
C23   H2    S    
C16   O6    A    
C28   C30   A    
C6    H7    S    
C13   C31   S    
C36   N12   T    
C14   N4    A    
O3    Zn2   S    
C5    N3    A    
C5    H8    S    
C15   O7    A    
C20   Cl1   S    
C13   N3    A    
C1    O3    A    
C3    C29   A    
C35   N11   T    
C2    O4    A    
C16   O8    A    
C14   C32   S    
C10   C12   A    
C8    C10   A    
C17   C19   D    
C24   C26   A    
C11   H11   S    
C18   C20   D    
C9    C11   A    
N4    Zn1   S    
C10   N6    S    
C31   N7    T    
C22   C24   A    
N3    Zn2   S    
C24   H1    S    
C9    N5    S    
C3    C21   A    
O4    Zn1   S    
C30   H4    S    
C17   C34   S    
C34   N10   T    
C15   O5    A    
C29   H3    S    
C2    O2    A    
C11   C13   A    
C23   C25   A    
O1    Zn1   S    
O8    Zn1   S    
C16   C18   S    
C33   N9    T    
O6    Zn2   S    
O7    Zn2   S    
C27   C29   A    
C7    C9    A    
C26   C35   S    
O5    Zn1   S    
C5    C7    A    
C6    C8    A    
C6    N4    A    
C15   C17   S    
C1    O1    A    
C21   C23   A    
C28   N2    S    
C4    C30   A    
N5    N6    D    
C12   C14   A    
C32   N8    T    
C18   C33   S    
O2    Zn2   S    
