data_mof_unit_51561.cif
_audit_creation_date              2013-03-05T16:30:02-0500
_audit_creation_method            fapswitch 2.2
_symmetry_space_group_name_H-M    P1
_symmetry_Int_Tables_number       1
_space_group_crystal_system       triclinic
_cell_length_a                    18.310862
_cell_length_b                    18.310433
_cell_length_c                    22.433874
_cell_angle_alpha                 90.000661
_cell_angle_beta                  89.999502
_cell_angle_gamma                 89.998449
_cell_volume                      7521.62504965

loop_
_atom_site_label
_atom_site_type_symbol
_atom_site_description
_atom_site_fract_x
_atom_site_fract_y
_atom_site_fract_z
_atom_type_partial_charge
Zn1   Zn    Zn3+2 0.586760 0.000000 0.549450 1.111632
Zn2   Zn    Zn3+2 0.000000 0.586760 0.549450 1.111834
Zn3   Zn    Zn3+2 0.413240 0.000000 0.549450 1.111713
Zn4   Zn    Zn3+2 0.000000 0.413240 0.549450 1.111620
Zn5   Zn    Zn3+2 0.086760 0.500000 0.049450 1.111640
Zn6   Zn    Zn3+2 0.500000 0.086760 0.049450 1.111603
Zn7   Zn    Zn3+2 0.913240 0.500000 0.049450 1.111637
Zn8   Zn    Zn3+2 0.500000 0.913240 0.049450 1.111737
Zn9   Zn    Zn3+2 0.500000 0.086720 0.450540 1.095356
Zn10  Zn    Zn3+2 0.913280 0.500000 0.450540 1.095428
Zn11  Zn    Zn3+2 0.500000 0.913280 0.450540 1.095239
Zn12  Zn    Zn3+2 0.086720 0.500000 0.450540 1.095094
Zn13  Zn    Zn3+2 0.000000 0.586720 0.950540 1.095359
Zn14  Zn    Zn3+2 0.413280 1.000000 0.950540 1.095314
Zn15  Zn    Zn3+2 0.000000 0.413280 0.950540 1.095410
Zn16  Zn    Zn3+2 0.586720 1.000000 0.950540 1.095439
H1    H     H_    0.851709 0.759545 0.400440 0.086860
H2    H     H_    0.241395 0.850710 0.399724 0.086957
H3    H     H_    0.148169 0.240335 0.400516 0.086900
H4    H     H_    0.759761 0.148049 0.400607 0.086900
H5    H     H_    0.148841 0.755669 0.400050 0.076464
H6    H     H_    0.756723 0.852140 0.400768 0.076387
H7    H     H_    0.852369 0.243013 0.400936 0.076352
H8    H     H_    0.243150 0.147736 0.400846 0.076223
H9    H     H_    0.351856 0.259684 0.900539 0.086907
H10   H     H_    0.740276 0.351912 0.900583 0.086905
H11   H     H_    0.648219 0.740385 0.900491 0.086885
H12   H     H_    0.259387 0.648487 0.900273 0.086914
H13   H     H_    0.647669 0.256948 0.900913 0.076355
H14   H     H_    0.256877 0.352284 0.900868 0.076294
H15   H     H_    0.351960 0.743493 0.900603 0.076366
H16   H     H_    0.743199 0.647786 0.900819 0.076380
O1    O     O_3   0.500000 1.000000 0.500000 -0.560433
O2    O     O_3   0.000000 0.500000 0.500000 -0.560419
O3    O     O_3   0.000000 0.500000 0.000000 -0.560420
O4    O     O_3   0.500000 0.000000 0.000000 -0.560410
O5    O     O_R   0.500000 0.939250 0.367980 -0.608236
O6    O     O_R   0.060750 0.500000 0.367980 -0.608497
O7    O     O_R   0.500000 0.060750 0.367980 -0.608312
O8    O     O_R   0.939250 0.500000 0.367980 -0.608215
O9    O     O_R   0.000000 0.439250 0.867980 -0.608310
O10   O     O_R   0.560750 0.000000 0.867980 -0.608276
O11   O     O_R   0.000000 0.560750 0.867980 -0.608305
O12   O     O_R   0.439250 0.000000 0.867980 -0.608365
O13   O     O_R   0.560720 0.000000 0.632020 -0.572588
O14   O     O_R   0.000000 0.560720 0.632020 -0.572603
O15   O     O_R   0.439280 0.000000 0.632020 -0.572495
O16   O     O_R   0.000000 0.439280 0.632020 -0.572481
O17   O     O_R   0.060720 0.500000 0.132020 -0.572578
O18   O     O_R   0.500000 0.060720 0.132020 -0.572558
O19   O     O_R   0.939280 0.500000 0.132020 -0.572597
O20   O     O_R   0.500000 0.939280 0.132020 -0.572582
O21   O     O_R   0.585450 0.146130 0.465380 -0.592840
O22   O     O_R   0.853870 0.585450 0.465380 -0.592955
O23   O     O_R   0.414550 0.853870 0.465380 -0.593152
O24   O     O_R   0.146130 0.414550 0.465380 -0.592714
O25   O     O_R   0.414550 0.146130 0.465380 -0.594903
O26   O     O_R   0.146130 0.585450 0.465380 -0.595149
O27   O     O_R   0.585450 0.853870 0.465380 -0.594889
O28   O     O_R   0.853870 0.414550 0.465380 -0.594847
O29   O     O_R   0.085450 0.646130 0.965380 -0.592937
O30   O     O_R   0.353870 0.085450 0.965380 -0.592823
O31   O     O_R   0.914550 0.353870 0.965380 -0.592865
O32   O     O_R   0.646130 0.914550 0.965380 -0.592918
O33   O     O_R   0.914550 0.646130 0.965380 -0.594885
O34   O     O_R   0.646130 0.085450 0.965380 -0.594848
O35   O     O_R   0.085450 0.353870 0.965380 -0.594901
O36   O     O_R   0.353870 0.914550 0.965380 -0.594999
O37   O     O_R   0.353850 0.914510 0.534610 -0.612552
O38   O     O_R   0.085490 0.353850 0.534610 -0.612781
O39   O     O_R   0.646150 0.085490 0.534610 -0.612753
O40   O     O_R   0.914510 0.646150 0.534610 -0.612492
O41   O     O_R   0.646150 0.914510 0.534610 -0.590937
O42   O     O_R   0.914510 0.353850 0.534610 -0.590988
O43   O     O_R   0.353850 0.085490 0.534610 -0.590972
O44   O     O_R   0.085490 0.646150 0.534610 -0.590563
O45   O     O_R   0.853850 0.414510 0.034610 -0.612756
O46   O     O_R   0.585490 0.853850 0.034610 -0.612666
O47   O     O_R   0.146150 0.585490 0.034610 -0.612712
O48   O     O_R   0.414510 0.146150 0.034610 -0.612779
O49   O     O_R   0.146150 0.414510 0.034610 -0.590956
O50   O     O_R   0.414510 0.853850 0.034610 -0.590767
O51   O     O_R   0.853850 0.585490 0.034610 -0.590923
O52   O     O_R   0.585490 0.146150 0.034610 -0.591036
C1    C     C_R   0.500000 1.000000 0.340019 0.834951
C2    C     C_R   0.000000 0.499999 0.340019 0.835017
C3    C     C_R   1.000000 0.500000 0.840019 0.835119
C4    C     C_R   0.500000 0.000000 0.840019 0.835142
C5    C     C_R   0.500000 1.000000 0.659977 0.866463
C6    C     C_R   0.000001 0.500000 0.659977 0.866384
C7    C     C_R   1.000000 0.500000 0.159977 0.866415
C8    C     C_R   0.500000 0.000000 0.159977 0.866420
C9    C     C_R   0.639478 0.140737 0.500460 0.920338
C10   C     C_R   0.859260 0.639475 0.500465 0.920095
C11   C     C_R   0.360538 0.859247 0.500478 0.919440
C12   C     C_R   0.140735 0.360521 0.500458 0.920294
C13   C     C_R   0.360819 0.141325 0.501592 0.892857
C14   C     C_R   0.141335 0.639177 0.501612 0.891842
C15   C     C_R   0.639179 0.858673 0.501594 0.892760
C16   C     C_R   0.858677 0.360818 0.501589 0.893074
C17   C     C_R   0.139480 0.640735 0.000455 0.919957
C18   C     C_R   0.359264 0.139479 0.000460 0.920287
C19   C     C_R   0.860523 0.359262 0.000461 0.920299
C20   C     C_R   0.640738 0.860523 0.000462 0.920161
C21   C     C_R   0.860820 0.641325 0.001593 0.892887
C22   C     C_R   0.641324 0.139182 0.001590 0.893030
C23   C     C_R   0.139180 0.358675 0.001591 0.892938
C24   C     C_R   0.358675 0.860817 0.001595 0.892613
C25   C     C_R   0.709881 0.763127 0.453827 0.049883
C26   C     C_R   0.237359 0.709394 0.453986 0.049874
C27   C     C_R   0.290058 0.236808 0.453802 0.049931
C28   C     C_R   0.763246 0.290001 0.453788 0.049842
C29   C     C_R   0.289379 0.763234 0.453475 -0.003316
C30   C     C_R   0.763714 0.711088 0.453341 -0.003354
C31   C     C_R   0.711202 0.236173 0.453308 -0.003382
C32   C     C_R   0.236224 0.288847 0.453316 -0.003337
C33   C     C_R   0.209954 0.263200 0.953801 0.049865
C34   C     C_R   0.736773 0.209979 0.953795 0.049876
C35   C     C_R   0.790084 0.736835 0.953814 0.049848
C36   C     C_R   0.263041 0.790213 0.953843 0.049866
C37   C     C_R   0.788818 0.263807 0.953314 -0.003382
C38   C     C_R   0.263787 0.211160 0.953317 -0.003382
C39   C     C_R   0.211009 0.736375 0.953347 -0.003364
C40   C     C_R   0.736252 0.788876 0.953329 -0.003366
C41   C     C_R   0.690863 0.798281 0.506549 -0.265387
C42   C     C_R   0.201744 0.690849 0.506619 -0.265674
C43   C     C_R   0.309124 0.201709 0.506536 -0.265418
C44   C     C_R   0.798294 0.309124 0.506531 -0.265339
C45   C     C_R   0.311284 0.797589 0.505527 -0.262034
C46   C     C_R   0.797631 0.688769 0.505469 -0.262093
C47   C     C_R   0.688782 0.202360 0.505452 -0.262103
C48   C     C_R   0.202359 0.311222 0.505451 -0.262117
C49   C     C_R   0.190872 0.298290 0.006536 -0.265377
C50   C     C_R   0.701706 0.190876 0.006534 -0.265393
C51   C     C_R   0.809128 0.701711 0.006542 -0.265382
C52   C     C_R   0.298291 0.809122 0.006551 -0.265552
C53   C     C_R   0.811221 0.297639 0.005455 -0.262107
C54   C     C_R   0.297640 0.188780 0.005454 -0.262118
C55   C     C_R   0.188771 0.702366 0.005458 -0.262104
C56   C     C_R   0.702364 0.811226 0.005461 -0.262091
C57   C     C_R   0.717494 0.770302 0.562237 0.216133
C58   C     C_R   0.229310 0.717944 0.562307 0.215574
C59   C     C_R   0.282534 0.229737 0.562222 0.216132
C60   C     C_R   0.770222 0.282594 0.562218 0.216360
C61   C     C_R   0.290203 0.767203 0.561060 0.305760
C62   C     C_R   0.766849 0.709474 0.560959 0.305422
C63   C     C_R   0.709404 0.233227 0.560932 0.305322
C64   C     C_R   0.233188 0.290571 0.560935 0.305607
C65   C     C_R   0.217447 0.270255 0.062223 0.216256
C66   C     C_R   0.729758 0.217429 0.062221 0.216176
C67   C     C_R   0.782516 0.729712 0.062230 0.216288
C68   C     C_R   0.270407 0.782370 0.062236 0.216248
C69   C     C_R   0.790579 0.266791 0.060937 0.305358
C70   C     C_R   0.266804 0.209429 0.060938 0.305498
C71   C     C_R   0.209552 0.733061 0.060957 0.305860
C72   C     C_R   0.733164 0.790542 0.060949 0.305411
C73   C     C_1   0.000000 0.499999 0.276678 -0.011328
C74   C     C_1   0.500001 0.999999 0.276678 -0.011279
C75   C     C_1   0.500000 1.000000 0.776678 -0.011193
C76   C     C_1   1.000000 0.500000 0.776678 -0.011201
C77   C     C_1   0.500000 1.000000 0.723302 -0.043691
C78   C     C_1   1.000000 0.500000 0.723302 -0.043587
C79   C     C_1   1.000000 0.500000 0.223302 -0.043673
C80   C     C_1   0.500001 0.000000 0.223302 -0.043687
C81   C     C_3   0.795577 0.736921 0.395768 0.029666
C82   C     C_3   0.264085 0.794546 0.395546 0.029848
C83   C     C_3   0.204297 0.262950 0.395786 0.029628
C84   C     C_3   0.737159 0.204177 0.395820 0.029646
C85   C     C_3   0.205634 0.734725 0.395668 0.025313
C86   C     C_3   0.735788 0.795404 0.395882 0.024936
C87   C     C_3   0.795651 0.263952 0.395932 0.024910
C88   C     C_3   0.264083 0.204464 0.395901 0.024917
C89   C     C_3   0.295729 0.237071 0.895796 0.029637
C90   C     C_3   0.762881 0.295782 0.895813 0.029673
C91   C     C_3   0.704349 0.763002 0.895783 0.029657
C92   C     C_3   0.236743 0.704625 0.895701 0.029548
C93   C     C_3   0.704389 0.236007 0.895926 0.024923
C94   C     C_3   0.235944 0.295556 0.895910 0.024949
C95   C     C_3   0.295211 0.764426 0.895820 0.025011
C96   C     C_3   0.764134 0.704517 0.895897 0.024924
N1    N     N_R   0.789292 0.682086 0.348415 0.289135
O53   O     O_R   0.732414 0.639611 0.344731 -0.232886
O54   O     O_R   0.843858 0.671722 0.312284 -0.304060
N2    N     N_R   0.319368 0.787838 0.348581 0.289308
O55   O     O_R   0.361945 0.730971 0.345556 -0.232948
O56   O     O_R   0.330019 0.842047 0.312149 -0.302932
N3    N     N_R   0.210534 0.317730 0.348388 0.289141
O57   O     O_R   0.267412 0.360196 0.344629 -0.232634
O58   O     O_R   0.155928 0.328059 0.312291 -0.303955
N4    N     N_R   0.682432 0.210369 0.348376 0.289099
O59   O     O_R   0.639986 0.267257 0.344538 -0.232894
O60   O     O_R   0.672132 0.155720 0.312317 -0.304116
N5    N     N_R   0.213227 0.681362 0.347405 0.273996
O61   O     O_R   0.192132 0.698886 0.293943 -0.251105
O62   O     O_R   0.235875 0.615159 0.357743 -0.257445
N6    N     N_R   0.682896 0.788321 0.347226 0.273864
O63   O     O_R   0.700957 0.809922 0.294019 -0.251412
O64   O     O_R   0.616562 0.765692 0.356997 -0.257610
N7    N     N_R   0.788693 0.316735 0.347184 0.273814
O65   O     O_R   0.810411 0.298543 0.294038 -0.251531
O66   O     O_R   0.766076 0.383105 0.356821 -0.258040
N8    N     N_R   0.316921 0.211486 0.347199 0.273782
O67   O     O_R   0.298797 0.189826 0.294023 -0.251662
O68   O     O_R   0.383271 0.234111 0.356904 -0.258042
N9    N     N_R   0.289505 0.182301 0.848386 0.289123
O69   O     O_R   0.232628 0.139836 0.844611 -0.232794
O70   O     O_R   0.344117 0.171986 0.812293 -0.303983
N10   N     N_R   0.817625 0.289573 0.848383 0.289101
O71   O     O_R   0.860070 0.232682 0.844566 -0.232974
O72   O     O_R   0.827943 0.344212 0.812318 -0.304097
N11   N     N_R   0.710604 0.817802 0.848401 0.289131
O73   O     O_R   0.767485 0.860268 0.844667 -0.232875
O74   O     O_R   0.656012 0.828146 0.812293 -0.304059
N12   N     N_R   0.181827 0.710994 0.848419 0.289227
O75   O     O_R   0.139305 0.767854 0.844879 -0.232548
O76   O     O_R   0.171468 0.656526 0.812188 -0.303662
N13   N     N_R   0.711364 0.183206 0.847191 0.273814
O77   O     O_R   0.689663 0.201377 0.794037 -0.251532
O78   O     O_R   0.733981 0.116840 0.856848 -0.258069
N14   N     N_R   0.183120 0.288547 0.847197 0.273806
O79   O     O_R   0.201258 0.310217 0.794027 -0.251579
O80   O     O_R   0.116766 0.265923 0.856887 -0.258074
N15   N     N_R   0.288019 0.817419 0.847245 0.273945
O81   O     O_R   0.309525 0.799475 0.793984 -0.251293
O82   O     O_R   0.265373 0.883723 0.857133 -0.257719
N16   N     N_R   0.816992 0.711559 0.847211 0.273861
O83   O     O_R   0.798893 0.689918 0.794024 -0.251436
O84   O     O_R   0.883336 0.734186 0.856940 -0.257807
S1    S     S_3+6 0.694364 0.816580 0.630342 0.146804
O85   O     O_2   0.612706 0.823187 0.634444 -0.256653
O86   O     O_2   0.721585 0.780545 0.686103 -0.114945
O87   O     O_3   0.730607 0.900962 0.628784 -0.467935
H17   H     H_    0.783615 0.893162 0.622672 0.352813
S2    S     S_3+6 0.182503 0.695569 0.630337 0.147191
O88   O     O_2   0.175997 0.613952 0.635064 -0.255764
O89   O     O_2   0.218052 0.723544 0.686059 -0.114765
O90   O     O_3   0.098084 0.731673 0.628058 -0.467803
H18   H     H_    0.105848 0.784580 0.621340 0.352001
S3    S     S_3+6 0.305687 0.183506 0.630339 0.146857
O91   O     O_2   0.387346 0.176910 0.634428 -0.256629
O92   O     O_2   0.278473 0.219577 0.686086 -0.114944
O93   O     O_3   0.269456 0.099118 0.628823 -0.467776
H19   H     H_    0.216440 0.106908 0.622743 0.352837
S4    S     S_3+6 0.816386 0.305869 0.630339 0.146738
O94   O     O_2   0.823017 0.387535 0.634318 -0.256802
O95   O     O_2   0.780249 0.278800 0.686103 -0.114993
O96   O     O_3   0.900757 0.269591 0.628927 -0.468050
H20   H     H_    0.892945 0.216552 0.623006 0.353021
S5    S     S_3+6 0.345477 0.784539 0.625136 0.129581
O97   O     O_2   0.308758 0.841205 0.663253 -0.203160
O98   O     O_2   0.355696 0.715287 0.660152 -0.177874
O99   O     O_3   0.429089 0.814790 0.606115 -0.560670
H21   H     H_    0.451976 0.830104 0.644121 0.386352
S6    S     S_3+6 0.783979 0.653952 0.624934 0.129488
O100  O     O_2   0.840054 0.690849 0.663508 -0.203072
O101  O     O_2   0.714481 0.643114 0.659494 -0.177814
O102  O     O_3   0.814938 0.570615 0.605860 -0.560767
H22   H     H_    0.830187 0.547718 0.643880 0.386474
S7    S     S_3+6 0.653818 0.216160 0.624881 0.129395
O103  O     O_2   0.690730 0.160198 0.663557 -0.203330
O104  O     O_2   0.642864 0.285717 0.659342 -0.177686
O105  O     O_3   0.570538 0.185078 0.605790 -0.560894
H23   H     H_    0.547614 0.169881 0.643813 0.386469
S8    S     S_3+6 0.216135 0.346176 0.624877 0.129208
O106  O     O_2   0.160052 0.309370 0.663500 -0.203224
O107  O     O_2   0.285661 0.356998 0.659403 -0.177973
O108  O     O_3   0.185228 0.429515 0.605747 -0.561545
H24   H     H_    0.170206 0.452555 0.643770 0.386229
S9    S     S_3+6 0.194252 0.316471 0.130339 0.146813
O109  O     O_2   0.112592 0.323087 0.134388 -0.256714
O110  O     O_2   0.221409 0.280381 0.186096 -0.114979
O111  O     O_3   0.230506 0.400850 0.128856 -0.467897
H25   H     H_    0.283532 0.393046 0.122855 0.352936
S10   S     S_3+6 0.683566 0.194194 0.130338 0.146813
O112  O     O_2   0.676948 0.112529 0.134352 -0.256754
O113  O     O_2   0.719674 0.221309 0.186100 -0.114863
O114  O     O_3   0.599191 0.230458 0.128889 -0.467927
H26   H     H_    0.606992 0.283474 0.122816 0.352838
S11   S     S_3+6 0.805659 0.683454 0.130339 0.146752
O115  O     O_2   0.887317 0.676841 0.134429 -0.256790
O116  O     O_2   0.778454 0.719508 0.186098 -0.115044
O117  O     O_3   0.769410 0.599075 0.128801 -0.467985
H27   H     H_    0.716389 0.606880 0.122771 0.352904
S12   S     S_3+6 0.316829 0.805253 0.130327 0.146739
O118  O     O_2   0.323395 0.886898 0.134641 -0.256610
O119  O     O_2   0.280933 0.777775 0.186063 -0.115517
O120  O     O_3   0.401226 0.769057 0.128552 -0.467818
H28   H     H_    0.393441 0.716060 0.122364 0.352722
S13   S     S_3+6 0.846152 0.283869 0.124891 0.129434
O121  O     O_2   0.809249 0.339860 0.163545 -0.203317
O122  O     O_2   0.857074 0.214324 0.159374 -0.177648
O123  O     O_3   0.929447 0.314916 0.105802 -0.560857
H29   H     H_    0.952363 0.330130 0.143823 0.386482
S14   S     S_3+6 0.283879 0.153847 0.124888 0.129231
O124  O     O_2   0.339912 0.190713 0.163521 -0.203317
O125  O     O_2   0.214348 0.142972 0.159396 -0.177933
O126  O     O_3   0.314865 0.070531 0.105783 -0.561138
H30   H     H_    0.330012 0.047569 0.143804 0.386291
S15   S     S_3+6 0.154058 0.715903 0.124940 0.129053
O127  O     O_2   0.190826 0.659582 0.163358 -0.203397
O128  O     O_2   0.143458 0.785316 0.159666 -0.178559
O129  O     O_3   0.070619 0.685255 0.105838 -0.560729
H31   H     H_    0.047711 0.669924 0.143832 0.386280
S16   S     S_3+6 0.716052 0.846086 0.124915 0.129410
O130  O     O_2   0.659983 0.809205 0.163504 -0.203222
O131  O     O_2   0.785558 0.856930 0.159463 -0.177841
O132  O     O_3   0.685094 0.929419 0.105830 -0.560787
H32   H     H_    0.669844 0.952325 0.143846 0.386466

loop_
_geom_bond_atom_site_label_1
_geom_bond_atom_site_label_2
_geom_bond_distance
_ccdc_geom_bond_type
C46   C62   1.418127 A    
N15   O81   1.300238 A    
C33   C49   1.390860 A    
C39   C92   1.494113 S    
H2    C82   1.113071 S    
Zn11  O23   1.934544 S    
C40   C91   1.494109 S    
O117  H27   0.990592 S    
S12   O118  1.502919 D    
C19   C53   1.449394 S    
O44   C14   1.268832 A    
Zn9   O7    1.912204 S    
C84   N4    1.466246 S    
S4    O94   1.502914 D    
Zn10  O8    1.912209 S    
S10   O112  1.502921 D    
O8    C2    1.277051 A    
Zn11  O5    1.912216 S    
S6    O101  1.503313 D    
S16   O132  1.683107 S    
O111  H25   0.990594 S    
C75   C77   1.197424 T    
C45   C61   1.417968 A    
O40   C10   1.274841 A    
C54   C70   1.418115 A    
N7    O65   1.300223 A    
C65   C70   1.434585 A    
H13   C93   1.112752 S    
C62   S6    1.786542 S    
C90   N10   1.466246 S    
C30   C46   1.385735 A    
Zn5   O17   1.912747 S    
H3    C83   1.113114 S    
O17   C7    1.276531 A    
C52   C68   1.435686 A    
N1    O54   1.300500 A    
O9    C3    1.277035 A    
N8    O67   1.300224 A    
C59   S3    1.797640 S    
C82   N2    1.466228 S    
C29   C82   1.494051 S    
C85   N5    1.465026 S    
S7    O104  1.503310 D    
O51   C21   1.268933 A    
S2    O90   1.681978 S    
Zn10  O28   1.934530 S    
S1    O85   1.502926 D    
Zn6   O48   1.934886 S    
O25   C13   1.278930 A    
C53   C69   1.418150 A    
C43   C59   1.435617 A    
C44   C60   1.435584 A    
C90   C93   1.531388 S    
H6    C86   1.112745 S    
C56   C72   1.418119 A    
S9    O110  1.499529 D    
O45   C19   1.274825 A    
C1    C74   1.420991 S    
O7    C1    1.277032 A    
C70   S14   1.786552 S    
S12   O120  1.681958 S    
C66   S10   1.797676 S    
C93   N13   1.465029 S    
N6    O63   1.300224 A    
O37   C11   1.274838 A    
O39   C9    1.274838 A    
S4    O96   1.681941 S    
C60   S4    1.797676 S    
S11   O116  1.499533 D    
C65   S9    1.797663 S    
C26   C85   1.504743 S    
H9    C89   1.113114 S    
H7    C87   1.112752 S    
C23   C49   1.459688 S    
N5    O61   1.300249 A    
Zn3   O1    1.937639 S    
H16   C96   1.112746 S    
O99   H21   0.990554 S    
Zn7   O51   1.934870 S    
N4    O59   1.302480 A    
O114  H26   0.990627 S    
O38   C12   1.274846 A    
O26   C14   1.279130 A    
C17   C55   1.449396 S    
S5    O97   1.503253 D    
C10   C46   1.449380 S    
C6    C78   1.420623 S    
C61   S5    1.786477 S    
C36   C95   1.504740 S    
Zn13  O3    1.937157 S    
S1    O87   1.681947 S    
Zn14  O4    1.937186 S    
N12   O76   1.300501 A    
C28   C87   1.504711 S    
Zn14  O30   1.934475 S    
C39   C55   1.385756 A    
N2    O55   1.302526 A    
O102  H22   0.990568 S    
C37   C53   1.385743 A    
C84   C87   1.531388 S    
C41   C57   1.435630 A    
S8    O106  1.503192 D    
C47   C63   1.418156 A    
O50   C24   1.268910 A    
Zn5   O47   1.934914 S    
Zn3   O43   1.934870 S    
Zn8   O20   1.912743 S    
C34   C50   1.390855 A    
Zn7   O45   1.934913 S    
S16   O131  1.503310 D    
O16   C6    1.276512 A    
O90   H18   0.990653 S    
C60   C63   1.434624 A    
O33   C21   1.278930 A    
N14   O79   1.300223 A    
N9    O70   1.300498 A    
O28   C16   1.278899 A    
C59   C64   1.434568 A    
O46   C20   1.274838 A    
Zn11  O1    1.937138 S    
S6    O102  1.683106 S    
N13   O77   1.300220 A    
Zn6   O18   1.912753 S    
O48   C18   1.274842 A    
C76   C78   1.197419 T    
O29   C17   1.267966 A    
C33   C38   1.371026 A    
C32   C48   1.385732 A    
C55   C71   1.418029 A    
Zn15  O35   1.934499 S    
S13   O121  1.503194 D    
H14   C94   1.112748 S    
S3    O92   1.499536 D    
C64   S8    1.786555 S    
C88   N8    1.465028 S    
C25   C30   1.371004 A    
C26   C42   1.390970 A    
C30   C81   1.494108 S    
C11   C45   1.449449 S    
O18   C8    1.276516 A    
O32   C20   1.267987 A    
S5    O99   1.683145 S    
C16   C44   1.459705 S    
C72   S16   1.786541 S    
O108  H24   0.990578 S    
N15   O82   1.301961 A    
O105  H23   0.990574 S    
N16   O84   1.301956 A    
S12   O119  1.499537 D    
Zn16  O4    1.937169 S    
C86   N6    1.465033 S    
Zn2   O2    1.937604 S    
C89   C94   1.531394 S    
S8    O108  1.683146 S    
H5    C85   1.112714 S    
Zn5   O3    1.937653 S    
C96   N16   1.465033 S    
Zn6   O4    1.937604 S    
S10   O113  1.499519 D    
C63   S7    1.786559 S    
H8    C88   1.112745 S    
C2    C73   1.420995 S    
C22   C50   1.459710 S    
N16   O83   1.300225 A    
O47   C17   1.274865 A    
C31   C84   1.494114 S    
C68   S12   1.797649 S    
O30   C18   1.267976 A    
O49   C23   1.268938 A    
S10   O114  1.681935 S    
S3    O91   1.502912 D    
Zn4   O38   1.934876 S    
N1    O53   1.302485 A    
N8    O68   1.301954 A    
Zn8   O50   1.934930 S    
C94   N14   1.465032 S    
S14   O124  1.503192 D    
Zn2   O40   1.934886 S    
H10   C90   1.113125 S    
C57   S1    1.797688 S    
C71   S15   1.786498 S    
O43   C13   1.268939 A    
S13   O123  1.683102 S    
Zn8   O4    1.937626 S    
O19   C7    1.276536 A    
C69   S13   1.786556 S    
N10   O71   1.302477 A    
C66   C69   1.434612 A    
O52   C22   1.268941 A    
S11   O115  1.502914 D    
C27   C32   1.371026 A    
C27   C88   1.504722 S    
O13   C5    1.276532 A    
C36   C39   1.371027 A    
S9    O109  1.502909 D    
Zn9   O1    1.937157 S    
C58   C61   1.434422 A    
C7    C79   1.420627 S    
Zn11  O27   1.934499 S    
C5    C77   1.420627 S    
Zn6   O52   1.934928 S    
O132  H32   0.990567 S    
C38   C54   1.385739 A    
S14   O126  1.683122 S    
O31   C19   1.267986 A    
H11   C91   1.113111 S    
H12   C92   1.113111 S    
C31   C47   1.385745 A    
N9    O69   1.302481 A    
C42   C58   1.435868 A    
C35   C51   1.390864 A    
H15   C95   1.112742 S    
C36   C52   1.390926 A    
S15   O127  1.503190 D    
S6    O100  1.503201 D    
Zn7   O19   1.912755 S    
Zn5   O49   1.934862 S    
N11   O73   1.302483 A    
C68   C71   1.434496 A    
O93   H19   0.990607 S    
C67   C72   1.434575 A    
Zn15  O9    1.912216 S    
C91   C96   1.531391 S    
Zn16  O34   1.934525 S    
C57   C62   1.434586 A    
N6    O64   1.301958 A    
O6    C2    1.277054 A    
C92   N12   1.466241 S    
O20   C8    1.276512 A    
Zn9   O21   1.934542 S    
C35   C96   1.504718 S    
Zn12  O2    1.937169 S    
Zn13  O11   1.912204 S    
Zn2   O44   1.934928 S    
C33   C94   1.504717 S    
Zn14  O12   1.912209 S    
C81   C86   1.531403 S    
O24   C12   1.267969 A    
N4    O60   1.300494 A    
C40   C56   1.385734 A    
O42   C16   1.268958 A    
C83   C88   1.531398 S    
O14   C6    1.276516 A    
Zn1   O41   1.934862 S    
C92   C95   1.531418 S    
C81   N1    1.466240 S    
N3    O57   1.302483 A    
S1    O86   1.499531 D    
H1    C81   1.113109 S    
C51   C67   1.435617 A    
O87   H17   0.990610 S    
N2    O56   1.300514 A    
C28   C44   1.390854 A    
C20   C56   1.449367 S    
C14   C42   1.459922 S    
S8    O107  1.503315 D    
S9    O111  1.681944 S    
N7    O66   1.301951 A    
Zn14  O36   1.934530 S    
C89   N9    1.466244 S    
C9    C47   1.449398 S    
O27   C15   1.278932 A    
O126  H30   0.990573 S    
C13   C43   1.459702 S    
S7    O105  1.683101 S    
Zn1   O13   1.912747 S    
N14   O80   1.301955 A    
Zn1   O1    1.937653 S    
C15   C41   1.459707 S    
Zn13  O33   1.934492 S    
C35   C40   1.371024 A    
Zn2   O14   1.912753 S    
Zn1   O39   1.934914 S    
C29   C45   1.385701 A    
S2    O89   1.499583 D    
O5    C1    1.277035 A    
O123  H29   0.990573 S    
Zn3   O37   1.934913 S    
C24   C52   1.459771 S    
C4    C75   1.420995 S    
C50   C66   1.435591 A    
C3    C76   1.420991 S    
C18   C54   1.449357 S    
S11   O117  1.681946 S    
Zn3   O15   1.912755 S    
C67   S11   1.797679 S    
C87   N7    1.465031 S    
C37   C90   1.494109 S    
S4    O95   1.499519 D    
N5    O62   1.301990 A    
C32   C83   1.494096 S    
C73   C79   1.197424 T    
Zn4   O42   1.934930 S    
C74   C80   1.197419 T    
C12   C48   1.449343 S    
Zn12  O26   1.934525 S    
C8    C80   1.420623 S    
Zn8   O46   1.934876 S    
O15   C5    1.276534 A    
O34   C22   1.278897 A    
Zn15  O3    1.937138 S    
S15   O129  1.683123 S    
H4    C84   1.113123 S    
Zn4   O2    1.937626 S    
S5    O98   1.503338 D    
N3    O58   1.300497 A    
O21   C9    1.267996 A    
C48   C64   1.418087 A    
C49   C65   1.435606 A    
O23   C11   1.267977 A    
N12   O75   1.302489 A    
C95   N15   1.465062 S    
C34   C37   1.371048 A    
C83   N3    1.466245 S    
Zn10  O2    1.937186 S    
S15   O128  1.503315 D    
C26   C29   1.370907 A    
Zn12  O24   1.934486 S    
C25   C41   1.390860 A    
S16   O130  1.503199 D    
N11   O74   1.300499 A    
C91   N11   1.466241 S    
O120  H28   0.990593 S    
C27   C43   1.390870 A    
O10   C4    1.277056 A    
S7    O103  1.503193 D    
Zn16  O10   1.912217 S    
C25   C86   1.504712 S    
Zn4   O16   1.912743 S    
O41   C15   1.268933 A    
O129  H31   0.990567 S    
Zn7   O3    1.937639 S    
O96   H20   0.990585 S    
N13   O78   1.301950 A    
C38   C89   1.494110 S    
O36   C24   1.278989 A    
C21   C51   1.459697 S    
O11   C3    1.277032 A    
S14   O125  1.503313 D    
O35   C23   1.278918 A    
S13   O122  1.503312 D    
S3    O93   1.681945 S    
Zn9   O25   1.934492 S    
Zn12  O6    1.912217 S    
Zn10  O22   1.934475 S    
O22   C10   1.267989 A    
C34   C93   1.504709 S    
C58   S2    1.797678 S    
Zn13  O29   1.934542 S    
C82   C85   1.531463 S    
N10   O72   1.300494 A    
S2    O88   1.502932 D    
Zn15  O31   1.934544 S    
Zn16  O32   1.934486 S    
O12   C4    1.277050 A    
C28   C31   1.371048 A    
