data_mof_unit_32002.cif
_audit_creation_date              2012-12-10T17:57:24-0500
_audit_creation_method            fapswitch 2.2
_symmetry_space_group_name_H-M    P1
_symmetry_Int_Tables_number       1
_space_group_crystal_system       triclinic
_cell_length_a                    9.511813
_cell_length_b                    10.83346
_cell_length_c                    13.462687
_cell_angle_alpha                 90.298446
_cell_angle_beta                  72.072708
_cell_angle_gamma                 90.262775
_cell_volume                      1319.894497

loop_
_atom_site_label
_atom_site_type_symbol
_atom_type_description
_atom_site_fract_x
_atom_site_fract_y
_atom_site_fract_z
_atom_type_partial_charge
C1    C     C_R   0.500019 0.737730 0.500687 0.800943
C2    C     C_R   0.432351 0.484258 0.979614 0.079908
C3    C     C_R   0.467486 0.453585 0.872045 0.080692
C4    C     C_R   0.541104 0.465226 0.030956 0.077269
C5    C     C_R   0.677129 0.408471 0.976174 0.144223
C6    C     C_R   0.701246 0.365503 0.874734 -0.229648
C7    C     C_R   0.596787 0.385227 0.824212 -0.196153
C8    C     C_R   0.519795 0.501946 0.134684 -0.255614
C9    C     C_R   0.763336 0.427685 0.127552 -0.027104
C10   C     C_R   0.371626 0.491271 0.815352 -0.102714
C11   C     C_R   0.631900 0.936875 0.470230 -0.182860
C12   C     C_R   0.420693 0.494321 0.700294 0.783012
C13   C     C_R   0.629938 0.064544 0.471203 -0.186964
C14   C     C_R   0.495178 0.127794 0.506134 -0.070995
C15   C     C_R   0.360890 0.061088 0.542760 -0.012459
C16   C     C_R   0.364188 0.933146 0.539995 -0.218511
C17   C     C_R   0.498988 0.871150 0.503358 -0.034966
C18   C     C_R   0.903020 0.588810 0.552931 -0.019584
C19   C     C_R   0.051734 0.588504 0.553234 -0.026688
C20   C     C_R   0.096683 0.410719 0.447700 0.016632
C21   C     C_R   0.947524 0.410142 0.448576 0.007352
C22   C     C_R   0.498226 0.262041 0.502613 0.781658
C23   C     C_R   0.579595 0.496668 0.299470 0.801282
C24   C     C_R   0.787482 0.392949 0.023770 -0.237670
C25   C     C_R   0.625751 0.478946 0.185129 -0.106535
C26   C     C_R   0.231994 0.539007 0.869145 -0.195442
C27   C     C_R   0.190724 0.556669 0.976374 -0.139012
C28   C     C_R   0.290033 0.532468 0.031062 -0.160777
Cu1   Cu    Cu3+1 0.359340 0.499980 0.500000 0.956055
Cu2   Cu    Cu3+1 0.640660 0.500020 0.500000 0.950738
H1    H     H_    0.734020 0.113749 0.443055 0.153311
H2    H     H_    0.261444 0.881745 0.567970 0.142187
H3    H     H_    0.828846 0.659808 0.595547 0.128745
H4    H     H_    0.089445 0.659187 0.596176 0.116184
H5    H     H_    0.170590 0.339290 0.405561 0.130205
H6    H     H_    0.908718 0.337420 0.408275 0.136803
H7    H     H_    0.801691 0.316386 0.833981 0.161549
H8    H     H_    0.892146 0.351363 0.980307 0.147389
H9    H     H_    0.420164 0.548085 0.179022 0.156461
H10   H     H_    0.155769 0.566229 0.827844 0.155506
H11   H     H_    0.250541 0.550631 0.113712 0.141421
H12   H     H_    0.082497 0.593434 0.017028 0.148707
H13   H     H_    0.618279 0.344074 0.747753 0.176087
H14   H     H_    0.736983 0.889682 0.441868 0.151368
N1    N     N_R   0.147940 0.499970 0.499970 -0.162314
N2    N     N_R   0.852060 0.500060 0.499990 -0.166380
O1    O     O_R   0.381250 0.680340 0.500010 -0.589493
O2    O     O_R   0.618820 0.680370 0.500010 -0.588648
O3    O     O_R   0.323240 0.499950 0.650980 -0.575858
O4    O     O_R   0.560810 0.499980 0.650980 -0.583333
O5    O     O_R   0.381180 0.319630 0.499990 -0.576571
O6    O     O_R   0.618750 0.319660 0.499990 -0.595907
O7    O     O_R   0.439190 0.500020 0.349020 -0.580175
O8    O     O_R   0.676760 0.500050 0.349020 -0.568408
C29   C     C_1   0.881025 0.405866 0.171880 0.252321
N3    N     N_1   0.976865 0.388210 0.205948 -0.324597
C30   C     C_1   0.218804 0.119804 0.586610 0.238130
N4    N     N_1   0.104971 0.166539 0.621821 -0.300761

loop_
_geom_bond_atom_site_label_1
_geom_bond_atom_site_label_2
_ccdc_geom_bond_type
C12   O4    A    
C29   N3    T    
C19   N1    A    
C1    O2    A    
C12   O3    A    
C6    C7    A    
C9    C29   S    
C8    H9    S    
C7    H13   S    
C16   H2    S    
Cu2   O8    S    
C24   H8    S    
C20   N1    A    
C4    C8    A    
C14   C22   S    
C2    C3    A    
C30   N4    T    
C6    H7    S    
C9    C25   A    
C11   H14   S    
C9    C24   A    
C3    C10   A    
Cu1   O3    S    
C13   C14   A    
C8    C25   A    
C15   C30   S    
C27   H12   S    
C26   H10   S    
C26   C27   A    
Cu1   Cu2   S    
C5    C24   A    
C10   C12   S    
Cu1   O1    S    
C2    C4    A    
C18   N2    A    
Cu2   O2    S    
Cu2   N2    S    
C23   O7    A    
C3    C7    A    
C23   C25   S    
Cu2   O4    S    
C5    C6    A    
C18   H3    S    
C4    C5    A    
C15   C16   A    
C28   H11   S    
C11   C13   A    
C18   C19   A    
C20   C21   A    
C23   O8    A    
C22   O6    A    
C21   N2    A    
Cu1   O5    S    
Cu1   N1    S    
C27   C28   A    
C21   H6    S    
Cu2   O6    S    
C14   C15   A    
C22   O5    A    
C2    C28   A    
C20   H5    S    
C1    C17   S    
C13   H1    S    
C10   C26   A    
C11   C17   A    
C1    O1    A    
C16   C17   A    
Cu1   O7    S    
C19   H4    S    
