data_mof_unit_59423.cif
_audit_creation_date              2012-12-10T17:55:53-0500
_audit_creation_method            fapswitch 2.2
_symmetry_space_group_name_H-M    P1
_symmetry_Int_Tables_number       1
_space_group_crystal_system       triclinic
_cell_length_a                    11.001518
_cell_length_b                    10.800241
_cell_length_c                    9.52619
_cell_angle_alpha                 90.004761
_cell_angle_beta                  101.191187
_cell_angle_gamma                 90.213786
_cell_volume                      1110.36178115

loop_
_atom_site_label
_atom_site_type_symbol
_atom_type_description
_atom_site_fract_x
_atom_site_fract_y
_atom_site_fract_z
_atom_type_partial_charge
C1    C     C_R   0.499874 0.262613 0.499942 0.809998
C2    C     C_R   0.500134 0.737360 0.500057 0.796720
C3    C     C_R   0.263016 0.506408 0.444167 0.863022
C4    C     C_R   0.737016 0.505961 0.556164 0.864939
C5    C     C_R   0.446501 0.405137 0.062280 0.001605
C6    C     C_R   0.552580 0.595308 0.937490 0.016172
C7    C     C_R   0.446177 0.405364 0.913541 0.000094
C8    C     C_R   0.551451 0.595787 0.085805 0.009868
C9    C     C_2   0.128535 0.521329 0.418497 -0.345049
C10   C     C_2   0.871801 0.517387 0.583805 -0.347234
C11   C     C_2   0.068923 0.566765 0.518989 -0.060922
C12   C     C_2   0.933745 0.569500 0.489449 -0.052092
C13   C     C_R   0.404160 0.064203 0.409044 -0.068494
C14   C     C_R   0.595986 0.935661 0.590741 -0.067475
C15   C     C_R   0.404195 0.934817 0.409143 -0.072866
C16   C     C_R   0.595715 0.065047 0.591013 -0.072371
C17   C     C_R   0.500114 0.871324 0.499981 -0.121074
C18   C     C_R   0.499904 0.128582 0.500006 -0.129407
Cu1   Cu    Cu3+1 0.500000 0.500020 0.640660 0.984158
Cu2   Cu    Cu3+1 0.500000 0.499980 0.359340 0.985174
H1    H     H_    0.403112 0.329253 0.108128 0.142663
H2    H     H_    0.595252 0.671632 0.891540 0.144229
N1    N     N_R   0.500030 0.500030 0.852080 -0.167985
N2    N     N_R   0.499970 0.499970 0.147920 -0.171077
O1    O     O_R   0.499990 0.319660 0.618740 -0.586075
O2    O     O_R   0.500010 0.680340 0.381260 -0.588453
O3    O     O_R   0.499990 0.319630 0.381170 -0.584516
O4    O     O_R   0.500010 0.680370 0.618830 -0.586851
O5    O     O_R   0.320690 0.500020 0.575130 -0.577077
O6    O     O_R   0.679310 0.499980 0.424870 -0.573625
O7    O     O_R   0.320680 0.499990 0.337560 -0.560090
O8    O     O_R   0.679320 0.500010 0.662440 -0.561500
C19   C     C_1   0.873387 0.632897 0.360654 0.326456
N3    N     N_1   0.827079 0.684422 0.257809 -0.297122
C20   C     C_1   0.132355 0.616027 0.655794 0.327703
N4    N     N_1   0.182596 0.655385 0.764804 -0.257168
H3    H     H_    0.922647 0.479842 0.683956 0.165911
H4    H     H_    0.076014 0.492939 0.314724 0.168774
H5    H     H_    0.402409 0.329727 0.848026 0.131642
H6    H     H_    0.591245 0.673429 0.150245 0.150901
C21   C     C_1   0.303668 0.130909 0.319299 0.243287
N5    N     N_1   0.223586 0.184094 0.247943 -0.276284
C22   C     C_1   0.696872 0.868905 0.679796 0.240358
N6    N     N_1   0.777275 0.815674 0.750549 -0.265437
C23   C     C_1   0.303729 0.867148 0.319540 0.260129
N7    N     N_1   0.223717 0.813161 0.248294 -0.247004
C24   C     C_1   0.695801 0.132677 0.681255 0.264606
N8    N     N_1   0.775493 0.186648 0.753054 -0.261162

loop_
_geom_bond_atom_site_label_1
_geom_bond_atom_site_label_2
_ccdc_geom_bond_type
Cu1   N1    S    
C11   C12   S    
C3    C9    S    
Cu2   O3    S    
C2    O4    A    
C21   N5    T    
Cu1   Cu2   S    
C3    O7    A    
Cu1   O8    S    
C13   C21   S    
C19   N3    T    
C2    O2    A    
Cu2   O6    S    
C23   N7    T    
C2    C17   S    
C1    O1    A    
Cu1   O4    S    
C9    C11   D    
C14   C17   A    
C3    O5    A    
C1    C18   S    
C4    O8    A    
C5    N2    A    
C10   C12   D    
C13   C18   A    
C10   H3    S    
C7    N1    A    
C6    N1    A    
C16   C24   S    
C16   C18   A    
C9    H4    S    
C8    N2    A    
C5    C7    A    
C13   C15   A    
C22   N6    T    
Cu1   O1    S    
C14   C16   A    
C15   C23   S    
C4    C10   S    
C6    H2    S    
Cu2   N2    S    
C5    H1    S    
C1    O3    A    
C15   C17   A    
C7    H5    S    
C6    C8    A    
C8    H6    S    
C12   C19   S    
C11   C20   S    
Cu2   O7    S    
C4    O6    A    
C24   N8    T    
C14   C22   S    
Cu2   O2    S    
C20   N4    T    
Cu1   O5    S    
