data_mof_unit_13129.cif
_audit_creation_date              2012-12-11T15:09:47-0500
_audit_creation_method            fapswitch 2.2
_symmetry_space_group_name_H-M    P1
_symmetry_Int_Tables_number       1
_space_group_crystal_system       triclinic
_cell_length_a                    20.855208
_cell_length_b                    7.127072
_cell_length_c                    14.02469
_cell_angle_alpha                 89.999327
_cell_angle_beta                  97.885302
_cell_angle_gamma                 90.000882
_cell_volume                      2064.87143336

loop_
_atom_site_label
_atom_site_type_symbol
_atom_type_description
_atom_site_fract_x
_atom_site_fract_y
_atom_site_fract_z
_atom_type_partial_charge
O1    O     O_R   0.447130 0.507140 0.597350 -0.528549
O2    O     O_R   0.552870 0.007140 0.402650 -0.528548
O3    O     O_R   0.578910 0.181280 0.586990 -0.537058
O4    O     O_R   0.421090 0.681280 0.413010 -0.537068
C1    C     C_R   0.604532 0.344483 0.607278 0.738087
C2    C     C_R   0.395468 0.844483 0.392722 0.738093
O5    O     O_R   0.449230 0.177860 0.608640 -0.543375
O6    O     O_R   0.550770 0.677860 0.391360 -0.543387
O7    O     O_R   0.422260 0.000770 0.424450 -0.538146
O8    O     O_R   0.577740 0.500770 0.575550 -0.538150
C3    C     C_R   0.432743 0.346469 0.634738 0.693020
C4    C     C_R   0.567256 0.846473 0.365261 0.693040
O9    O     O_3   0.491310 0.336980 0.439550 -0.376522
O10   O     O_3   0.508690 0.836980 0.560450 -0.376512
V1    V     V_3+5 0.501610 0.064760 0.511210 1.458675
V2    V     V_3+5 0.498390 0.564760 0.488790 1.458636
C5    C     C_R   0.621080 0.911612 0.122962 -0.158146
C6    C     C_R   0.378929 0.411299 0.877063 -0.158138
H1    H     H_    0.529078 0.900991 0.175172 0.104495
H2    H     H_    0.470929 0.400654 0.824851 0.104490
H3    H     H_    0.706641 0.926036 0.999471 0.123714
H4    H     H_    0.293370 0.425575 0.000560 0.123715
H5    H     H_    0.599165 0.930488 0.048934 0.114623
H6    H     H_    0.400846 0.430016 0.951101 0.114622
C7    C     C_R   0.608296 0.858012 0.289193 -0.038015
C8    C     C_R   0.391704 0.357988 0.710807 -0.038000
C9    C     C_R   0.922241 0.850759 0.310566 -0.001159
C10   C     C_R   0.077760 0.350950 0.689435 -0.001164
C11   C     C_R   0.884764 0.884288 0.383978 -0.272421
C12   C     C_R   0.115240 0.384588 0.616037 -0.272438
C13   C     C_R   0.818403 0.920297 0.364095 0.004810
C14   C     C_R   0.181604 0.420544 0.635936 0.004813
C15   C     C_R   0.785970 0.896445 0.268419 0.072124
C16   C     C_R   0.214036 0.396511 0.731600 0.072140
C17   C     C_R   0.824596 0.883528 0.192342 0.012001
C18   C     C_R   0.175409 0.383478 0.807671 0.011996
C19   C     C_R   0.717073 0.887668 0.244601 0.094528
C20   C     C_R   0.282931 0.387661 0.755412 0.094542
C21   C     C_R   0.688677 0.906241 0.147052 0.130080
C22   C     C_R   0.311331 0.406033 0.852970 0.130074
C23   C     C_R   0.727839 0.913986 0.074243 -0.194505
C24   C     C_R   0.272169 0.413675 0.925783 -0.194494
C25   C     C_R   0.794478 0.895670 0.096049 -0.184399
C26   C     C_R   0.205529 0.395439 0.903970 -0.184395
C27   C     C_R   0.675463 0.849007 0.313467 -0.127652
C28   C     C_R   0.324536 0.349100 0.686526 -0.127598
C29   C     C_R   0.581123 0.892300 0.194223 -0.179245
C30   C     C_R   0.418883 0.392068 0.805794 -0.179250
C31   C     C_R   0.892703 0.861734 0.213641 -0.098894
C32   C     C_R   0.107299 0.361760 0.786363 -0.098870
H7    H     H_    0.694192 0.809208 0.386280 0.108827
H8    H     H_    0.305801 0.309445 0.613694 0.108813
H9    H     H_    0.908439 0.893710 0.457730 0.113387
H10   H     H_    0.091565 0.394143 0.542289 0.113384
H11   H     H_    0.822177 0.892339 0.036217 0.112259
H12   H     H_    0.177829 0.392018 0.963800 0.112255
C33   C     C_1   0.166594 0.857061 0.168300 -0.158153
C34   C     C_1   0.833406 0.357058 0.831699 -0.158154
C35   C     C_1   0.218934 0.854749 0.219576 0.006724
C36   C     C_1   0.781066 0.354748 0.780424 0.006734
C37   C     C_1   0.280646 0.853324 0.279701 0.010535
C38   C     C_1   0.719354 0.353325 0.720299 0.010563
C39   C     C_1   0.333023 0.851061 0.330891 -0.176835
C40   C     C_1   0.666976 0.351064 0.669109 -0.176809
O11   O     O_R   0.922300 0.202240 0.924350 -0.527541
O12   O     O_R   0.077700 0.702240 0.075650 -0.527524
O13   O     O_R   0.050780 0.535130 0.891350 -0.548200
O14   O     O_R   0.949220 0.035130 0.108650 -0.548201
C41   C     C_R   0.067139 0.368079 0.864746 0.767511
C42   C     C_R   0.932862 0.868075 0.135256 0.767519
O15   O     O_R   0.921100 0.531560 0.912990 -0.544848
O16   O     O_R   0.078900 0.031560 0.087010 -0.544855
O17   O     O_R   0.947120 0.708470 0.097370 -0.529117
O18   O     O_R   0.052880 0.208470 0.902630 -0.529132
C43   C     C_R   0.895795 0.363570 0.893652 0.768718
C44   C     C_R   0.104205 0.863571 0.106347 0.768733
O19   O     O_3   0.008710 0.375800 0.060400 -0.376022
O20   O     O_3   0.991290 0.875800 0.939600 -0.376032
V3    V     V_3+5 0.998380 0.648080 0.988790 1.486839
V4    V     V_3+5 0.001620 0.148080 0.011210 1.486814
C45   C     C_2   0.992643 0.816950 0.339653 0.326838
H13   H     H_    0.013630 0.837019 0.414192 0.057362
O21   O     O_2   0.027771 0.762164 0.282687 -0.541534
C46   C     C_2   0.007356 0.317205 0.660336 0.326850
H14   H     H_    0.986367 0.337424 0.585810 0.057377
O22   O     O_2   0.972229 0.262299 0.717278 -0.541533
C47   C     C_2   0.788926 0.011007 0.442837 0.338527
H15   H     H_    0.806497 0.976975 0.517307 0.062489
O23   O     O_2   0.747800 0.132927 0.425730 -0.525888
C48   C     C_2   0.211089 0.511391 0.557239 0.338491
H16   H     H_    0.193512 0.477515 0.482752 0.062495
O24   O     O_2   0.252231 0.633253 0.574406 -0.525887

loop_
_geom_bond_atom_site_label_1
_geom_bond_atom_site_label_2
_ccdc_geom_bond_type
O14   V4    S    
C12   C14   A    
C47   H15   S    
C9    C11   A    
O1    C3    A    
O16   C44   A    
O2    C4    A    
C2    O7    A    
O15   V3    S    
C45   H13   S    
O3    V1    S    
C21   C23   A    
O5    C3    A    
O12   V3    S    
C12   H10   S    
C5    H5    S    
C6    H6    S    
C33   C44   S    
C20   C22   A    
C32   C41   S    
C46   O22   D    
O20   V4    S    
C33   C35   T    
C10   C46   S    
C27   H7    S    
C34   C36   T    
C28   H8    S    
C36   C38   S    
C5    C21   A    
C37   C39   T    
C6    C22   A    
C38   C40   T    
C10   C32   A    
C14   C48   S    
C17   C31   A    
C13   C15   A    
C17   C25   A    
C7    C29   A    
C16   C18   A    
C8    C30   A    
O5    V1    S    
O6    V2    S    
O11   V4    S    
O18   V4    S    
C11   C13   A    
C23   C25   A    
C24   C26   A    
C45   O21   D    
C34   C43   S    
O19   V3    S    
C35   C37   S    
C13   C47   S    
C9    C45   S    
O13   V3    S    
C46   H14   S    
O4    C2    A    
O20   V3    S    
C3    C8    S    
C15   C19   A    
C1    C40   S    
O13   C41   A    
C14   C16   A    
C2    C39   S    
O4    V2    S    
C26   H12   S    
C48   O24   D    
O6    C4    A    
O12   C44   A    
C42   O17   A    
O17   V3    S    
C41   O18   A    
O1    V2    S    
O2    V1    S    
H2    C30   S    
H3    C23   S    
C25   H11   S    
C31   C42   S    
C47   O23   D    
C18   C26   A    
C19   C27   A    
C7    C27   A    
C18   C32   A    
O19   V4    S    
C16   C20   A    
C5    C29   A    
O3    C1    A    
C6    C30   A    
O11   C43   A    
C4    C7    S    
C10   C12   A    
O7    V1    S    
C1    O8    A    
C19   C21   A    
O8    V2    S    
O15   C43   A    
C48   H16   S    
H4    C24   S    
C11   H9    S    
C22   C24   A    
C15   C17   A    
H1    C29   S    
C20   C28   A    
C8    C28   A    
O16   V4    S    
O9    V2    S    
O14   C42   A    
O10   V1    S    
C9    C31   A    
