data_mof_unit_9025.cif
_audit_creation_date              2012-12-10T17:58:59-0500
_audit_creation_method            fapswitch 2.2
_symmetry_space_group_name_H-M    P1
_symmetry_Int_Tables_number       1
_space_group_crystal_system       triclinic
_cell_length_a                    9.525641
_cell_length_b                    10.824806
_cell_length_c                    13.923728
_cell_angle_alpha                 90.036906
_cell_angle_beta                  84.671419
_cell_angle_gamma                 89.966286
_cell_volume                      1429.51530108

loop_
_atom_site_label
_atom_site_type_symbol
_atom_type_description
_atom_site_fract_x
_atom_site_fract_y
_atom_site_fract_z
_atom_type_partial_charge
C1    C     C_R   0.500022 0.737475 0.499983 0.860810
C2    C     C_R   0.499971 0.262531 0.500107 0.814853
C3    C     C_R   0.499939 0.128455 0.500093 -0.175162
C4    C     C_R   0.500012 0.871552 0.500151 -0.162374
C5    C     C_R   0.477042 0.500198 0.682817 0.880851
C6    C     C_R   0.522955 0.499672 0.317186 0.860509
C7    C     C_R   0.916819 0.569597 0.565019 0.023938
C8    C     C_R   0.083194 0.430414 0.434975 0.029624
C9    C     C_R   0.065570 0.569454 0.565043 0.022515
C10   C     C_R   0.934445 0.430569 0.434934 0.027644
C11   C     C_1   0.537198 0.499337 0.214515 -0.030917
C12   C     C_1   0.462854 0.499944 0.785488 -0.032113
C13   C     C_2   0.559645 0.499503 0.024054 -0.111903
C14   C     C_2   0.441146 0.498222 0.975926 -0.112492
C15   C     C_1   0.452356 0.499397 0.872042 0.072519
C16   C     C_1   0.547990 0.499203 0.127963 0.076040
C17   C     C_R   0.590775 0.935211 0.431175 -0.056725
C18   C     C_R   0.408974 0.064862 0.568922 -0.051404
C19   C     C_R   0.590777 0.064672 0.431211 -0.167453
C20   C     C_R   0.409449 0.935369 0.569378 -0.067829
Cu1   Cu    Cu3+1 0.359340 0.499980 0.500000 1.014062
Cu2   Cu    Cu3+1 0.640660 0.500020 0.500000 1.025332
H1    H     H_    0.853838 0.625590 0.617031 0.145586
H2    H     H_    0.146193 0.374434 0.382962 0.144689
H3    H     H_    0.114531 0.625017 0.617161 0.141892
H4    H     H_    0.885534 0.375018 0.382764 0.169363
N1    N     N_R   0.147930 0.499970 0.499980 -0.176419
N2    N     N_R   0.852070 0.500030 0.500020 -0.180586
O1    O     O_R   0.381260 0.680340 0.500000 -0.570155
O2    O     O_R   0.618740 0.319660 0.500000 -0.562401
O3    O     O_R   0.618830 0.680370 0.500010 -0.577737
O4    O     O_R   0.381170 0.319630 0.499990 -0.583256
O5    O     O_R   0.364420 0.499960 0.637840 -0.580038
O6    O     O_R   0.635580 0.500040 0.362160 -0.573394
O7    O     O_R   0.601990 0.499990 0.637850 -0.567912
O8    O     O_R   0.398010 0.500010 0.362150 -0.575006
C21   C     C_2   0.294445 0.492875 0.024754 0.901397
O9    O     O_2   0.195209 0.523795 0.980267 -0.549108
O10   O     O_R   0.267923 0.449812 0.119397 -0.755768
H5    H     H_    0.163924 0.450613 0.142891 0.353065
C22   C     C_2   0.706577 0.504403 0.975434 0.905034
O11   O     O_2   0.805886 0.477269 0.021150 -0.542355
O12   O     O_R   0.733289 0.542440 0.879496 -0.754216
H6    H     H_    0.837430 0.541829 0.856402 0.348437
C23   C     C_2   0.677239 0.866159 0.354565 0.878189
O13   O     O_2   0.805736 0.874753 0.347546 -0.518242
O14   O     O_R   0.610892 0.789919 0.291586 -0.774916
H7    H     H_    0.680498 0.747680 0.242674 0.337657
C24   C     C_2   0.322766 0.134346 0.645278 0.888529
O15   O     O_2   0.194122 0.132254 0.648479 -0.517131
O16   O     O_R   0.389742 0.204578 0.711794 -0.769629
H8    H     H_    0.320304 0.248409 0.759876 0.335426
C25   C     C_2   0.677714 0.133789 0.354583 0.903554
O17   O     O_2   0.806109 0.129716 0.351269 -0.498373
O18   O     O_R   0.614492 0.205216 0.286958 -0.736243
H9    H     H_    0.507812 0.200277 0.295008 0.288762
C26   C     C_2   0.323501 0.866793 0.646555 0.855073
O19   O     O_2   0.381314 0.797666 0.700087 -0.606078
O20   O     O_R   0.176967 0.880191 0.657030 -0.704890
H10   H     H_    0.130622 0.829205 0.712224 0.336872

loop_
_geom_bond_atom_site_label_1
_geom_bond_atom_site_label_2
_ccdc_geom_bond_type
O12   H6    S    
C3    C19   A    
C21   O9    D    
C11   C16   T    
O14   H7    S    
C12   C15   T    
C2    O2    A    
O18   H9    S    
C1    C4    S    
C19   C25   S    
C13   C22   S    
C2    C3    S    
Cu1   N1    S    
C9    H3    S    
O20   H10   S    
C21   O10   S    
Cu1   O8    S    
Cu2   N2    S    
C13   C14   D    
C14   C21   S    
Cu2   O7    S    
C22   O12   S    
C10   H4    S    
C26   O19   D    
C5    C12   S    
C7    H1    S    
C4    C17   A    
C5    O7    A    
C2    O4    A    
C1    O1    A    
C17   C19   A    
C6    O8    A    
C18   C24   S    
C18   C20   A    
C25   O18   S    
Cu2   O6    S    
Cu1   O4    S    
C26   O20   S    
Cu1   O5    S    
Cu2   O3    S    
O10   H5    S    
O16   H8    S    
C4    C20   A    
C23   O13   D    
C1    O3    A    
C23   O14   S    
C9    N1    A    
C3    C18   A    
C8    C10   A    
C24   O15   D    
C22   O11   D    
C13   C16   S    
C10   N2    A    
C6    C11   S    
C7    C9    A    
C8    N1    A    
C14   C15   S    
Cu2   O2    S    
C8    H2    S    
C20   C26   S    
Cu1   Cu2   S    
Cu1   O1    S    
C7    N2    A    
C6    O6    A    
C25   O17   D    
C17   C23   S    
C24   O16   S    
C5    O5    A    
