data_mof_unit_22309.cif
_audit_creation_date              2012-12-11T15:17:12-0500
_audit_creation_method            fapswitch 2.2
_symmetry_space_group_name_H-M    P1
_symmetry_Int_Tables_number       1
_space_group_crystal_system       triclinic
_cell_length_a                    8.492519
_cell_length_b                    16.396061
_cell_length_c                    19.010239
_cell_angle_alpha                 94.830058
_cell_angle_beta                  94.135426
_cell_angle_gamma                 92.691131
_cell_volume                      2627.04460543

loop_
_atom_site_label
_atom_site_type_symbol
_atom_type_description
_atom_site_fract_x
_atom_site_fract_y
_atom_site_fract_z
_atom_type_partial_charge
Ba1   Ba    Ba6+2 0.153080 0.539460 0.466290 1.620715
Ba2   Ba    Ba6+2 0.657090 0.460530 0.533660 1.616713
C1    C     C_3   0.337660 0.729217 0.194275 0.134679
C2    C     C_R   0.844073 0.758431 0.503738 0.054127
C3    C     C_R   0.887969 0.843335 0.514747 -0.146268
C4    C     C_3   0.890529 0.766584 0.295166 0.482266
C5    C     C_R   0.791100 0.902144 0.484925 0.236475
C6    C     C_R   0.644768 0.873849 0.449606 -0.164564
C7    C     C_R   0.601438 0.789627 0.438728 -0.004379
C8    C     C_R   0.914898 0.155919 0.488667 -0.150135
C9    C     C_R   0.969465 0.239257 0.491023 0.044017
C10   C     C_R   0.013652 0.096796 0.517182 0.236292
C11   C     C_R   0.120861 0.262765 0.520215 -0.305047
C12   C     C_3   0.343258 0.710308 0.272922 0.360798
C13   C     C_R   0.219237 0.206605 0.548157 0.013409
C14   C     C_R   0.166076 0.123916 0.547061 -0.129529
C15   C     C_R   0.604441 0.534394 0.297088 -0.308016
C16   C     C_3   0.857912 0.837629 0.248727 -0.195938
C17   C     C_R   0.460549 0.491868 0.275189 0.085831
C18   C     C_R   0.409610 0.481633 0.202552 0.026699
C19   C     C_R   0.507796 0.511304 0.151756 -0.014039
C20   C     C_R   0.656318 0.550858 0.174707 0.068240
C21   C     C_R   0.704279 0.562293 0.247833 0.017922
C22   C     C_R   0.419131 0.569117 0.039284 -0.113187
C23   C     C_3   0.537590 0.724195 0.666405 0.290601
C24   C     C_R   0.362628 0.562353 0.967634 0.106448
C25   C     C_R   0.343000 0.484509 0.929721 0.047597
C26   C     C_R   0.383559 0.414435 0.963768 0.119649
C27   C     C_R   0.445961 0.421855 0.035290 0.121302
C28   C     C_3   0.745792 0.340520 0.316636 0.417403
C29   C     C_R   0.456891 0.499861 0.074376 0.030625
C30   C     C_R   0.143998 0.440604 0.826881 -0.142064
C31   C     C_R   0.099577 0.433321 0.753845 -0.003139
C32   C     C_R   0.352163 0.499532 0.732400 0.117379
C33   C     C_R   0.394941 0.508182 0.805175 -0.125047
C34   C     C_3   0.483726 0.810115 0.690808 -0.182325
C35   C     C_R   0.293008 0.477060 0.852784 0.027907
C36   C     C_R   0.208056 0.459449 0.706863 -0.093170
C37   C     C_3   0.646502 0.286660 0.258001 -0.136811
C38   C     C_3   0.972273 0.652414 0.690973 0.316535
C39   C     C_3   0.890973 0.664089 0.761403 -0.176801
C40   C     C_3   0.277332 0.294158 0.377556 0.292606
C41   C     C_3   0.251860 0.202738 0.355607 -0.383334
C42   C     C_3   0.744567 0.243941 0.202815 -0.413624
C43   C     C_3   0.146156 0.658836 0.708013 -0.284177
C44   C     C_3   0.919879 0.749887 0.799976 -0.409946
C45   C     C_3   0.856739 0.236917 0.676092 0.331998
C46   C     C_3   0.502240 0.708808 0.587091 -0.289528
C47   C     C_3   0.501610 0.829326 0.771147 -0.378785
C48   C     C_3   0.758464 0.903004 0.283367 -0.499042
C49   C     C_3   0.852550 0.147576 0.692436 -0.369385
C50   C     C_3   0.406362 0.231640 0.722614 0.608807
C51   C     C_3   0.445342 0.175838 0.782730 -0.072712
C52   C     C_R   0.706953 0.732439 0.461113 -0.266898
H1    H     H_    0.236995 0.671539 0.280787 0.104480
H2    H     H_    0.170473 0.192617 0.306892 0.127801
H3    H     H_    0.199451 0.170622 0.397958 0.068446
H4    H     H_    0.366463 0.175954 0.345255 0.114234
H5    H     H_    0.448211 0.673877 0.283158 -0.098159
H6    H     H_    0.666248 0.725881 0.677275 0.076033
H7    H     H_    0.554968 0.857614 0.666706 0.074164
H8    H     H_    0.357810 0.815515 0.672170 0.106524
H9    H     H_    0.748772 0.248056 0.643114 0.121667
H10   H     H_    0.958588 0.247440 0.644320 -0.009115
H11   H     H_    0.842130 0.107164 0.642316 0.102105
H12   H     H_    0.560498 0.324624 0.230947 0.076415
H13   H     H_    0.962221 0.134523 0.723881 0.135306
H14   H     H_    0.749879 0.133127 0.722583 0.125295
H15   H     H_    0.386516 0.197443 0.830705 0.067706
H16   H     H_    0.574343 0.179237 0.798036 0.065834
H17   H     H_    0.799072 0.137500 0.463285 0.118439
H18   H     H_    0.563602 0.917724 0.430930 0.097381
H19   H     H_    0.995616 0.862950 0.546899 0.111213
H20   H     H_    0.244258 0.080325 0.568530 0.098990
H21   H     H_    0.672678 0.667769 0.452507 0.073932
H22   H     H_    0.167214 0.324535 0.516455 0.062791
H23   H     H_    0.578242 0.238856 0.282858 0.109489
H24   H     H_    0.505392 0.540790 0.824820 0.094234
H25   H     H_    0.435146 0.629084 0.067747 0.107143
H26   H     H_    0.778272 0.747073 0.317438 -0.055014
H27   H     H_    0.062768 0.418782 0.863372 0.088937
H28   H     H_    0.643967 0.541303 0.352772 0.072286
H29   H     H_    0.970878 0.868043 0.236601 0.123019
H30   H     H_    0.797115 0.812890 0.197275 0.108045
H31   H     H_    0.661367 0.370701 0.351039 0.022853
H32   H     H_    0.801704 0.289378 0.171309 0.124077
H33   H     H_    0.836320 0.207940 0.228632 0.152775
H34   H     H_    0.934482 0.590332 0.665789 0.044292
H35   H     H_    0.665751 0.201430 0.165879 0.122797
H36   H     H_    0.187418 0.723324 0.724036 0.132890
H37   H     H_    0.180791 0.621410 0.751664 0.036154
H38   H     H_    0.196204 0.639190 0.658045 0.096314
H39   H     H_    0.045030 0.760181 0.821280 0.124597
H40   H     H_    0.890333 0.797739 0.763962 0.151607
H41   H     H_    0.844910 0.755693 0.845437 0.118971
H42   H     H_    0.577222 0.718037 0.190760 0.140833
H43   H     H_    0.519946 0.815645 0.200333 0.204253
H44   H     H_    0.575910 0.660022 0.565616 0.085414
H45   H     H_    0.933897 0.618674 0.797676 0.068952
H46   H     H_    0.377831 0.690161 0.574705 0.167484
H47   H     H_    0.526372 0.766199 0.562592 0.021938
H48   H     H_    0.428594 0.785110 0.797836 0.160530
H49   H     H_    0.626861 0.827558 0.791183 0.118914
H50   H     H_    0.461680 0.891816 0.784834 0.108081
H51   H     H_    0.226043 0.837473 0.215526 0.215126
H52   H     H_    0.109371 0.760549 0.169205 0.202688
H53   H     H_    0.720886 0.945595 0.243710 0.143731
H54   H     H_    0.651288 0.874604 0.303294 0.140243
H55   H     H_    0.827986 0.939610 0.327754 0.154006
H56   H     H_    0.762836 0.649333 0.752918 0.129957
H57   H     H_    0.206679 0.281991 0.683043 0.111716
H58   H     H_    0.182093 0.239372 0.757144 0.161191
H59   H     H_    0.413040 0.337370 0.788605 0.141964
H60   H     H_    0.588190 0.313794 0.760850 0.210423
H61   H     H_    0.019793 0.749997 0.387288 0.214025
H62   H     H_    0.976025 0.846871 0.380081 0.151115
H63   H     H_    0.465656 0.066153 0.724750 0.200493
H64   H     H_    0.405184 0.057696 0.805775 0.166303
H65   H     H_    0.350725 0.687195 0.967326 0.184276
H66   H     H_    0.202614 0.631291 0.920358 0.169941
H67   H     H_    0.162014 0.319061 0.388636 0.037630
H68   H     H_    0.275713 0.385829 0.151324 0.182397
H69   H     H_    0.193545 0.477924 0.149196 0.186222
H70   H     H_    0.293787 0.297077 0.951745 0.192065
H71   H     H_    0.475935 0.311204 0.921962 0.170074
H72   H     H_    0.594848 0.329481 0.037534 0.171597
H73   H     H_    0.549685 0.363606 0.117382 0.173872
H74   H     H_    0.862383 0.546190 0.127242 0.193837
H75   H     H_    0.785183 0.640031 0.133517 0.184780
H76   H     H_    0.142646 0.386613 0.618527 0.156507
H77   H     H_    0.081978 0.485717 0.617513 0.191522
H78   H     H_    0.361490 0.303184 0.425435 0.055099
H79   H     H_    0.886903 0.443707 0.328757 0.207716
H80   H     H_    0.935050 0.377062 0.263232 0.211316
H81   H     H_    0.303131 0.670491 0.162190 0.054285
N1    N     N_2   0.832414 0.988973 0.489544 -0.233775
N2    N     N_3   0.258681 0.440676 0.181112 -0.461627
N3    N     N_3   0.364777 0.335564 0.924560 -0.520499
N4    N     N_3   0.500828 0.349782 0.065729 -0.510902
N5    N     N_3   0.757913 0.577200 0.122958 -0.495505
N6    N     N_3   0.172199 0.448154 0.632312 -0.445552
N7    N     N_3   0.839290 0.403438 0.286327 -0.520168
N8    N     N_2   0.969923 0.010368 0.514836 -0.229919
N9    N     N_3   0.492011 0.757702 0.174303 -0.486029
N10   N     N_3   0.222352 0.789003 0.176016 -0.477285
N11   N     N_3   0.234050 0.230483 0.709018 -0.482778
N12   N     N_3   0.468921 0.315442 0.744297 -0.482847
N13   N     N_3   0.011344 0.794653 0.351656 -0.428225
N14   N     N_3   0.390724 0.090884 0.761340 -0.477800
N15   N     N_3   0.324796 0.634348 0.932903 -0.501600
O1    O     O_2   0.121950 0.695970 0.534170 -0.486701
O2    O     O_2   0.769183 0.438992 0.752532 -0.486927
O3    O     O_3   0.867594 0.288860 0.739371 -0.619230
O4    O     O_3   0.871970 0.595810 0.535570 -0.489171
O5    O     O_3   0.435500 0.459820 0.416880 -0.493779
O6    O     O_2   0.630010 0.537400 0.669530 -0.465696
O7    O     O_3   0.463556 0.666032 0.705807 -0.656761
O8    O     O_2   0.535099 0.208286 0.531238 -0.491364
O9    O     O_3   0.480282 0.200299 0.662169 -0.601310
O10   O     O_3   0.356610 0.647930 0.408330 -0.486615
O11   O     O_2   0.279380 0.797305 0.453264 -0.475252
O12   O     O_3   0.339175 0.331876 0.321762 -0.643176
O13   O     O_3   0.939723 0.714421 0.646093 -0.650703
O14   O     O_3   0.349232 0.781616 0.320123 -0.606890
O15   O     O_2   0.180290 0.462550 0.330450 -0.443271
O16   O     O_3   0.940700 0.607800 0.373310 -0.492550
O17   O     O_2   0.028361 0.551903 0.248855 -0.480357
O18   O     O_3   0.949472 0.702457 0.252169 -0.634316
O19   O     O_2   0.688350 0.303980 0.465810 -0.463557
O20   O     O_3   0.938330 0.404180 0.464370 -0.488354
O21   O     O_3   0.453690 0.352060 0.591610 -0.440488
O22   O     O_3   0.847468 0.291050 0.353272 -0.646247
O23   O     O_3   0.374800 0.540170 0.583060 -0.455232
O24   O     O_3   0.869600 0.392190 0.626640 -0.499738
P1    P     P_3+3 0.950430 0.683250 0.555020 0.961545
P2    P     P_3+3 0.353690 0.438260 0.341200 1.000674
P3    P     P_3+3 0.903200 0.606067 0.281266 0.908133
P4    P     P_3+3 0.859870 0.316740 0.444930 0.974324
P5    P     P_3+3 0.900711 0.390334 0.718715 0.921811
P6    P     P_3+3 0.397226 0.753822 0.406145 0.948157
P7    P     P_3+3 0.455852 0.561789 0.672148 0.959107
P8    P     P_3+3 0.419854 0.243901 0.583582 0.969835

loop_
_geom_bond_atom_site_label_1
_geom_bond_atom_site_label_2
_ccdc_geom_bond_type
O5    P2    S    
C51   N14   S    
O3    P5    S    
Ba1   P2    S    
Ba2   O5    S    
C31   P5    S    
C3    H19   S    
O21   P8    S    
C17   C18   A    
C51   H15   S    
C47   H50   S    
C5    C6    A    
O15   P2    D    
C30   H27   S    
C19   C29   S    
Ba1   O23   S    
H79   N7    S    
C15   C21   A    
H52   N10   S    
O7    P7    S    
O4    P1    S    
O20   P4    S    
C14   H20   S    
C37   H23   S    
H70   N3    S    
C26   C27   A    
C33   C35   A    
C22   C24   A    
H60   N12   S    
C32   C33   A    
N1    N8    D    
Ba2   O23   S    
C45   H9    S    
C34   H8    S    
O12   P2    S    
O18   P3    S    
C13   P8    S    
C20   N5    S    
Ba1   O20   S    
C32   P7    S    
C15   H28   S    
C49   H11   S    
Ba1   O5    S    
H76   N6    S    
C17   P2    S    
O10   P6    S    
C41   H4    S    
C15   C17   A    
H42   N9    S    
C44   H41   S    
C10   C14   A    
C6    C7    A    
C2    P1    S    
C16   H30   S    
C39   C44   S    
C39   H45   S    
C23   H6    S    
C42   H33   S    
H77   N6    S    
Ba2   O21   S    
Ba2   O6    S    
C8    H17   S    
H65   N15   S    
C12   H1    S    
O13   P1    S    
Ba2   O4    S    
C19   C20   A    
C48   H54   S    
H73   N4    S    
C42   H32   S    
C51   H16   S    
C38   C43   S    
C27   N4    S    
C4    C16   S    
C4    O18   S    
H72   N4    S    
C6    H18   S    
O1    P1    D    
C13   C14   A    
C24   N15   S    
C46   H46   S    
C26   N3    S    
C38   O13   S    
C44   H39   S    
H57   N11   S    
C45   H10   S    
C3    C5    A    
C45   C49   S    
C45   O3    S    
H61   N13   S    
C48   H55   S    
C28   H31   S    
C18   N2    S    
H64   N14   S    
C34   C47   S    
H43   N9    S    
C12   H5    S    
H80   N7    S    
C4    N13   S    
C22   H25   S    
C4    H26   S    
C44   H40   S    
C11   H22   S    
Ba1   O15   S    
H51   N10   S    
C16   H29   S    
C24   C25   A    
O16   P3    S    
C49   H13   S    
C30   C35   A    
O11   P6    D    
C43   H36   S    
O8    P8    D    
C23   C46   S    
C28   O22   S    
C7    P6    S    
C8    C10   A    
Ba2   O20   S    
C38   C39   S    
O17   P3    D    
C1    N10   S    
C50   N12   S    
C39   H56   S    
C11   C13   A    
C23   O7    S    
C48   H53   S    
C36   N6    S    
C40   C41   S    
C34   H7    S    
O19   P4    D    
C47   H48   S    
C50   C51   S    
C16   C48   S    
H62   N13   S    
O22   P4    S    
Ba1   P1    S    
C50   N11   S    
C2    C52   A    
C32   C36   A    
Ba1   O10   S    
C1    N9    S    
H68   N2    S    
C2    C3    A    
O14   P6    S    
C47   H49   S    
H63   N14   S    
O6    P7    D    
C40   O12   S    
C37   C42   S    
C1    C12   S    
H71   N3    S    
C46   H44   S    
H69   N2    S    
C33   H24   S    
H66   N15   S    
C31   C36   A    
C28   N7    S    
C10   N8    S    
C30   C31   A    
H59   N12   S    
O2    P5    D    
H74   N5    S    
C22   C29   A    
C5    N1    S    
C27   C29   A    
Ba2   O24   S    
C9    C11   A    
C38   H34   S    
H75   N5    S    
Ba1   O16   S    
C50   O9    S    
C46   H47   S    
Ba1   Ba2   S    
C37   H12   S    
H58   N11   S    
C28   C37   S    
Ba1   O1    S    
C1    H81   S    
C49   H14   S    
O9    P8    S    
C12   O14   S    
Ba1   O4    S    
C43   H37   S    
Ba2   O19   S    
C21   P3    S    
C8    C9    A    
C41   H3    S    
C23   C34   S    
O23   P7    S    
C52   H21   S    
C41   H2    S    
C18   C19   A    
C25   C26   A    
C20   C21   A    
C43   H38   S    
C40   H78   S    
C7    C52   A    
Ba2   P4    S    
C9    P4    S    
O24   P5    S    
C42   H35   S    
C25   C35   S    
C40   H67   S    
