data_mof_unit_11963.cif
_audit_creation_date              2012-12-11T16:07:21-0500
_audit_creation_method            fapswitch 2.2
_symmetry_space_group_name_H-M    P1
_symmetry_Int_Tables_number       1
_space_group_crystal_system       triclinic
_cell_length_a                    17.115561
_cell_length_b                    17.121749
_cell_length_c                    17.299653
_cell_angle_alpha                 90.336987
_cell_angle_beta                  89.997141
_cell_angle_gamma                 90.000243
_cell_volume                      5069.54689289

loop_
_atom_site_label
_atom_site_type_symbol
_atom_type_description
_atom_site_fract_x
_atom_site_fract_y
_atom_site_fract_z
_atom_type_partial_charge
C1    C     C_R   0.394229 0.698642 0.605653 -0.119809
C2    C     C_R   0.575746 0.669620 0.646008 -0.095041
C3    C     C_3   0.772215 0.187671 0.635597 0.330936
C4    C     C_3   0.714341 0.752025 0.275266 0.284559
C5    C     C_3   0.285661 0.247957 0.724748 0.284641
C6    C     C_3   0.812229 0.225586 0.366470 0.334211
C7    C     C_3   0.188094 0.774770 0.633470 0.334033
C8    C     C_3   0.687646 0.725736 0.866434 0.334358
C9    C     C_3   0.312333 0.274287 0.133562 0.334367
C10   C     C_3   0.785776 0.252163 0.775178 0.284566
C11   C     C_3   0.213950 0.747609 0.225008 0.284399
C12   C     C_3   0.272350 0.312230 0.864452 0.330809
C13   C     C_R   0.698419 0.392812 0.394856 -0.066153
C14   C     C_3   0.727640 0.687784 0.135545 0.330783
C15   C     C_3   0.249451 0.785389 0.774338 0.284315
C16   C     C_3   0.750240 0.214238 0.225924 0.284102
C17   C     C_R   0.301601 0.607151 0.605232 -0.066520
C18   C     C_R   0.576882 0.668073 0.353237 -0.017570
C19   C     C_R   0.423107 0.331916 0.646758 -0.017617
C20   C     C_R   0.301574 0.605386 0.393924 -0.131144
C21   C     C_R   0.698406 0.394631 0.606142 -0.130843
C22   C     C_R   0.924276 0.169588 0.146027 -0.094810
C23   C     C_R   0.075696 0.830457 0.853944 -0.094345
C24   C     C_R   0.198423 0.107197 0.105120 -0.066179
C25   C     C_R   0.605789 0.301328 0.394444 -0.120269
C26   C     C_R   0.801575 0.892799 0.894889 -0.066067
C27   C     C_R   0.076947 0.831869 0.146731 -0.017299
C28   C     C_R   0.923085 0.168107 0.853255 -0.017579
C29   C     C_R   0.801603 0.894636 0.106179 -0.130617
C30   C     C_R   0.198400 0.105369 0.893835 -0.130481
C31   C     C_R   0.894206 0.801318 0.894478 -0.120314
C32   C     C_R   0.105793 0.198679 0.105531 -0.120384
C33   C     C_R   0.167274 0.923819 0.852590 -0.021324
C34   C     C_R   0.832695 0.076221 0.147394 -0.020919
C35   C     C_R   0.106835 0.198063 0.894192 -0.073540
C36   C     C_R   0.667322 0.576244 0.647382 -0.020758
C37   C     C_R   0.893169 0.801941 0.105821 -0.073632
C38   C     C_R   0.829720 0.076266 0.854585 -0.091178
C39   C     C_R   0.170313 0.923714 0.145391 -0.091443
C40   C     C_3   0.327946 0.323974 0.248471 -0.212449
C41   C     C_3   0.672060 0.676034 0.751527 -0.212473
C42   C     C_3   0.263660 0.733947 0.338388 -0.213203
C43   C     C_3   0.736302 0.266078 0.661733 -0.213237
C44   C     C_3   0.677413 0.673363 0.250031 -0.213085
C45   C     C_3   0.322577 0.326628 0.749964 -0.213086
C46   C     C_3   0.734895 0.262916 0.339791 -0.214143
C47   C     C_R   0.332686 0.423764 0.352614 -0.020723
C48   C     C_3   0.265136 0.737012 0.660395 -0.214299
C49   C     C_3   0.765100 0.762894 0.839854 -0.214063
C50   C     C_3   0.234900 0.237100 0.160163 -0.214063
C51   C     C_3   0.822543 0.173395 0.750055 -0.213055
C52   C     C_3   0.177512 0.826592 0.249937 -0.213111
C53   C     C_3   0.236290 0.233920 0.838225 -0.213286
C54   C     C_3   0.763713 0.766084 0.161791 -0.213281
C55   C     C_3   0.172032 0.824062 0.748475 -0.212291
C56   C     C_3   0.827956 0.175996 0.251536 -0.212407
C57   C     C_R   0.317949 0.683503 0.622883 0.246142
C58   C     C_R   0.606845 0.301933 0.605784 -0.073409
C59   C     C_R   0.682090 0.316433 0.377298 0.246296
C60   C     C_R   0.632121 0.634677 0.690445 0.212110
C61   C     C_R   0.367890 0.365336 0.309547 0.212132
C62   C     C_R   0.683072 0.318542 0.623810 0.257600
C63   C     C_R   0.316888 0.681488 0.376311 0.257772
C64   C     C_R   0.364091 0.366659 0.689397 0.218105
C65   C     C_R   0.635894 0.633327 0.310593 0.218171
C66   C     C_R   0.867914 0.134627 0.190473 0.212170
C67   C     C_R   0.132026 0.865458 0.809481 0.212286
C68   C     C_R   0.182098 0.183584 0.122655 0.246377
C69   C     C_R   0.393133 0.698082 0.394273 -0.073215
C70   C     C_R   0.817898 0.816410 0.877363 0.246405
C71   C     C_R   0.136014 0.866578 0.189331 0.217957
C72   C     C_R   0.864053 0.133376 0.810630 0.218078
C73   C     C_R   0.816949 0.818556 0.123879 0.257531
C74   C     C_R   0.183057 0.181450 0.876143 0.257502
C75   C     C_3   0.711607 0.648205 0.826399 0.306010
C76   C     C_3   0.288363 0.351803 0.173618 0.305951
C77   C     C_3   0.709067 0.227904 0.737538 0.277709
C78   C     C_3   0.290830 0.771752 0.262377 0.277877
C79   C     C_3   0.244621 0.349946 0.788716 0.263778
C80   C     C_R   0.329736 0.423743 0.645430 -0.091214
C81   C     C_3   0.755366 0.650044 0.211273 0.263814
C82   C     C_3   0.288945 0.814015 0.700757 0.277746
C83   C     C_3   0.711231 0.185680 0.299784 0.277599
C84   C     C_3   0.775016 0.290168 0.264906 0.279075
C85   C     C_3   0.224533 0.709688 0.735004 0.278791
C86   C     C_3   0.649566 0.711368 0.174436 0.313011
C87   C     C_3   0.350428 0.288647 0.825568 0.312937
C88   C     C_3   0.185521 0.710866 0.300044 0.274479
C89   C     C_3   0.814268 0.289277 0.700349 0.274746
C90   C     C_3   0.351657 0.246605 0.208588 0.262630
C91   C     C_R   0.670254 0.576246 0.354564 -0.091106
C92   C     C_3   0.648358 0.753417 0.791389 0.262539
C93   C     C_3   0.274859 0.209871 0.235135 0.279155
C94   C     C_3   0.725177 0.790122 0.764863 0.279076
C95   C     C_3   0.149744 0.789163 0.325846 0.313457
C96   C     C_3   0.850370 0.211200 0.674354 0.313099
C97   C     C_3   0.685826 0.789335 0.200542 0.274807
C98   C     C_3   0.314180 0.210670 0.799481 0.274887
C99   C     C_3   0.851719 0.253290 0.291529 0.262672
C100  C     C_3   0.148116 0.747000 0.708142 0.262857
C101  C     C_3   0.212271 0.851973 0.673988 0.305473
C102  C     C_R   0.424264 0.330390 0.353986 -0.094982
C103  C     C_3   0.788207 0.148147 0.326302 0.305923
C104  C     C_3   0.209028 0.272267 0.762517 0.277709
C105  C     C_3   0.790971 0.727714 0.237491 0.277788
C106  C     C_3   0.744511 0.150130 0.711428 0.263785
C107  C     C_3   0.255717 0.849734 0.288298 0.263663
C108  C     C_3   0.788704 0.685570 0.799982 0.277620
C109  C     C_3   0.211287 0.314411 0.200056 0.277556
C110  C     C_3   0.250131 0.285876 0.274004 0.284067
C111  C     C_3   0.749896 0.714103 0.726015 0.284123
C112  C     C_3   0.228075 0.812567 0.364329 0.331150
H1    H     H_    0.422279 0.755074 0.603070 0.172105
H2    H     H_    0.540988 0.720177 0.660354 0.173703
H3    H     H_    0.755414 0.420097 0.395998 0.126673
H4    H     H_    0.244604 0.579872 0.604085 0.127008
H5    H     H_    0.541976 0.717940 0.337045 0.131285
H6    H     H_    0.458009 0.282045 0.662947 0.131382
H7    H     H_    0.245220 0.577088 0.395992 0.171091
H8    H     H_    0.754769 0.422912 0.604071 0.170982
H9    H     H_    0.959038 0.220141 0.160383 0.173351
H10   H     H_    0.040957 0.779888 0.839572 0.172866
H11   H     H_    0.255417 0.079911 0.103977 0.126660
H12   H     H_    0.577712 0.244911 0.397028 0.172317
H13   H     H_    0.744582 0.920087 0.896029 0.126569
H14   H     H_    0.042044 0.781999 0.162928 0.131475
H15   H     H_    0.957984 0.217980 0.837064 0.131452
H16   H     H_    0.745234 0.922905 0.104106 0.170899
H17   H     H_    0.254770 0.077100 0.895910 0.170856
H18   H     H_    0.922294 0.744907 0.897055 0.172298
H19   H     H_    0.077710 0.255092 0.102951 0.172354
H20   H     H_    0.217186 0.958556 0.836149 0.128731
H21   H     H_    0.782792 0.041475 0.163845 0.128728
H22   H     H_    0.079412 0.254986 0.894905 0.121922
H23   H     H_    0.717219 0.541491 0.663833 0.128662
H24   H     H_    0.920591 0.745017 0.105109 0.121963
H25   H     H_    0.779323 0.041185 0.840447 0.175971
H26   H     H_    0.220699 0.958813 0.159518 0.176311
H27   H     H_    0.167644 0.261362 0.344908 0.363532
H28   H     H_    0.832420 0.738574 0.655141 0.363628
H29   H     H_    0.205849 0.894048 0.437311 0.353466
H30   H     H_    0.794884 0.106530 0.562383 0.353396
H31   H     H_    0.737445 0.835746 0.345796 0.365098
H32   H     H_    0.262568 0.164218 0.654238 0.365166
H33   H     H_    0.891553 0.201061 0.440436 0.351632
H34   H     H_    0.282793 0.458523 0.336162 0.128513
H35   H     H_    0.109230 0.799870 0.559218 0.351646
H36   H     H_    0.608138 0.701432 0.940288 0.351642
H37   H     H_    0.391810 0.298625 0.059686 0.351649
H38   H     H_    0.762923 0.336084 0.845554 0.365034
H39   H     H_    0.236231 0.663279 0.154933 0.364966
H40   H     H_    0.295214 0.393213 0.937776 0.353391
H41   H     H_    0.704768 0.606820 0.062201 0.353386
H42   H     H_    0.331211 0.759933 0.845729 0.363474
H43   H     H_    0.667919 0.238961 0.154912 0.363507
H44   H     H_    0.735708 0.573723 0.904955 0.359550
H45   H     H_    0.579423 0.245008 0.605073 0.121798
H46   H     H_    0.264227 0.426283 0.095069 0.359556
H47   H     H_    0.635947 0.205115 0.818271 0.356308
H48   H     H_    0.363802 0.793947 0.181347 0.356466
H49   H     H_    0.159667 0.418257 0.814280 0.348101
H50   H     H_    0.840307 0.581723 0.185687 0.348098
H51   H     H_    0.357694 0.897409 0.730153 0.354975
H52   H     H_    0.642725 0.101878 0.270995 0.354951
H53   H     H_    0.800836 0.363542 0.185605 0.358548
H54   H     H_    0.197928 0.636136 0.813892 0.358437
H55   H     H_    0.574999 0.733819 0.095152 0.359281
H56   H     H_    0.420561 0.755004 0.394980 0.121564
H57   H     H_    0.425002 0.266214 0.904848 0.359288
H58   H     H_    0.100007 0.643402 0.274057 0.351208
H59   H     H_    0.899487 0.356935 0.726793 0.351182
H60   H     H_    0.420691 0.162667 0.181620 0.352785
H61   H     H_    0.579346 0.837386 0.818315 0.352773
H62   H     H_    0.300432 0.136546 0.314556 0.358529
H63   H     H_    0.699654 0.863440 0.685421 0.358559
H64   H     H_    0.075269 0.767387 0.405406 0.359285
H65   H     H_    0.924913 0.233417 0.594978 0.359299
H66   H     H_    0.600785 0.857109 0.227283 0.351100
H67   H     H_    0.279320 0.458798 0.659573 0.175927
H68   H     H_    0.399239 0.142907 0.772771 0.351155
H69   H     H_    0.920857 0.337078 0.318687 0.352728
H70   H     H_    0.078681 0.663643 0.680422 0.352653
H71   H     H_    0.237238 0.926579 0.595804 0.359527
H72   H     H_    0.763878 0.073642 0.404773 0.359555
H73   H     H_    0.135841 0.295341 0.681930 0.356224
H74   H     H_    0.864156 0.704612 0.318073 0.356169
H75   H     H_    0.659415 0.081925 0.686067 0.348101
H76   H     H_    0.341127 0.917707 0.313235 0.348127
H77   H     H_    0.857114 0.601609 0.771424 0.354890
H78   H     H_    0.720662 0.541180 0.340417 0.175832
H79   H     H_    0.142858 0.398341 0.228660 0.354851
H80   H     H_    0.459030 0.279839 0.339636 0.173549
N1    N     N_R   0.424590 0.632770 0.578330 -0.069535
N2    N     N_R   0.575410 0.632770 0.578330 -0.058524
N3    N     N_R   0.632770 0.424590 0.421670 -0.067915
N4    N     N_R   0.367230 0.575410 0.578330 -0.067962
N5    N     N_R   0.575410 0.632770 0.421670 -0.058753
N6    N     N_R   0.424590 0.367230 0.578330 -0.058747
N7    N     N_R   0.367230 0.575410 0.421670 -0.069862
N8    N     N_R   0.632770 0.424590 0.578330 -0.069917
N9    N     N_R   0.924590 0.132770 0.078330 -0.058469
N10   N     N_R   0.075410 0.867230 0.921670 -0.058393
N11   N     N_R   0.132770 0.075410 0.078330 -0.067891
N12   N     N_R   0.575410 0.367230 0.421670 -0.069479
N13   N     N_R   0.867230 0.924590 0.921670 -0.067904
N14   N     N_R   0.075410 0.867230 0.078330 -0.058807
N15   N     N_R   0.924590 0.132770 0.921670 -0.058771
N16   N     N_R   0.867230 0.924590 0.078330 -0.069943
N17   N     N_R   0.132770 0.075410 0.921670 -0.069953
N18   N     N_R   0.924590 0.867230 0.921670 -0.069481
N19   N     N_R   0.075410 0.132770 0.078330 -0.069457
N20   N     N_R   0.132770 0.924590 0.921670 -0.055876
N21   N     N_R   0.867230 0.075410 0.078330 -0.055937
N22   N     N_R   0.075410 0.132770 0.921670 -0.068318
N23   N     N_R   0.632770 0.575410 0.578330 -0.055955
N24   N     N_R   0.924590 0.867230 0.078330 -0.068313
N25   N     N_R   0.867230 0.075410 0.921670 -0.061166
N26   N     N_R   0.132770 0.924590 0.078330 -0.061214
N27   N     N_R   0.367230 0.424590 0.421670 -0.055936
N28   N     N_R   0.575410 0.367230 0.578330 -0.068303
N29   N     N_R   0.424590 0.632770 0.421670 -0.068262
N30   N     N_R   0.367230 0.424590 0.578330 -0.061111
N31   N     N_R   0.632770 0.575410 0.421670 -0.061127
N32   N     N_R   0.424590 0.367230 0.421670 -0.058504
Ni1   Ni    Ni4+2 0.500000 0.631570 0.500000 0.239647
Ni2   Ni    Ni4+2 0.500000 0.368430 0.500000 0.239665
Ni3   Ni    Ni4+2 0.631570 0.500000 0.500000 0.239730
Ni4   Ni    Ni4+2 0.368430 0.500000 0.500000 0.239737
Ni5   Ni    Ni4+2 1.000000 0.131570 0.000000 0.239684
Ni6   Ni    Ni4+2 1.000000 0.868430 0.000000 0.239740
Ni7   Ni    Ni4+2 0.131570 0.000000 0.000000 0.239665
Ni8   Ni    Ni4+2 0.868430 0.000000 0.000000 0.239704
O1    O     O_3   0.217268 0.291067 0.347944 -0.703899
O2    O     O_3   0.343785 0.266295 0.059446 -0.689481
O3    O     O_3   0.792063 0.286174 0.848676 -0.705651
O4    O     O_3   0.207383 0.713348 0.151646 -0.705705
O5    O     O_3   0.263497 0.344794 0.938143 -0.689055
O6    O     O_3   0.736486 0.655238 0.061844 -0.689069
O7    O     O_3   0.281855 0.790099 0.848506 -0.703787
O8    O     O_3   0.717492 0.209168 0.151929 -0.703873
O9    O     O_3   0.703094 0.573615 0.857622 -0.695773
O10   O     O_3   0.296840 0.426402 0.142402 -0.695837
O11   O     O_3   0.635210 0.237426 0.770927 -0.698026
O12   O     O_3   0.782784 0.708890 0.652088 -0.703882
O13   O     O_3   0.364574 0.761863 0.228843 -0.697757
O14   O     O_3   0.208507 0.422981 0.783879 -0.702362
O15   O     O_3   0.791470 0.577001 0.216092 -0.702514
O16   O     O_3   0.362468 0.849463 0.698109 -0.710688
O17   O     O_3   0.637892 0.149906 0.302910 -0.710961
O18   O     O_3   0.767355 0.364376 0.232351 -0.689266
O19   O     O_3   0.231711 0.635340 0.767360 -0.689345
O20   O     O_3   0.575245 0.701435 0.142440 -0.681553
O21   O     O_3   0.424746 0.298599 0.857560 -0.681565
O22   O     O_3   0.148388 0.638364 0.305121 -0.725606
O23   O     O_3   0.237354 0.845494 0.437813 -0.688925
O24   O     O_3   0.851162 0.361927 0.695637 -0.725548
O25   O     O_3   0.425289 0.211509 0.212319 -0.707504
O26   O     O_3   0.574740 0.788537 0.787628 -0.707191
O27   O     O_3   0.267035 0.135708 0.267754 -0.689445
O28   O     O_3   0.733036 0.864276 0.732233 -0.689300
O29   O     O_3   0.075587 0.799656 0.358041 -0.681651
O30   O     O_3   0.924639 0.201078 0.642297 -0.681621
O31   O     O_3   0.649047 0.862061 0.196021 -0.725469
O32   O     O_3   0.350967 0.137952 0.804020 -0.725403
O33   O     O_3   0.925417 0.288267 0.287932 -0.707582
O34   O     O_3   0.763236 0.154994 0.561972 -0.689060
O35   O     O_3   0.074228 0.712376 0.711312 -0.707503
O36   O     O_3   0.204449 0.926753 0.643022 -0.695803
O37   O     O_3   0.796519 0.073502 0.357454 -0.695727
O38   O     O_3   0.135122 0.262912 0.729194 -0.698227
O39   O     O_3   0.864881 0.737050 0.270815 -0.698435
O40   O     O_3   0.708278 0.077167 0.716421 -0.702732
O41   O     O_3   0.292211 0.922543 0.282978 -0.702966
O42   O     O_3   0.861968 0.649664 0.803294 -0.711194
O43   O     O_3   0.138009 0.350293 0.196777 -0.711083
O44   O     O_3   0.708184 0.785902 0.348838 -0.705639
O45   O     O_3   0.291826 0.214064 0.651185 -0.705612
O46   O     O_3   0.843571 0.233454 0.440642 -0.689501
O47   O     O_3   0.157070 0.767268 0.559133 -0.689449
O48   O     O_3   0.656172 0.733749 0.940538 -0.689489

loop_
_geom_bond_atom_site_label_1
_geom_bond_atom_site_label_2
_ccdc_geom_bond_type
N4    Ni4   S    
C107  C112  S    
C81   O15   S    
C39   N26   A    
C25   N12   A    
C102  N32   A    
C35   C74   A    
C18   C65   A    
C10   O3    S    
C43   C89   S    
C29   N16   A    
H72   O37   S    
C45   C87   S    
C31   H18   S    
C36   N23   A    
H68   O32   S    
C15   O7    S    
C94   C111  S    
C16   C84   S    
C78   O13   S    
N17   Ni7   S    
C31   C70   A    
C55   C100  S    
C8    C92   S    
C15   C82   S    
C22   N9    A    
C93   C110  S    
C15   C85   S    
C88   C95   S    
C83   O17   S    
C1    H1    S    
C7    O47   S    
C10   C51   S    
C35   H22   S    
C23   H10   S    
C81   C105  S    
N15   N25   A    
C79   O14   S    
C44   C81   S    
N2    N23   A    
N15   Ni5   S    
C112  O23   S    
C40   C110  S    
C40   C76   S    
H28   O12   S    
N8    Ni3   S    
H29   O23   S    
C1    N1    A    
C75   O9    S    
C18   N5    A    
C92   C94   S    
C21   C62   A    
C13   H3    S    
H73   O38   S    
N16   Ni8   S    
C46   C84   S    
H75   O40   S    
H31   O44   S    
N8    N28   A    
C6    O46   S    
C36   H23   S    
C27   C71   A    
C90   C93   S    
C65   C91   A    
C19   N6    A    
C96   O30   S    
C54   C105  S    
H54   O19   S    
C56   C103  S    
C34   N21   A    
C9    C90   S    
C82   O16   S    
C30   H17   S    
C108  C111  S    
N3    Ni3   S    
C7    C48   S    
C89   C96   S    
C69   H56   S    
N1    Ni1   S    
C2    H2    S    
C56   C66   S    
C69   N29   A    
C107  O41   S    
C35   N22   A    
C40   C61   S    
C98   O32   S    
C95   O29   S    
C39   C71   A    
C14   C81   S    
H60   O25   S    
N22   Ni5   S    
N6    Ni2   S    
N29   Ni1   S    
C34   C66   A    
C48   C57   S    
C83   C103  S    
N2    Ni1   S    
C77   C106  S    
C30   C74   A    
C27   H14   S    
N31   Ni3   S    
H76   O41   S    
C53   C104  S    
H46   O10   S    
C23   C67   A    
H50   O15   S    
C86   C97   S    
C42   C112  S    
N27   N32   A    
C93   O27   S    
C58   N28   A    
H74   O39   S    
C94   O28   S    
H40   O5    S    
C63   C69   A    
C19   H6    S    
C76   C109  S    
H59   O24   S    
H27   O1    S    
H32   O45   S    
N27   Ni4   S    
N7    Ni4   S    
C37   N24   A    
C12   C53   S    
C28   H15   S    
N9    Ni5   S    
C39   H26   S    
C3    O34   S    
C4    C97   S    
N11   N19   A    
C44   C65   S    
H79   O43   S    
C49   C108  S    
C38   C72   A    
H53   O18   S    
C80   H67   S    
H57   O21   S    
C14   C86   S    
C32   N19   A    
C97   O31   S    
C24   H11   S    
H55   O20   S    
C15   C55   S    
C16   C56   S    
C1    C57   A    
H70   O35   S    
N1    N4    A    
N28   Ni2   S    
C33   H20   S    
C101  O36   S    
C85   O19   S    
C77   O11   S    
H30   O34   S    
C41   C60   S    
N5    N31   A    
C58   H45   S    
C13   C59   A    
C53   C98   S    
C45   C64   S    
C20   C63   A    
N13   N18   A    
C8    C49   S    
N23   Ni3   S    
C104  O38   S    
C47   H34   S    
C80   N30   A    
C16   O8    S    
C41   C111  S    
C17   N4    A    
C25   C59   A    
C56   C99   S    
C32   H19   S    
C58   C62   A    
C24   N11   A    
C53   C74   S    
H48   O13   S    
C30   N17   A    
H41   O6    S    
C103  O37   S    
C108  O42   S    
C95   C112  S    
N25   Ni8   S    
C33   N20   A    
C2    C60   A    
H38   O3    S    
C12   C79   S    
C52   C95   S    
C11   C52   S    
C52   C107  S    
C89   O24   S    
C102  H80   S    
C54   C97   S    
C9    C76   S    
H63   O28   S    
C87   C98   S    
C75   C108  S    
C64   C80   A    
C38   N25   A    
H51   O16   S    
C28   C72   A    
H47   O11   S    
C3    C106  S    
C86   O20   S    
C7    C100  S    
C23   N10   A    
C84   O18   S    
C14   O6    S    
N20   Ni7   S    
C88   O22   S    
N3    N12   A    
C4    C44   S    
C5    C45   S    
C50   C109  S    
H71   O36   S    
H36   O48   S    
C78   C107  S    
C2    N2    A    
C26   H13   S    
C76   O10   S    
H65   O30   S    
C41   C75   S    
C54   C73   S    
H35   O47   S    
N30   Ni4   S    
C19   C64   A    
N18   Ni6   S    
C37   H24   S    
C45   C79   S    
C6    C103  S    
C18   H5    S    
N9    N21   A    
H69   O33   S    
C12   O5    S    
C49   C70   S    
C26   C70   A    
C26   N13   A    
C51   C72   S    
C91   N31   A    
C22   H9    S    
C11   O4    S    
N19   Ni5   S    
C9    O2    S    
C84   C99   S    
N10   N20   A    
C47   C61   A    
C92   O26   S    
N17   N22   A    
C27   N14   A    
H52   O17   S    
H61   O26   S    
C52   C71   S    
C109  C110  S    
N11   Ni7   S    
C31   N18   A    
C38   H25   S    
C48   C82   S    
C16   C83   S    
H44   O9    S    
C24   C68   A    
C46   C83   S    
H64   O29   S    
C87   O21   S    
C13   N3    A    
C28   N15   A    
C40   C90   S    
C90   O25   S    
C50   C68   S    
C42   C63   S    
C20   H7    S    
C43   C62   S    
C17   C57   A    
N5    Ni1   S    
C105  O39   S    
H77   O42   S    
C106  O40   S    
C111  O12   S    
C46   C59   S    
N14   Ni6   S    
H33   O46   S    
N14   N26   A    
C3    C43   S    
N6    N30   A    
C21   H8    S    
H66   O31   S    
C29   C73   A    
C22   C66   A    
N24   Ni6   S    
C3    C96   S    
N7    N29   A    
C49   C94   S    
C51   C96   S    
C32   C68   A    
C5    C104  S    
N16   N24   A    
C44   C86   S    
C8    O48   S    
C10   C77   S    
C91   H78   S    
H58   O22   S    
C4    O44   S    
C5    O45   S    
C10   C89   S    
H62   O27   S    
C34   H21   S    
C47   N27   A    
H42   O7    S    
C8    C75   S    
C20   N7    A    
C11   C78   S    
C11   C88   S    
C109  O43   S    
N21   Ni8   S    
C14   C54   S    
C42   C78   S    
C7    C101  S    
C79   C104  S    
C42   C88   S    
C21   N8    A    
C33   C67   A    
C37   C73   A    
C99   O33   S    
C6    C46   S    
C12   C87   S    
C9    C50   S    
C36   C60   A    
N32   Ni2   S    
H43   O8    S    
C55   C67   S    
C110  O1    S    
C50   C93   S    
C100  O35   S    
C43   C77   S    
C4    C105  S    
C55   C101  S    
H37   O2    S    
N10   Ni6   S    
C6    C99   S    
C61   C102  A    
H49   O14   S    
C85   C100  S    
C51   C106  S    
H39   O4    S    
C82   C101  S    
C25   H12   S    
N26   Ni7   S    
C41   C92   S    
C5    C98   S    
C29   H16   S    
C48   C85   S    
N13   Ni8   S    
N12   Ni2   S    
C17   H4    S    
