data_mof_unit_18667.cif
_audit_creation_date              2012-12-10T18:08:18-0500
_audit_creation_method            fapswitch 2.2
_symmetry_space_group_name_H-M    P1
_symmetry_Int_Tables_number       1
_space_group_crystal_system       triclinic
_cell_length_a                    12.746588
_cell_length_b                    13.191376
_cell_length_c                    14.110289
_cell_angle_alpha                 92.956184
_cell_angle_beta                  101.239375
_cell_angle_gamma                 83.817507
_cell_volume                      2312.39998388

loop_
_atom_site_label
_atom_site_type_symbol
_atom_type_description
_atom_site_fract_x
_atom_site_fract_y
_atom_site_fract_z
_atom_type_partial_charge
C1    C     C_R   0.441263 0.689672 0.481256 0.844067
C2    C     C_R   0.533548 0.034053 0.472391 -0.042711
C3    C     C_R   0.643122 0.996513 0.476884 0.050848
C4    C     C_R   0.500706 0.501000 0.670368 0.875471
C5    C     C_R   0.669064 0.895892 0.448151 -0.187409
C6    C     C_R   0.589838 0.829332 0.429083 -0.158469
C7    C     C_R   0.510528 0.133492 0.507303 0.357545
C8    C     C_R   0.699793 0.160562 0.541870 0.446421
C9    C     C_R   0.407401 0.794747 0.450437 -0.124674
C10   C     C_R   0.105300 0.320848 0.392716 -0.294334
C11   C     C_R   0.799872 0.631012 0.613043 0.460823
C12   C     C_1   0.493786 0.505026 0.227359 -0.217606
C13   C     C_R   0.907242 0.654155 0.642688 0.199606
C14   C     C_R   0.989697 0.586003 0.616658 0.352756
C15   C     C_R   0.965546 0.517923 0.536902 -0.237269
C16   C     C_R   0.558923 0.309475 0.515431 0.897316
C17   C     C_R   0.856652 0.497454 0.504392 -0.060654
C18   C     C_R   0.046832 0.466513 0.491033 0.071236
C19   C     C_R   0.025437 0.378552 0.432824 0.107898
C20   C     C_R   0.923397 0.350903 0.409998 -0.437020
C21   C     C_R   0.836322 0.414506 0.433901 0.563940
C22   C     C_R   0.148084 0.501014 0.496630 -0.019460
C23   C     C_R   0.725340 0.057835 0.516123 -0.345477
C24   C     C_R   0.204751 0.355725 0.405137 0.043171
C25   C     C_R   0.498186 0.501425 0.329560 0.867522
C26   C     C_1   0.501527 0.503506 0.772279 -0.216890
C27   C     C_1   0.499955 0.505568 0.857512 -0.030200
C28   C     C_1   0.496557 0.507422 0.957028 -0.007553
C29   C     C_1   0.493757 0.508106 0.041975 0.003186
C30   C     C_1   0.492200 0.507305 0.141753 -0.024901
C31   C     C_3   0.872382 0.214682 0.575582 0.133737
C32   C     C_3   0.961878 0.161531 0.649710 -0.385417
C33   C     C_3   0.071478 0.170494 0.623797 -0.969573
C34   C     C_R   0.591347 0.199962 0.523603 -0.277924
C35   C     C_3   0.730364 0.701813 0.749210 0.150192
C36   C     C_3   0.774100 0.606364 0.809233 -0.394443
C37   C     C_3   0.773600 0.628542 0.916363 -0.949163
C38   C     C_3   0.103746 0.555145 0.763912 0.151826
C39   C     C_3   0.113790 0.438557 0.769523 -0.418591
C40   C     C_3   0.220110 0.389426 0.746118 -0.794697
C41   C     C_3   0.954619 0.817902 0.652163 0.103555
C42   C     C_3   0.072914 0.808073 0.640712 -0.301548
C43   C     C_3   0.108450 0.909248 0.618761 -1.034185
C44   C     C_3   0.715665 0.327571 0.311429 0.087126
C45   C     C_R   0.297685 0.830699 0.435963 -0.191620
C46   C     C_3   0.745043 0.373470 0.222800 -0.385573
C47   C     C_3   0.706589 0.311549 0.130550 -0.935828
C48   C     C_3   0.415672 0.167960 0.630382 0.125448
C49   C     C_3   0.387270 0.066759 0.662374 -0.365290
C50   C     C_3   0.385137 0.070029 0.770191 -0.974448
C51   C     C_R   0.264819 0.932307 0.415226 -0.205659
C52   C     C_R   0.341292 0.000858 0.419364 -0.133606
C53   C     C_R   0.452238 0.967503 0.443193 0.103742
C54   C     C_R   0.483499 0.862226 0.440219 0.070883
H1    H     H_    0.912718 0.280787 0.368088 0.150759
H2    H     H_    0.268587 0.312518 0.375522 0.150518
H3    H     H_    0.889818 0.294977 0.577375 0.174980
H4    H     H_    0.873966 0.181834 0.501384 0.113625
H5    H     H_    0.960383 0.197877 0.722364 0.233523
H6    H     H_    0.948944 0.080085 0.652681 0.216664
H7    H     H_    0.077989 0.128590 0.554551 0.272117
H8    H     H_    0.136268 0.138318 0.681826 0.271087
H9    H     H_    0.083140 0.251606 0.616112 0.280353
H10   H     H_    0.650184 0.728496 0.766132 0.149290
H11   H     H_    0.779318 0.766282 0.772732 0.177500
H12   H     H_    0.090160 0.251284 0.350169 0.140097
H13   H     H_    0.724800 0.542634 0.784499 0.247312
H14   H     H_    0.857566 0.580589 0.801420 0.200922
H15   H     H_    0.824751 0.690722 0.944139 0.266327
H16   H     H_    0.805846 0.558964 0.957787 0.266109
H17   H     H_    0.690353 0.651195 0.927738 0.268536
H18   H     H_    0.036820 0.588923 0.798968 0.122126
H19   H     H_    0.177120 0.584058 0.808121 0.155753
H20   H     H_    0.109488 0.418572 0.844136 0.183130
H21   H     H_    0.045637 0.406995 0.719557 0.216299
H22   H     H_    0.225152 0.403353 0.670418 0.287768
H23   H     H_    0.169622 0.572332 0.531858 0.176957
H24   H     H_    0.226030 0.305934 0.755535 0.226405
H25   H     H_    0.288804 0.420313 0.795764 0.252286
H26   H     H_    0.937891 0.889297 0.694291 0.163655
H27   H     H_    0.900147 0.825859 0.580236 0.101830
H28   H     H_    0.125524 0.779694 0.708417 0.258871
H29   H     H_    0.084106 0.753404 0.580150 0.219314
H30   H     H_    0.054116 0.942742 0.554234 0.267100
H31   H     H_    0.191514 0.897047 0.604389 0.281890
H32   H     H_    0.108632 0.962153 0.682412 0.284498
H33   H     H_    0.628298 0.318774 0.294309 0.150609
H34   H     H_    0.751242 0.867379 0.444781 0.127760
H35   H     H_    0.752986 0.248379 0.324927 0.105015
H36   H     H_    0.708278 0.453403 0.215036 0.238815
H37   H     H_    0.833053 0.375166 0.230936 0.216313
H38   H     H_    0.747171 0.232629 0.135707 0.258408
H39   H     H_    0.726230 0.347710 0.067672 0.268081
H40   H     H_    0.618263 0.308388 0.118457 0.267824
H41   H     H_    0.355166 0.229769 0.647234 0.171300
H42   H     H_    0.494823 0.186992 0.673093 0.121081
H43   H     H_    0.307042 0.050382 0.621069 0.242015
H44   H     H_    0.447615 0.003943 0.647080 0.228060
H45   H     H_    0.808073 0.024501 0.529753 0.144285
H46   H     H_    0.465522 0.083617 0.812989 0.269865
H47   H     H_    0.363347 0.995966 0.790585 0.272043
H48   H     H_    0.324668 0.131503 0.787746 0.259537
H49   H     H_    0.237061 0.780375 0.440074 0.166248
H50   H     H_    0.312340 0.079130 0.402757 0.183384
H51   H     H_    0.180057 0.958909 0.400110 0.145944
H52   H     H_    0.613269 0.752559 0.405304 0.169441
N1    N     N_R   0.222200 0.444680 0.454480 -0.125695
N2    N     N_R   0.776970 0.554780 0.545050 -0.157869
O1    O     O_R   0.366740 0.627160 0.478260 -0.621047
O2    O     O_3   0.714104 0.684953 0.647220 -0.599393
O3    O     O_3   0.094507 0.586722 0.667842 -0.639305
O4    O     O_3   0.933220 0.736259 0.704682 -0.657840
O5    O     O_3   0.732820 0.392020 0.396000 -0.589295
O6    O     O_3   0.410294 0.165352 0.529045 -0.646828
O7    O     O_R   0.544830 0.662520 0.507340 -0.565067
O8    O     O_R   0.410930 0.482320 0.611740 -0.596288
O9    O     O_R   0.589030 0.517680 0.640820 -0.578201
O10   O     O_R   0.455170 0.337480 0.492660 -0.585101
O11   O     O_R   0.633260 0.372840 0.521740 -0.526869
O12   O     O_R   0.410970 0.482320 0.359180 -0.608352
O13   O     O_R   0.589070 0.517680 0.388260 -0.545658
O14   O     O_3   0.772250 0.216319 0.604271 -0.632319
Zn1   Zn    Zn3+2 0.381090 0.476390 0.480580 0.940051
Zn2   Zn    Zn3+2 0.618910 0.523610 0.519420 1.005326

loop_
_geom_bond_atom_site_label_1
_geom_bond_atom_site_label_2
_ccdc_geom_bond_type
C15   C18   A    
C23   H45   S    
C9    C45   A    
C48   H41   S    
C37   H15   S    
C47   H38   S    
C3    C23   A    
C19   C20   A    
C42   H28   S    
N1    Zn1   S    
C41   H26   S    
C36   H13   S    
O11   Zn2   S    
C26   C27   T    
C31   H4    S    
C36   C37   S    
O8    Zn1   S    
O9    Zn2   S    
N2    Zn2   S    
C13   O4    S    
C38   C39   S    
C45   C51   A    
C22   N1    A    
C8    C23   A    
C18   C19   A    
C41   C42   S    
C39   H20   S    
O13   Zn2   S    
C45   H49   S    
C2    C7    A    
C16   C34   S    
C49   H44   S    
C5    H34   S    
C52   H50   S    
C35   C36   S    
C33   H8    S    
C41   O4    S    
C35   H10   S    
C39   H21   S    
C44   H33   S    
O12   Zn1   S    
C33   H9    S    
C1    O1    A    
C37   H16   S    
C11   O2    S    
C43   H30   S    
C6    C54   A    
C20   H1    S    
C44   C46   S    
C10   H12   S    
C47   H39   S    
C14   O3    S    
C38   H18   S    
C51   C52   A    
C43   H31   S    
C1    C9    S    
C31   O14   S    
C21   O5    S    
C17   N2    A    
C39   C40   S    
O1    Zn1   S    
C46   H37   S    
C10   C24   A    
C53   C54   A    
C17   C21   A    
C40   H22   S    
C29   C30   S    
C16   O10   A    
C31   C32   S    
C10   C19   A    
C51   H51   S    
C41   H27   S    
C6    H52   S    
C40   H25   S    
C24   N1    A    
C8    C34   A    
C35   O2    S    
C48   C49   S    
C44   O5    S    
C50   H48   S    
C37   H17   S    
C7    C34   A    
C40   H24   S    
C4    O9    A    
C16   O11   A    
C42   C43   S    
C32   H6    S    
C25   O12   A    
C11   N2    A    
C52   C53   A    
C7    O6    S    
C48   O6    S    
C15   C17   A    
C46   C47   S    
C28   C29   T    
O7    Zn2   S    
C48   H42   S    
C12   C30   T    
C18   C22   A    
C43   H32   S    
C4    O8    A    
C42   H29   S    
C22   H23   S    
C3    C5    A    
C2    C53   A    
C4    C26   S    
C36   H14   S    
C46   H36   S    
C24   H2    S    
C50   H46   S    
C12   C25   S    
C32   C33   S    
C31   H3    S    
C2    C3    A    
C11   C13   A    
C8    O14   S    
C5    C6    A    
C47   H40   S    
O10   Zn1   S    
C49   H43   S    
C20   C21   A    
C50   H47   S    
C33   H7    S    
C49   C50   S    
C27   C28   S    
C35   H11   S    
C14   C15   A    
C9    C54   A    
C1    O7    A    
C32   H5    S    
C38   O3    S    
C13   C14   A    
C25   O13   A    
C44   H35   S    
C38   H19   S    
