data_mof_unit_51276.cif
_audit_creation_date              2012-12-10T18:05:11-0500
_audit_creation_method            fapswitch 2.2
_symmetry_space_group_name_H-M    P1
_symmetry_Int_Tables_number       1
_space_group_crystal_system       triclinic
_cell_length_a                    9.579001
_cell_length_b                    10.773786
_cell_length_c                    17.084093
_cell_angle_alpha                 87.895905
_cell_angle_beta                  91.454792
_cell_angle_gamma                 91.121291
_cell_volume                      1761.05120123

loop_
_atom_site_label
_atom_site_type_symbol
_atom_type_description
_atom_site_fract_x
_atom_site_fract_y
_atom_site_fract_z
_atom_type_partial_charge
C1    C     C_R   0.498870 0.262724 0.498499 0.897778
C2    C     C_R   0.501034 0.737231 0.501869 0.882720
C3    C     C_R   0.426239 0.933900 0.442333 0.370518
C4    C     C_R   0.568252 0.066154 0.560872 0.374037
C5    C     C_R   0.501827 0.871350 0.502736 -0.170916
C6    C     C_R   0.497405 0.128544 0.498451 -0.169751
C7    C     C_R   0.071436 0.410253 0.542898 0.205306
C8    C     C_R   0.928721 0.588407 0.456653 0.247435
C9    C     C_R   0.922942 0.411876 0.541642 -0.012859
C10   C     C_R   0.076637 0.587293 0.457634 -0.038700
C11   C     C_R   0.514769 0.499932 0.651203 0.892029
C12   C     C_R   0.485872 0.501205 0.349488 0.948344
C13   C     C_R   0.519723 0.497199 0.738211 -0.217613
C14   C     C_R   0.488792 0.502795 0.263765 -0.171977
C15   C     C_R   0.407683 0.444217 0.780860 0.260533
C16   C     C_R   0.580993 0.422749 0.228749 0.264581
C17   C     C_R   0.421898 0.420577 0.861525 0.075963
C18   C     C_R   0.606305 0.436473 0.147351 0.034430
C19   C     C_R   0.540373 0.465578 0.902458 0.177823
C20   C     C_R   0.533519 0.530584 0.102332 0.213239
C21   C     C_R   0.651432 0.526856 0.861693 0.033918
C22   C     C_R   0.441721 0.610915 0.138791 0.019795
C23   C     C_R   0.641690 0.538724 0.778473 0.299180
C24   C     C_R   0.420311 0.596963 0.220298 0.263589
C25   C     C_R   0.429085 0.064469 0.437252 -0.036482
C26   C     C_R   0.569209 0.935094 0.564435 -0.040481
Cu1   Cu    Cu3+1 0.640660 0.500020 0.500000 0.983874
Cu2   Cu    Cu3+1 0.359340 0.499980 0.500000 0.955869
H1    H     H_    0.862303 0.341869 0.573029 0.178065
H2    H     H_    0.134893 0.655898 0.423194 0.186586
N1    N     N_2   0.541986 0.448276 0.984901 -0.235692
N2    N     N_2   0.547514 0.547433 0.019954 -0.219796
N3    N     N_R   0.852070 0.500030 0.499980 -0.198321
N4    N     N_R   0.147930 0.499970 0.500020 -0.210663
O1    O     O_R   0.618740 0.319660 0.500000 -0.548114
O2    O     O_R   0.381260 0.680340 0.500000 -0.552047
O3    O     O_R   0.381170 0.319630 0.500010 -0.642152
O4    O     O_R   0.618830 0.680370 0.499990 -0.614958
O5    O     O_R   0.631780 0.498870 0.613920 -0.529633
O6    O     O_R   0.368220 0.501130 0.386080 -0.557147
O7    O     O_R   0.394210 0.498840 0.613930 -0.610834
O8    O     O_R   0.605790 0.501160 0.386070 -0.580937
O9    O     O_3   0.646894 0.335693 0.278081 -0.735982
H3    H     H_    0.706957 0.280889 0.249578 0.335022
O10   O     O_3   0.283792 0.411043 0.744543 -0.736921
H4    H     H_    0.243006 0.489413 0.723019 0.336874
C27   C     C_3   0.716727 0.357749 0.110959 -0.349619
C28   C     C_3   0.661125 0.227143 0.093237 -0.824859
H5    H     H_    0.627503 0.175608 0.147047 0.240866
H6    H     H_    0.570562 0.231610 0.051558 0.263050
H7    H     H_    0.744604 0.173902 0.066508 0.235201
H8    H     H_    0.757190 0.401296 0.056640 0.207958
H9    H     H_    0.812054 0.352429 0.149157 0.180138
C29   C     C_3   0.305259 0.350995 0.904336 -0.294469
C30   C     C_3   0.189413 0.438364 0.925111 -0.822104
H10   H     H_    0.230814 0.509364 0.965380 0.247577
H11   H     H_    0.144793 0.485451 0.871517 0.257078
H12   H     H_    0.104667 0.384550 0.954784 0.226723
H13   H     H_    0.260515 0.276483 0.867421 0.222848
H14   H     H_    0.345116 0.302701 0.958708 0.188770
C31   C     C_3   0.778564 0.579314 0.905773 -0.355127
C32   C     C_3   0.780458 0.721272 0.902935 -0.816778
H15   H     H_    0.792730 0.759101 0.842210 0.263295
H16   H     H_    0.682069 0.756054 0.926425 0.257659
H17   H     H_    0.869549 0.756004 0.939356 0.231012
H18   H     H_    0.782455 0.548705 0.967870 0.216529
H19   H     H_    0.876822 0.543730 0.882878 0.170548
C33   C     C_3   0.365006 0.709757 0.089416 -0.367806
C34   C     C_3   0.452551 0.829464 0.082205 -0.843368
H20   H     H_    0.476578 0.866959 0.140797 0.244035
H21   H     H_    0.552117 0.811901 0.052954 0.262420
H22   H     H_    0.393998 0.900247 0.046531 0.238518
H23   H     H_    0.340198 0.677160 0.029743 0.215529
H24   H     H_    0.261604 0.729124 0.113719 0.197206
O11   O     O_3   0.746283 0.595101 0.734585 -0.730816
H25   H     H_    0.837685 0.585302 0.761710 0.330162
O12   O     O_3   0.337017 0.675437 0.260258 -0.702909
H26   H     H_    0.335155 0.757919 0.233101 0.341129
C35   C     C_3   0.368044 0.133237 0.364642 -0.358874
C36   C     C_3   0.440913 0.099208 0.289812 -0.778947
H27   H     H_    0.556029 0.102424 0.299043 0.267049
H28   H     H_    0.409154 0.005116 0.271204 0.253200
H29   H     H_    0.412023 0.166229 0.241420 0.238909
H30   H     H_    0.254098 0.113762 0.358797 0.180288
H31   H     H_    0.378631 0.235271 0.368108 0.217610
C37   C     C_3   0.628894 0.864637 0.636706 -0.370787
C38   C     C_3   0.537538 0.879005 0.707762 -0.810322
H32   H     H_    0.532568 0.977524 0.723996 0.270291
H33   H     H_    0.430047 0.843471 0.694876 0.243008
H34   H     H_    0.581351 0.824360 0.758641 0.253221
H35   H     H_    0.636144 0.763909 0.628390 0.245239
H36   H     H_    0.738109 0.894848 0.649796 0.191767
O13   O     O_3   0.353950 0.863557 0.388003 -0.716468
H37   H     H_    0.270272 0.908946 0.368977 0.323274
O14   O     O_3   0.630778 0.137679 0.618267 -0.748517
H38   H     H_    0.705096 0.090880 0.646499 0.324774
C39   C     C_3   0.140837 0.301292 0.586481 -0.346451
C40   C     C_3   0.062627 0.246882 0.657570 -0.865749
H39   H     H_    0.025654 0.322029 0.694303 0.276787
H40   H     H_    0.972890 0.187456 0.638656 0.234131
H41   H     H_    0.133827 0.187023 0.693992 0.269919
H42   H     H_    0.154378 0.225800 0.544897 0.199140
H43   H     H_    0.243634 0.329413 0.609635 0.295808
C41   C     C_3   0.863573 0.688766 0.404217 -0.362719
C42   C     C_3   0.882976 0.816807 0.439287 -0.842419
H44   H     H_    0.844849 0.815898 0.500133 0.270996
H45   H     H_    0.994979 0.845537 0.440039 0.236485
H46   H     H_    0.823388 0.886525 0.403275 0.244373
H47   H     H_    0.914313 0.690512 0.346333 0.172280
H48   H     H_    0.752984 0.671832 0.390427 0.256773

loop_
_geom_bond_atom_site_label_1
_geom_bond_atom_site_label_2
_ccdc_geom_bond_type
C30   H10   S    
O13   H37   S    
O14   H38   S    
O9    H3    S    
C19   N1    S    
C18   C27   S    
C39   C40   S    
C29   H14   S    
O12   H26   S    
Cu1   N3    S    
C42   H45   S    
C22   C24   A    
C19   C21   A    
C37   H35   S    
C35   H30   S    
C6    C25   A    
Cu2   O6    S    
Cu1   O4    S    
C33   H24   S    
Cu2   O7    S    
C13   C23   A    
C7    C9    A    
C14   C24   A    
C34   H21   S    
C10   H2    S    
C12   O8    A    
C31   H18   S    
C28   H7    S    
C27   C28   S    
Cu1   O5    S    
C33   C34   S    
C32   H16   S    
C21   C31   S    
C39   H42   S    
C1    O3    A    
C27   H9    S    
C28   H6    S    
Cu2   N4    S    
C9    N3    A    
C34   H20   S    
C36   H29   S    
C41   C42   S    
C29   H13   S    
C42   H46   S    
C1    C6    S    
C10   N4    A    
C3    C25   A    
C4    C6    A    
C37   C38   S    
Cu1   O1    S    
C33   H23   S    
O10   H4    S    
C35   C36   S    
C12   O6    A    
C34   H22   S    
O11   H25   S    
C32   H15   S    
C4    O14   S    
C31   H19   S    
N1    N2    D    
C26   C37   S    
C3    O13   S    
C30   H11   S    
C11   O5    A    
C8    C41   S    
C16   O9    S    
C22   C33   S    
C39   H43   S    
C36   H28   S    
C28   H5    S    
C20   C22   A    
C40   H40   S    
C13   C15   A    
C7    N4    A    
C14   C16   A    
C30   H12   S    
C2    C5    S    
C15   O10   S    
C35   H31   S    
C1    O1    A    
C20   N2    S    
C2    O2    A    
C15   C17   A    
C29   C30   S    
C7    C39   S    
C32   H17   S    
C25   C35   S    
C16   C18   A    
C23   O11   S    
C36   H27   S    
C3    C5    A    
C4    C26   A    
C27   H8    S    
C9    H1    S    
C40   H41   S    
C42   H44   S    
C2    O4    A    
C21   C23   A    
C12   C14   S    
C37   H36   S    
C41   H48   S    
C11   C13   S    
Cu1   O8    S    
C41   H47   S    
Cu2   O3    S    
C17   C19   A    
C11   O7    A    
C18   C20   A    
C8    N3    A    
C31   C32   S    
C5    C26   A    
C24   O12   S    
Cu2   O2    S    
C38   H32   S    
C8    C10   A    
C40   H39   S    
C38   H34   S    
Cu1   Cu2   S    
C38   H33   S    
C17   C29   S    
