data_mof_unit_21353.cif
_audit_creation_date              2012-12-10T18:00:16-0500
_audit_creation_method            fapswitch 2.2
_symmetry_space_group_name_H-M    P1
_symmetry_Int_Tables_number       1
_space_group_crystal_system       triclinic
_cell_length_a                    10.827162
_cell_length_b                    9.629539
_cell_length_c                    10.619536
_cell_angle_alpha                 90.192474
_cell_angle_beta                  92.464497
_cell_angle_gamma                 89.99578
_cell_volume                      1106.16863045

loop_
_atom_site_label
_atom_site_type_symbol
_atom_type_description
_atom_site_fract_x
_atom_site_fract_y
_atom_site_fract_z
_atom_type_partial_charge
C1    C     C_R   0.871624 0.499996 0.499848 -0.038793
C2    C     C_R   0.128376 0.500004 0.500152 -0.038793
C3    C     C_R   0.262395 0.500003 0.500004 0.810754
C4    C     C_R   0.737605 0.499997 0.499996 0.810754
C5    C     C_R   0.499819 0.499686 0.259515 0.819647
C6    C     C_R   0.500181 0.500314 0.740484 0.819646
C7    C     C_3   0.396233 0.561062 0.037644 -0.144090
C8    C     C_3   0.603767 0.438938 0.962356 -0.144090
C9    C     C_3   0.495534 0.632101 0.959721 -0.093233
C10   C     C_3   0.504466 0.367899 0.040279 -0.093233
C11   C     C_3   0.400805 0.430175 0.953204 -0.165912
C12   C     C_3   0.599194 0.569825 0.046796 -0.165912
C13   C     C_3   0.500117 0.501064 0.877535 -0.010911
C14   C     C_3   0.499883 0.498936 0.122465 -0.010911
C15   C     C_R   0.421862 0.073750 0.419348 0.276003
C16   C     C_R   0.578138 0.926250 0.580651 0.276003
C17   C     C_R   0.578209 0.074238 0.580583 0.283363
C18   C     C_R   0.421791 0.925762 0.419417 0.283363
C19   C     C_R   0.063896 0.373847 0.500098 -0.144841
C20   C     C_R   0.936103 0.626153 0.499902 -0.144841
C21   C     C_R   0.936118 0.373843 0.499751 -0.144649
C22   C     C_R   0.063882 0.626157 0.500249 -0.144649
Cu1   Cu    Cu3+1 0.500000 0.640660 0.500000 1.030056
Cu2   Cu    Cu3+1 0.500000 0.359340 0.500000 1.030056
H1    H     H_    0.311104 0.610621 0.071335 0.183349
H2    H     H_    0.688896 0.389379 0.928665 0.183349
H3    H     H_    0.491836 0.740427 0.924334 0.185446
H4    H     H_    0.508164 0.259573 0.075666 0.185446
N1    N     N_R   0.500000 0.852070 0.500000 -0.246468
N2    N     N_R   0.500000 0.147930 0.500000 -0.246468
O1    O     O_R   0.319640 0.618740 0.499990 -0.558850
O2    O     O_R   0.680360 0.381260 0.500010 -0.558850
O3    O     O_R   0.680360 0.618740 0.500010 -0.558615
O4    O     O_R   0.319640 0.381260 0.499990 -0.558615
O5    O     O_R   0.499970 0.618770 0.316850 -0.547348
O6    O     O_R   0.500030 0.381230 0.683150 -0.547349
O7    O     O_R   0.500030 0.618770 0.683150 -0.554938
O8    O     O_R   0.499970 0.381230 0.316850 -0.554938
Br1   Br    Br    0.309379 0.167790 0.302690 -0.456077
Br2   Br    Br    0.690621 0.832210 0.697310 -0.456077
Br3   Br    Br    0.691334 0.168821 0.696711 -0.462981
Br4   Br    Br    0.308666 0.831179 0.303289 -0.462981
H5    H     H_    0.319658 0.373154 0.911797 0.159584
H6    H     H_    0.680342 0.626846 0.088203 0.159584
H7    H     H_    0.111816 0.275127 0.500358 0.189667
H8    H     H_    0.888184 0.724873 0.499642 0.189667
H9    H     H_    0.888211 0.275120 0.499357 0.189837
H10   H     H_    0.111789 0.724880 0.500643 0.189837

loop_
_geom_bond_atom_site_label_1
_geom_bond_atom_site_label_2
_ccdc_geom_bond_type
C2    C22   A    
C15   C18   A    
C22   H10   S    
Cu1   Cu2   S    
Cu2   O2    S    
C1    C21   A    
C8    C13   S    
C8    H2    S    
Cu2   O8    S    
C7    H1    S    
C8    C12   S    
C1    C4    S    
C19   H7    S    
C2    C3    S    
C2    C19   A    
C6    O7    A    
C12   H6    S    
C18   N1    A    
C4    O2    A    
C5    O8    A    
C6    C13   S    
C3    O1    A    
C17   N2    A    
C11   C13   S    
C15   Br1   S    
C5    C14   S    
Cu2   O6    S    
C16   Br2   S    
Cu1   N1    S    
C19   C21   A    
C6    O6    A    
C7    C11   S    
Cu1   O5    S    
C18   Br4   S    
C9    C12   S    
Cu2   N2    S    
C11   H5    S    
C17   Br3   S    
C10   C11   S    
C20   C22   A    
C5    O5    A    
C9    H3    S    
C15   N2    A    
C8    C10   S    
C10   C14   S    
C10   H4    S    
C7    C9    S    
C9    C13   S    
C4    O3    A    
C1    C20   A    
C3    O4    A    
C21   H9    S    
C16   N1    A    
Cu1   O7    S    
C7    C14   S    
Cu2   O4    S    
C12   C14   S    
C16   C17   A    
Cu1   O3    S    
C20   H8    S    
Cu1   O1    S    
