data_mof_unit_19135.cif
_audit_creation_date              2012-12-11T15:33:40-0500
_audit_creation_method            fapswitch 2.2
_symmetry_space_group_name_H-M    P1
_symmetry_Int_Tables_number       1
_space_group_crystal_system       triclinic
_cell_length_a                    27.093679
_cell_length_b                    7.270896
_cell_length_c                    22.788416
_cell_angle_alpha                 90.000349
_cell_angle_beta                  100.982362
_cell_angle_gamma                 90.000277
_cell_volume                      4406.9953794

loop_
_atom_site_label
_atom_site_type_symbol
_atom_type_description
_atom_site_fract_x
_atom_site_fract_y
_atom_site_fract_z
_atom_type_partial_charge
O1    O     O_R   0.207310 0.594030 0.676830 -0.522132
O2    O     O_R   0.792690 0.405970 0.323170 -0.537551
O3    O     O_R   0.292690 0.094030 0.823170 -0.522132
O4    O     O_R   0.707310 0.905970 0.176830 -0.537551
O5    O     O_R   0.197320 0.262370 0.795700 -0.544969
O6    O     O_R   0.802680 0.737630 0.204300 -0.537990
O7    O     O_R   0.302680 0.762370 0.704300 -0.544969
O8    O     O_R   0.697320 0.237630 0.295700 -0.537991
C1    C     C_R   0.184854 0.432517 0.811891 0.702899
C2    C     C_R   0.814328 0.567740 0.187184 0.709176
C3    C     C_R   0.315146 0.932517 0.688109 0.702899
C4    C     C_R   0.685673 0.067740 0.312816 0.709175
O9    O     O_R   0.201410 0.264250 0.675590 -0.548014
O10   O     O_R   0.798590 0.735750 0.324410 -0.536343
O11   O     O_R   0.298590 0.764250 0.824410 -0.548016
O12   O     O_R   0.701410 0.235750 0.175590 -0.536343
O13   O     O_R   0.296810 0.094940 0.702210 -0.532554
O14   O     O_R   0.703190 0.905060 0.297790 -0.539391
O15   O     O_R   0.203190 0.594940 0.797790 -0.532555
O16   O     O_R   0.796810 0.405060 0.202210 -0.539391
C5    C     C_R   0.190198 0.431871 0.653433 0.770767
C6    C     C_R   0.810054 0.567688 0.346252 0.776284
C7    C     C_R   0.309802 0.931873 0.846567 0.770772
C8    C     C_R   0.689945 0.067686 0.153748 0.776284
O17   O     O_3   0.281300 0.427390 0.758870 -0.382323
O18   O     O_3   0.718700 0.572610 0.241130 -0.381284
O19   O     O_3   0.218700 0.927390 0.741130 -0.382321
O20   O     O_3   0.781300 0.072610 0.258870 -0.381283
V1    V     V_3+5 0.244190 0.152150 0.748350 1.393035
V2    V     V_3+5 0.755810 0.847850 0.251650 1.394871
V3    V     V_3+5 0.255810 0.652150 0.751650 1.393033
V4    V     V_3+5 0.744190 0.347850 0.248350 1.394867
C9    C     C_R   0.654204 0.061195 0.096157 -0.189941
C10   C     C_R   0.343897 0.929299 0.905489 -0.220894
C11   C     C_R   0.845795 0.561202 0.403843 -0.189941
C12   C     C_R   0.156102 0.429296 0.594512 -0.220901
C13   C     C_R   0.641017 0.062505 0.988537 0.480501
C14   C     C_R   0.362904 0.790258 0.003725 0.456775
C15   C     C_R   0.858982 0.562508 0.511463 0.480478
C16   C     C_R   0.137092 0.290261 0.496274 0.456738
C17   C     C_R   0.673172 0.056420 0.043885 -0.355701
C18   C     C_R   0.330180 0.819414 0.949667 -0.351982
C19   C     C_R   0.826828 0.556417 0.456115 -0.355695
C20   C     C_R   0.169815 0.319404 0.550333 -0.351951
C21   C     C_R   0.601925 0.069662 0.093603 0.417418
C22   C     C_R   0.391893 0.011165 0.915253 0.451188
C23   C     C_R   0.898075 0.569683 0.406398 0.417419
C24   C     C_R   0.108107 0.511171 0.584749 0.451175
C25   C     C_R   0.567547 0.039479 0.037510 -0.125461
C26   C     C_R   0.429282 0.959556 0.966393 -0.112147
C27   C     C_R   0.932452 0.539502 0.462490 -0.125453
C28   C     C_R   0.070717 0.459573 0.533608 -0.112134
C29   C     C_R   0.588074 0.062144 0.984915 -0.196765
C30   C     C_R   0.412043 0.866175 0.013490 -0.193223
C31   C     C_R   0.911925 0.562162 0.515085 -0.196787
C32   C     C_R   0.087955 0.366193 0.486509 -0.193250
C33   C     C_R   0.514852 0.986953 0.030761 -0.148899
C34   C     C_R   0.482492 0.997411 0.972727 -0.134818
C35   C     C_R   0.985147 0.486979 0.469240 -0.148923
C36   C     C_R   0.017507 0.497433 0.527274 -0.134835
C37   C     C_R   0.505178 0.029186 0.922254 0.391321
C38   C     C_R   0.494018 0.907861 0.078082 0.347892
C39   C     C_R   0.994820 0.529210 0.577747 0.391347
C40   C     C_R   0.005981 0.407889 0.421918 0.347938
C41   C     C_R   0.555799 0.077881 0.929186 0.301210
C42   C     C_R   0.443991 0.850081 0.069450 0.331099
C43   C     C_R   0.944200 0.577904 0.570814 0.301216
C44   C     C_R   0.056008 0.350110 0.430548 0.331126
C45   C     C_R   0.650714 0.908315 0.393807 -0.247416
C46   C     C_R   0.361262 0.112629 0.621338 -0.233276
C47   C     C_R   0.849287 0.408313 0.106194 -0.247410
C48   C     C_R   0.138739 0.612629 0.878664 -0.233279
C49   C     C_R   0.615726 0.892740 0.432324 0.446990
C50   C     C_R   0.396762 0.129073 0.584022 0.430778
C51   C     C_R   0.884275 0.392739 0.067678 0.446991
C52   C     C_R   0.103239 0.629072 0.915980 0.430778
C53   C     C_R   0.577750 0.027343 0.430308 -0.055843
C54   C     C_R   0.427870 0.977757 0.576276 -0.084282
C55   C     C_R   0.922252 0.527343 0.069695 -0.055852
C56   C     C_R   0.072132 0.477756 0.923726 -0.084282
C57   C     C_R   0.576695 0.176357 0.390616 -0.238789
C58   C     C_R   0.420450 0.810550 0.604846 -0.202542
C59   C     C_R   0.923307 0.676358 0.109386 -0.238795
C60   C     C_R   0.079550 0.310549 0.895155 -0.202541
H1    H     H_    0.548295 0.282286 0.388188 0.147709
H2    H     H_    0.443109 0.691081 0.599730 0.195848
H3    H     H_    0.951707 0.782287 0.111816 0.147712
H4    H     H_    0.056892 0.191081 0.900270 0.195847
C61   C     C_R   0.612515 0.192788 0.354012 -0.170554
C62   C     C_R   0.383652 0.793957 0.640324 -0.169827
C63   C     C_R   0.887486 0.692789 0.145991 -0.170551
C64   C     C_R   0.116348 0.293957 0.859676 -0.169826
H5    H     H_    0.611899 0.313209 0.326169 0.126352
H6    H     H_    0.379191 0.662957 0.661320 0.152612
H7    H     H_    0.888103 0.813209 0.173834 0.126354
H8    H     H_    0.120808 0.162956 0.838680 0.152609
C65   C     C_R   0.648873 0.056152 0.353632 -0.089476
C66   C     C_R   0.353843 0.945399 0.649522 -0.100115
C67   C     C_R   0.851128 0.556152 0.146370 -0.089482
C68   C     C_R   0.146158 0.445399 0.850478 -0.100115
N1    N     N_R   0.512118 0.164627 0.479204 -0.307378
N2    N     N_R   0.494385 0.840833 0.528236 -0.290203
N3    N     N_R   0.987885 0.664626 0.020800 -0.307378
N4    N     N_R   0.005616 0.340833 0.971765 -0.290203
N5    N     N_R   0.477208 0.153137 0.513132 -0.228875
N6    N     N_R   0.529384 0.852271 0.494371 -0.242397
N7    N     N_R   0.022795 0.653136 0.986872 -0.228875
N8    N     N_R   0.970617 0.352271 0.005630 -0.242399
C69   C     C_R   0.467368 0.991131 0.538437 0.526045
C70   C     C_R   0.539165 0.014494 0.469137 0.534310
C71   C     C_R   0.032633 0.491130 0.961565 0.526048
C72   C     C_R   0.960837 0.514494 0.030865 0.534309
O21   O     O_3   0.573863 0.131895 0.879001 -0.522679
C73   C     C_3   0.570370 0.325435 0.874651 0.175228
H9    H     H_    0.592814 0.392607 0.915070 0.097850
H10   H     H_    0.530498 0.371112 0.868947 0.099119
C74   C     C_3   0.590995 0.388988 0.820513 -0.680225
H11   H     H_    0.568768 0.327360 0.779204 0.228884
H12   H     H_    0.588646 0.541202 0.816913 0.156768
H13   H     H_    0.630941 0.346630 0.825120 0.236916
O22   O     O_3   0.427479 0.769936 0.117374 -0.527584
C75   C     C_3   0.408759 0.908759 0.150610 0.193438
H14   H     H_    0.372642 0.963451 0.125195 0.126982
H15   H     H_    0.435824 0.024615 0.161917 0.109393
C76   C     C_3   0.399207 0.826627 0.208757 -0.701625
H16   H     H_    0.434863 0.771958 0.235289 0.220020
H17   H     H_    0.384243 0.934051 0.235279 0.167900
H18   H     H_    0.371386 0.713166 0.199147 0.228109
O23   O     O_3   0.926136 0.631921 0.620999 -0.522675
C77   C     C_3   0.929615 0.825466 0.625339 0.175242
H19   H     H_    0.907149 0.892596 0.584927 0.097892
H20   H     H_    0.969481 0.871193 0.631015 0.099051
C78   C     C_3   0.909011 0.889012 0.679493 -0.680219
H21   H     H_    0.931264 0.827435 0.720795 0.228881
H22   H     H_    0.911345 0.041230 0.683082 0.156766
H23   H     H_    0.869073 0.846596 0.674916 0.236910
O24   O     O_3   0.072518 0.269979 0.382622 -0.527588
C79   C     C_3   0.091236 0.408802 0.349384 0.193406
H24   H     H_    0.127409 0.463193 0.374747 0.127144
H25   H     H_    0.064223 0.524866 0.338186 0.109255
C80   C     C_3   0.100642 0.326791 0.291154 -0.701653
H26   H     H_    0.064925 0.272458 0.264668 0.220062
H27   H     H_    0.115617 0.434200 0.264637 0.167914
H28   H     H_    0.128405 0.213110 0.300648 0.228017
O25   O     O_3   0.400343 0.145958 0.875675 -0.518817
C81   C     C_3   0.396161 0.319134 0.902031 0.125962
H29   H     H_    0.425759 0.337389 0.942819 0.088068
H30   H     H_    0.358264 0.337003 0.913414 0.092906
C82   C     C_3   0.403114 0.467463 0.857634 -0.665247
H31   H     H_    0.401981 0.604812 0.878530 0.168044
H32   H     H_    0.439797 0.448065 0.843674 0.212899
H33   H     H_    0.372845 0.459175 0.817470 0.239722
O26   O     O_3   0.587241 0.107178 0.147191 -0.542341
C83   C     C_3   0.557613 0.266900 0.142941 0.165651
H34   H     H_    0.526271 0.267316 0.103670 0.106138
H35   H     H_    0.582160 0.386434 0.139551 0.080896
C84   C     C_3   0.534469 0.280768 0.198855 -0.696731
H36   H     H_    0.563306 0.326325 0.236922 0.194757
H37   H     H_    0.502798 0.379901 0.192276 0.172563
H38   H     H_    0.519777 0.145822 0.210302 0.260941
O27   O     O_3   0.099659 0.645955 0.624331 -0.518816
C85   C     C_3   0.103842 0.819138 0.597981 0.125983
H39   H     H_    0.074247 0.837395 0.557189 0.088051
H40   H     H_    0.141740 0.837018 0.586604 0.092916
C86   C     C_3   0.096882 0.967456 0.642379 -0.665226
H41   H     H_    0.098020 0.104809 0.621488 0.168037
H42   H     H_    0.060195 0.948056 0.656327 0.212905
H43   H     H_    0.127145 0.959157 0.682549 0.239715
O28   O     O_3   0.912758 0.607206 0.352810 -0.542340
C87   C     C_3   0.942387 0.766926 0.357061 0.165650
H44   H     H_    0.973727 0.767351 0.396336 0.106128
H45   H     H_    0.917840 0.886461 0.360447 0.080896
C88   C     C_3   0.965538 0.780785 0.301151 -0.696698
H46   H     H_    0.936702 0.826320 0.263079 0.194754
H47   H     H_    0.997205 0.879931 0.307731 0.172561
H48   H     H_    0.980236 0.645842 0.289711 0.260966
H49   H     H_    0.293226 0.756451 0.942357 0.144536
H50   H     H_    0.713409 0.053930 0.045972 0.137232
H51   H     H_    0.206767 0.256422 0.557643 0.144544
H52   H     H_    0.786590 0.553914 0.454027 0.137232
O29   O     O_3   0.662080 0.064480 0.937836 -0.527953
C89   C     C_3   0.670447 0.880933 0.921882 0.149257
H53   H     H_    0.635268 0.797701 0.916459 0.099017
H54   H     H_    0.700009 0.815555 0.956221 0.105725
C90   C     C_3   0.688235 0.879862 0.862521 -0.666538
H55   H     H_    0.723864 0.958542 0.866541 0.220056
H56   H     H_    0.694804 0.736098 0.849435 0.172166
H57   H     H_    0.659253 0.943333 0.827284 0.238259
O30   O     O_3   0.346128 0.687497 0.047139 -0.532802
C91   C     C_3   0.349736 0.499051 0.033624 0.160470
H58   H     H_    0.388293 0.462857 0.026982 0.095988
H59   H     H_    0.321719 0.462485 0.992946 0.087961
C92   C     C_3   0.338529 0.384567 0.085302 -0.708948
H60   H     H_    0.300808 0.419999 0.094340 0.219662
H61   H     H_    0.339038 0.236514 0.073624 0.156868
H62   H     H_    0.367368 0.410597 0.126100 0.229543
O31   O     O_3   0.837919 0.564470 0.562165 -0.527958
C93   C     C_3   0.829558 0.380918 0.578118 0.149258
H63   H     H_    0.864739 0.297703 0.583540 0.099005
H64   H     H_    0.799999 0.315528 0.543779 0.105725
C94   C     C_3   0.811770 0.379835 0.637479 -0.666539
H65   H     H_    0.776139 0.458498 0.633459 0.220057
H66   H     H_    0.805206 0.236068 0.650564 0.172167
H67   H     H_    0.840750 0.443318 0.672716 0.238256
O32   O     O_3   0.153863 0.187477 0.452862 -0.532826
C95   C     C_3   0.150226 0.999036 0.466367 0.160486
H68   H     H_    0.111666 0.962916 0.473016 0.095971
H69   H     H_    0.178243 0.962411 0.507039 0.087961
C96   C     C_3   0.161406 0.884536 0.414679 -0.708876
H70   H     H_    0.199134 0.919856 0.405643 0.219654
H71   H     H_    0.160861 0.736479 0.426342 0.156801
H72   H     H_    0.132572 0.910668 0.373883 0.229575
O33   O     O_3   0.479186 0.001460 0.864559 -0.508107
C97   C     C_3   0.492752 0.829599 0.843511 0.133974
H73   H     H_    0.486984 0.717047 0.874577 0.071930
H74   H     H_    0.532772 0.828808 0.838386 0.140650
C98   C     C_3   0.460370 0.793217 0.782402 -0.668572
H75   H     H_    0.469949 0.657126 0.765489 0.169658
H76   H     H_    0.419951 0.794474 0.785505 0.218429
H77   H     H_    0.467108 0.901215 0.750362 0.238252
O34   O     O_3   0.520448 0.891578 0.135638 -0.526441
C99   C     C_3   0.547196 0.725661 0.142848 0.175174
H78   H     H_    0.574562 0.717320 0.112204 0.087923
H79   H     H_    0.520471 0.609449 0.133611 0.107018
C100  C     C_3   0.575994 0.715665 0.207348 -0.647802
H80   H     H_    0.549292 0.696151 0.238244 0.196719
H81   H     H_    0.603413 0.601001 0.213090 0.164231
H82   H     H_    0.597525 0.843990 0.219950 0.250668
O35   O     O_3   0.020811 0.501483 0.635442 -0.508098
C101  C     C_3   0.007248 0.329616 0.656487 0.133988
H83   H     H_    0.013019 0.217070 0.625421 0.071929
H84   H     H_    0.967226 0.328814 0.661608 0.140638
C102  C     C_3   0.039627 0.293238 0.717598 -0.668553
H85   H     H_    0.030049 0.157143 0.734509 0.169655
H86   H     H_    0.080047 0.294504 0.714498 0.218426
H87   H     H_    0.032886 0.401232 0.749637 0.238251
O36   O     O_3   0.979551 0.391609 0.364362 -0.526420
C103  C     C_3   0.952805 0.225689 0.357149 0.175185
H88   H     H_    0.925436 0.217345 0.387789 0.087917
H89   H     H_    0.979530 0.109480 0.366388 0.107013
C104  C     C_3   0.924011 0.215688 0.292647 -0.647811
H90   H     H_    0.950717 0.196186 0.261755 0.196702
H91   H     H_    0.896595 0.101015 0.286902 0.164230
H92   H     H_    0.902478 0.344009 0.280045 0.250664
H93   H     H_    0.680593 0.807807 0.396888 0.132184
H94   H     H_    0.339040 0.232506 0.627418 0.137509
H95   H     H_    0.819409 0.307804 0.103113 0.132186
H96   H     H_    0.160962 0.732506 0.872583 0.137508
O37   O     O_3   0.622556 0.762651 0.477681 -0.544636
C105  C     C_3   0.622122 0.581406 0.454946 0.124350
H97   H     H_    0.617467 0.571593 0.405334 0.083006
H98   H     H_    0.589853 0.507398 0.467588 0.174460
C106  C     C_3   0.670273 0.483269 0.483845 -0.696091
H99   H     H_    0.673673 0.481298 0.533185 0.236969
H100  H     H_    0.669923 0.339462 0.467447 0.192079
H101  H     H_    0.703256 0.555608 0.472592 0.204114
O38   O     O_3   0.402367 0.297273 0.557752 -0.545211
C107  C     C_3   0.364070 0.315973 0.506544 0.104577
H102  H     H_    0.326258 0.319977 0.518971 0.104954
H103  H     H_    0.365395 0.200671 0.474609 0.117251
C108  C     C_3   0.371649 0.495083 0.474921 -0.664924
H104  H     H_    0.409722 0.498309 0.463529 0.248893
H105  H     H_    0.343063 0.506997 0.433138 0.164957
H106  H     H_    0.367466 0.613757 0.504192 0.215748
O39   O     O_3   0.877446 0.262650 0.022321 -0.544637
C109  C     C_3   0.877881 0.081405 0.045055 0.124355
H107  H     H_    0.882541 0.071593 0.094667 0.083005
H108  H     H_    0.910148 0.007399 0.032408 0.174463
C110  C     C_3   0.829729 0.983264 0.016162 -0.696099
H109  H     H_    0.826320 0.981317 0.966821 0.236974
H110  H     H_    0.830085 0.839449 0.032553 0.192086
H111  H     H_    0.796748 0.055583 0.027429 0.204097
O40   O     O_3   0.097635 0.797273 0.942250 -0.545210
C111  C     C_3   0.135934 0.815977 0.993457 0.104577
H112  H     H_    0.173745 0.819984 0.981028 0.104953
H113  H     H_    0.134611 0.700676 0.025393 0.117248
C112  C     C_3   0.128355 0.995089 0.025080 -0.664922
H114  H     H_    0.090284 0.998311 0.036475 0.248892
H115  H     H_    0.156943 0.007006 0.066862 0.164957
H116  H     H_    0.132537 0.113762 0.995809 0.215748

loop_
_geom_bond_atom_site_label_1
_geom_bond_atom_site_label_2
_ccdc_geom_bond_type
O17   V3    S    
C59   H3    S    
O1    C5    A    
C86   H41   S    
C78   H21   S    
O19   V1    S    
C111  C112  S    
O13   V1    S    
C94   H65   S    
O12   C8    A    
O3    C7    A    
C10   C18   A    
C47   H95   S    
C56   C60   A    
C11   C23   A    
C96   H72   S    
O27   C85   S    
C90   H55   S    
C25   C33   A    
C33   C38   A    
C5    C12   S    
O29   C89   S    
C98   H77   S    
O7    C3    A    
C6    C11   S    
O26   C83   S    
C103  C104  S    
O37   C105  S    
C84   H36   S    
C55   C72   S    
C3    C66   S    
C40   C44   A    
O9    V1    S    
O40   C111  S    
C14   C18   A    
C24   C28   A    
C74   H12   S    
O16   V4    S    
C108  H104  S    
O4    C8    A    
C97   H74   S    
C90   H56   S    
C22   O25   S    
C87   H44   S    
C16   O32   S    
C18   H49   S    
C105  H98   S    
C85   C86   S    
N4    N8    A    
O1    V3    S    
C100  H82   S    
C9    C21   A    
C31   C43   A    
C56   C71   S    
C101  C102  S    
O2    V4    S    
C111  H112  S    
O28   C87   S    
C38   O34   S    
O3    V1    S    
O34   C99   S    
C89   H53   S    
C28   C36   A    
C91   C92   S    
N6    C70   A    
O21   C73   S    
C77   H19   S    
C1    O15   A    
C15   C31   A    
N3    N7    A    
C2    O16   A    
C16   C32   A    
C46   C50   A    
C78   H23   S    
N2    N6    A    
C45   C49   A    
C93   H63   S    
C10   C22   A    
C21   C25   A    
C11   C19   A    
O39   C109  S    
C98   H76   S    
C83   H35   S    
C110  H109  S    
C48   C52   A    
C39   O35   S    
C13   C29   A    
C14   O30   S    
C34   C37   A    
O11   C7    A    
C15   O31   S    
O15   V3    S    
C35   C36   A    
C86   H42   S    
C88   H46   S    
C112  H114  S    
C105  C106  S    
O10   C6    A    
C94   H67   S    
C94   H66   S    
C82   H32   S    
C44   O24   S    
C43   O23   S    
C21   O26   S    
C37   O33   S    
O10   V2    S    
C20   H51   S    
C23   O28   S    
C62   H6    S    
C81   H30   S    
C88   H47   S    
C64   H8    S    
N1    N5    A    
C100  H81   S    
C103  H89   S    
C19   H52   S    
O7    V3    S    
C38   C42   A    
C26   C34   A    
C52   C56   A    
C17   H50   S    
C83   C84   S    
C96   H70   S    
C109  H107  S    
C74   H13   S    
C106  H100  S    
C95   H68   S    
C90   H57   S    
C15   C19   A    
C24   O27   S    
C99   C100  S    
C51   O39   S    
C105  H97   S    
O32   C95   S    
C47   C67   A    
O11   V3    S    
C109  C110  S    
C61   H5    S    
O4    V2    S    
N8    C72   A    
C61   C65   A    
N3    C72   A    
C104  H91   S    
C80   H27   S    
O8    V4    S    
C107  H103  S    
C2    C67   S    
C39   C43   A    
O2    C6    A    
O35   C101  S    
C40   O36   S    
C76   H17   S    
C37   C41   A    
C30   C42   A    
C76   H18   S    
C81   C82   S    
N7    C71   A    
C54   C58   A    
C73   H10   S    
C14   C30   A    
O33   C97   S    
O8    C4    A    
C7    C10   S    
C13   O29   S    
C32   C44   A    
C93   C94   S    
C92   H61   S    
C100  H80   S    
C83   H34   S    
C42   O22   S    
O9    C5    A    
C107  C108  S    
C26   C30   A    
C101  H84   S    
C102  H86   S    
C4    C65   S    
C81   H29   S    
C109  H108  S    
C46   H94   S    
O14   V2    S    
C46   C66   A    
C45   H93   S    
C86   H43   S    
O6    V2    S    
C1    C68   S    
C112  H115  S    
C76   H16   S    
C79   H25   S    
C36   C39   A    
C82   H33   S    
C77   C78   S    
C91   H58   S    
C75   H15   S    
O5    V1    S    
O25   C81   S    
O38   C107  S    
C29   C41   A    
C64   C68   A    
C108  H105  S    
C85   H39   S    
C48   C68   A    
C50   O38   S    
C89   C90   S    
O30   C91   S    
N5    C69   A    
C103  H88   S    
C3    O13   A    
C91   H59   S    
C99   H79   S    
C97   H73   S    
C41   O21   S    
C49   O37   S    
C60   H4    S    
N1    C70   A    
O5    C1    A    
C79   C80   S    
O6    C2    A    
C108  H106  S    
C23   C27   A    
O22   C75   S    
C88   H48   S    
C73   H9    S    
C80   H28   S    
C84   H38   S    
O12   V4    S    
C59   C63   A    
O24   C79   S    
C22   C26   A    
C74   H11   S    
C8    C9    S    
C58   C62   A    
C77   H20   S    
C9    C17   A    
C104  H92   S    
C106  H101  S    
C110  H110  S    
C107  H102  S    
O23   C77   S    
C57   C61   A    
C101  H83   S    
C85   H40   S    
C58   H2    S    
C82   H31   S    
C92   H62   S    
C47   C51   A    
C95   C96   S    
C48   H96   S    
C33   C34   A    
C106  H99   S    
C87   H45   S    
C75   C76   S    
C104  H90   S    
C25   C29   A    
O36   C103  S    
C87   C88   S    
C98   H75   S    
O20   V2    S    
C96   H71   S    
C52   O40   S    
C12   C24   A    
C54   C69   S    
C27   C31   A    
C97   C98   S    
C13   C17   A    
O31   C93   S    
C99   H78   S    
C102  H87   S    
C89   H54   S    
C110  H111  S    
C73   C74   S    
C12   C20   A    
C79   H24   S    
C63   H7    S    
N4    C71   A    
C55   C59   A    
C35   C40   A    
C16   C20   A    
C27   C35   A    
C84   H37   S    
C92   H60   S    
C50   C54   A    
C112  H116  S    
C4    O14   A    
C78   H22   S    
C49   C53   A    
N2    C69   A    
C93   H64   S    
C60   C64   A    
C63   C67   A    
C75   H14   S    
C80   H26   S    
C95   H69   S    
C51   C55   A    
C53   C70   S    
C62   C66   A    
O18   V4    S    
C57   H1    S    
C28   C32   A    
C102  H85   S    
C53   C57   A    
C111  H113  S    
C45   C65   A    
