data_mof_unit_59416.cif
_audit_creation_date              2013-03-05T15:58:56-0500
_audit_creation_method            fapswitch 2.2
_symmetry_space_group_name_H-M    P1
_symmetry_Int_Tables_number       1
_space_group_crystal_system       triclinic
_cell_length_a                    10.917439
_cell_length_b                    12.575455
_cell_length_c                    13.370954
_cell_angle_alpha                 82.975475
_cell_angle_beta                  91.53768
_cell_angle_gamma                 101.8914
_cell_volume                      1782.84117258

loop_
_atom_site_label
_atom_site_type_symbol
_atom_site_description
_atom_site_fract_x
_atom_site_fract_y
_atom_site_fract_z
_atom_type_partial_charge
O1    O     O_R   0.468120 0.366740 0.627160 -0.584013
O2    O     O_R   0.510770 0.544830 0.662520 -0.616665
C1    C     C_R   0.480988 0.440360 0.690638 1.000963
O3    O     O_R   0.663880 0.410950 0.482330 -0.651686
O4    O     O_R   0.706530 0.589040 0.517700 -0.569315
C2    C     C_R   0.741113 0.500357 0.497937 0.879811
Zn1   Zn    Zn3+2 0.471520 0.381090 0.476390 1.019014
Zn2   Zn    Zn3+2 0.528480 0.618910 0.523610 1.021908
O5    O     O_R   0.489230 0.455170 0.337480 -0.636131
O6    O     O_R   0.531880 0.633260 0.372840 -0.605064
O7    O     O_R   0.293470 0.410960 0.482300 -0.606785
O8    O     O_R   0.336120 0.589050 0.517670 -0.681060
C3    C     C_R   0.511472 0.560615 0.308902 0.874482
C4    C     C_R   0.257387 0.499435 0.500299 0.845883
C5    C     C_3   0.909204 0.422399 0.591984 -0.334862
H1    H     H_    0.903809 0.472356 0.654411 0.231671
C6    C     C_3   0.049091 0.406511 0.590025 0.437277
C7    C     C_3   0.913418 0.463104 0.394530 -0.221616
C8    C     C_3   0.951723 0.617380 0.505283 -0.261467
C9    C     C_3   0.876256 0.498381 0.496465 -0.272818
H2    H     H_    0.916374 0.642496 0.573354 0.270223
C10   C     C_3   0.118813 0.497414 0.500742 -0.318599
C11   C     C_3   0.059522 0.466749 0.391755 -0.189305
C12   C     C_3   0.094541 0.617221 0.521424 -0.171618
H3    H     H_    0.889157 0.524513 0.335103 0.197807
C13   C     C_R   0.521626 0.734480 0.054271 -0.139571
H4    H     H_    0.448252 0.757580 0.860648 0.170070
H5    H     H_    0.538556 0.819527 0.021866 0.223888
C14   C     C_R   0.507292 0.596125 0.199973 -0.238282
C15   C     C_R   0.476319 0.301417 0.838399 -0.178879
C16   C     C_R   0.492284 0.274727 0.941769 0.381346
C17   C     C_R   0.497840 0.356198 0.004884 -0.213505
C18   C     C_R   0.472494 0.459873 0.968495 0.043009
C19   C     C_R   0.452537 0.485580 0.865067 0.132591
C20   C     C_R   0.475024 0.541715 0.032634 0.099906
C21   C     C_R   0.485653 0.651674 0.992193 0.095261
C22   C     C_R   0.454796 0.675176 0.891732 -0.126701
C23   C     C_R   0.426688 0.590690 0.831598 -0.058831
C24   C     C_R   0.458955 0.516188 0.135856 -0.121665
C25   C     C_R   0.544967 0.707128 0.156940 0.276292
C26   C     C_R   0.463844 0.407382 0.799070 -0.106345
H6    H     H_    0.481979 0.241749 0.787904 0.216317
H7    H     H_    0.525560 0.338833 0.082273 0.181200
H8    H     H_    0.388413 0.611227 0.758497 0.174402
C27   C     C_R   0.324524 0.089010 0.344286 0.247497
H9    H     H_    0.293916 0.252464 0.340257 0.143748
H10   H     H_    0.336852 0.890689 0.292247 0.198664
N1    N     N_R   0.433240 0.222190 0.444680 -0.132039
C28   C     C_R   0.645844 0.803105 0.633307 0.349946
C29   C     C_R   0.648469 0.899915 0.676506 0.109378
C30   C     C_R   0.572350 0.971464 0.635843 -0.203636
C31   C     C_R   0.516844 0.957508 0.539931 0.016865
C32   C     C_R   0.508959 0.854859 0.503907 0.142185
C33   C     C_R   0.465711 0.039599 0.479856 0.031909
C34   C     C_R   0.390469 0.012784 0.394699 0.054366
C35   C     C_R   0.386131 0.912075 0.360577 -0.072608
C36   C     C_R   0.442983 0.834848 0.415169 -0.104017
C37   C     C_R   0.493559 0.149813 0.496823 0.045881
C38   C     C_R   0.345966 0.193417 0.373951 -0.051601
N2    N     N_R   0.566070 0.776970 0.554790 -0.199379
H11   H     H_    0.563895 0.180364 0.549959 0.111082
H12   H     H_    0.427015 0.757836 0.388411 0.175713
C39   C     C_2   0.812017 0.319364 0.625219 0.574520
H13   H     H_    0.773587 0.262114 0.572985 0.071242
O9    O     O_2   0.772731 0.300924 0.711621 -0.528300
C40   C     C_2   0.168849 0.715057 0.455228 0.366478
H14   H     H_    0.220818 0.705882 0.391185 0.046389
O10   O     O_2   0.166667 0.808065 0.472360 -0.497971
C41   C     C_2   0.124731 0.549532 0.306373 0.498812
H15   H     H_    0.225929 0.563301 0.299963 0.015185
O11   O     O_2   0.067920 0.596869 0.241352 -0.508903
N3    N     N_R   0.605912 0.792102 0.214580 0.219423
O12   O     O_R   0.704983 0.779480 0.267096 -0.306632
O13   O     O_R   0.582391 0.889910 0.195598 -0.324972
C42   C     C_2   0.364364 0.416877 0.170190 0.458796
H16   H     H_    0.393639 0.346007 0.209035 0.090621
O14   O     O_2   0.254460 0.412069 0.147904 -0.449111
N4    N     N_R   0.508173 0.166836 0.982296 0.248835
O15   O     O_R   0.486668 0.086953 0.926768 -0.340607
O16   O     O_R   0.536342 0.145709 0.076870 -0.305064
N5    N     N_R   0.234245 0.061683 0.266363 0.226523
O17   O     O_R   0.150205 0.971309 0.278912 -0.285389
O18   O     O_R   0.222080 0.134997 0.191234 -0.292049
N6    N     N_R   0.736001 0.738403 0.666485 0.246207
O19   O     O_R   0.853672 0.784513 0.655168 -0.266301
O20   O     O_R   0.706376 0.657221 0.737305 -0.339725
C43   C     C_2   0.534582 0.044803 0.702864 0.453893
H17   H     H_    0.600379 0.083939 0.755837 0.165371
O21   O     O_2   0.426932 0.058347 0.702262 -0.494530
N7    N     N_R   0.725167 0.923201 0.763435 0.237174
O22   O     O_R   0.723632 0.848838 0.840378 -0.301043
O23   O     O_R   0.801969 0.017242 0.763517 -0.264287
N8    N     N_R   0.102785 0.423602 0.691316 0.209436
O24   O     O_R   0.223097 0.447708 0.703568 -0.451657
O25   O     O_R   0.035774 0.381636 0.771116 -0.236395
N9    N     N_R   0.060060 0.293470 0.575264 0.191769
O26   O     O_R   0.971551 0.225175 0.535989 -0.440895
O27   O     O_R   0.156585 0.255753 0.611951 -0.252119
C44   C     C_2   0.830638 0.357574 0.366193 0.590795
H18   H     H_    0.830004 0.279831 0.410279 0.101834
O28   O     O_2   0.763555 0.359222 0.291594 -0.507507
C45   C     C_2   0.083544 0.359448 0.359654 0.428963
H19   H     H_    0.130018 0.304493 0.406426 0.147960
O29   O     O_2   0.049651 0.332397 0.276847 -0.427608
C46   C     C_2   0.921658 0.702227 0.420194 0.610614
H20   H     H_    0.945729 0.699743 0.342719 0.112881
O30   O     O_2   0.874986 0.777717 0.439299 -0.426573
C47   C     C_2   0.137627 0.643466 0.628164 0.611158
H21   H     H_    0.236760 0.664567 0.644720 0.079197
O31   O     O_2   0.065106 0.644404 0.695950 -0.488931

loop_
_geom_bond_atom_site_label_1
_geom_bond_atom_site_label_2
_geom_bond_distance
_ccdc_geom_bond_type
C40   O10   1.224073 D    
C43   H17   1.082667 S    
C39   O9    1.221667 D    
N8    O24   1.296340 A    
H9    C38   1.074979 S    
C11   C41   1.530177 S    
C8    C9    1.569061 S    
C34   C35   1.389168 A    
N5    O17   1.301343 A    
C36   H12   1.052683 S    
C35   C36   1.382732 A    
Zn1   O7    2.059686 S    
C46   O30   1.221374 D    
C28   N2    1.373345 A    
C16   N4    1.441081 S    
C28   N6    1.430374 S    
C3    C14   1.472609 S    
C21   C22   1.387389 A    
C8    H2    1.102949 S    
N6    O20   1.299016 A    
C15   C16   1.396819 A    
O7    C4    1.304693 A    
N4    O16   1.301863 A    
C11   C45   1.538608 S    
C5    H1    1.114024 S    
C47   H21   1.083465 S    
C5    C6    1.581816 S    
C41   O11   1.221281 D    
O5    C3    1.308307 A    
C29   N7    1.438008 S    
C1    C26   1.464431 S    
C16   C17   1.395942 A    
N9    O27   1.302852 A    
C15   C26   1.403683 A    
C12   C47   1.543482 S    
C24   C42   1.480069 S    
C12   C40   1.521873 S    
C37   H11   1.076072 S    
C40   H14   1.070382 S    
N8    O25   1.302801 A    
C19   C23   1.424550 A    
C41   H15   1.086534 S    
C7    H3    1.104906 S    
O3    Zn1   2.056938 S    
N5    O18   1.301356 A    
C32   N2    1.370026 A    
C31   C33   1.425897 A    
C29   C30   1.400009 A    
C5    C9    1.578637 S    
O2    Zn2   1.968974 S    
C7    C11   1.587572 S    
N6    O19   1.300570 A    
N3    O13   1.301355 A    
C30   C43   1.484041 S    
C32   C36   1.393697 A    
N4    O15   1.300535 A    
C30   C31   1.418505 A    
O1    C1    1.315076 A    
C20   C21   1.404388 A    
C20   C24   1.385688 A    
C42   H16   1.077710 S    
C23   H8    1.075878 S    
C22   C23   1.389531 A    
N7    O23   1.301244 A    
C44   H18   1.076946 S    
Zn2   O8    2.056938 S    
N9    O26   1.299300 A    
C14   C24   1.411336 A    
C18   C19   1.402846 A    
C6    N9    1.488000 S    
C45   O29   1.223438 D    
C42   O14   1.219617 D    
C8    C46   1.538828 S    
C13   C21   1.397467 A    
C44   O28   1.222173 D    
O8    C4    1.310305 A    
C43   O21   1.221450 D    
C10   C12   1.639205 S    
O3    C2    1.294565 A    
C6    N8    1.483498 S    
C7    C44   1.527030 S    
C31   C32   1.417679 A    
N1    C38   1.351436 A    
C33   C37   1.401582 A    
Zn1   O5    1.968974 S    
C33   C34   1.419340 A    
C27   C38   1.389877 A    
C25   N3    1.435080 S    
O1    Zn1   2.002557 S    
C27   N5    1.438047 S    
N3    O12   1.300336 A    
O6    C3    1.308428 A    
O4    Zn2   2.059687 S    
N1    C37   1.347344 A    
C2    C9    1.481424 S    
C46   H20   1.081231 S    
C13   H5    1.084077 S    
C6    C10   1.633326 S    
C17   C18   1.414003 A    
C4    C10   1.508004 S    
C8    C12   1.568710 S    
C19   C26   1.424473 A    
Zn1   N1    2.049621 S    
C13   C25   1.403435 A    
N7    O22   1.300901 A    
O4    C2    1.306552 A    
H4    C22   1.084103 S    
C14   C25   1.424240 A    
C18   C20   1.413642 A    
C17   H7    1.079420 S    
C47   O31   1.222078 D    
O2    C1    1.297209 A    
C7    C9    1.571887 S    
C45   H19   1.071410 S    
C39   H13   1.079315 S    
C27   C34   1.411344 A    
Zn2   O6    2.002554 S    
C28   C29   1.404746 A    
C5    C39   1.523162 S    
C10   C11   1.635619 S    
C15   H6    1.080721 S    
Zn2   N2    2.037258 S    
H10   C35   1.081932 S    
