data_mof_unit_67708.cif
_audit_creation_date              2012-12-10T19:48:32-0500
_audit_creation_method            fapswitch 2.2
_symmetry_space_group_name_H-M    P1
_symmetry_Int_Tables_number       1
_space_group_crystal_system       triclinic
_cell_length_a                    11.632204
_cell_length_b                    10.948903
_cell_length_c                    9.976623
_cell_angle_alpha                 89.896498
_cell_angle_beta                  86.95684
_cell_angle_gamma                 93.604437
_cell_volume                      1266.30285876

loop_
_atom_site_label
_atom_site_type_symbol
_atom_type_description
_atom_site_fract_x
_atom_site_fract_y
_atom_site_fract_z
_atom_type_partial_charge
C1    C     C_R   0.502843 0.260461 0.498996 0.843239
C2    C     C_3   0.395722 0.041973 0.534993 -0.235928
C3    C     C_3   0.486192 0.876616 0.502031 -0.165708
C4    C     C_3   0.505005 0.121239 0.494537 -0.177818
C5    C     C_3   0.462364 0.957893 0.624536 0.245797
C6    C     C_3   0.522537 0.036872 0.372824 0.237368
C7    C     C_3   0.480707 0.604193 0.050458 0.239023
C8    C     C_3   0.515154 0.394063 0.952360 0.264322
C9    C     C_3   0.403007 0.532495 0.954194 -0.311391
C10   C     C_3   0.595969 0.471868 0.045420 -0.274211
C11   C     C_3   0.575852 0.576968 0.944361 0.426526
C12   C     C_R   0.494381 0.738711 0.500567 0.832215
C13   C     C_3   0.416189 0.427224 0.056840 0.371107
C14   C     C_R   0.264605 0.501220 0.500505 0.807242
C15   C     C_R   0.738058 0.496012 0.496666 0.771268
C16   C     C_R   0.182641 0.436144 0.984060 0.160522
C17   C     C_R   0.861140 0.506711 0.916077 0.044371
C18   C     C_R   0.170504 0.484731 0.157527 -0.043279
C19   C     C_R   0.870501 0.501607 0.779210 -0.138999
C20   C     C_R   0.134295 0.372731 0.289985 0.196069
C21   C     C_R   0.903966 0.603883 0.701812 0.023764
C22   C     C_R   0.120603 0.212086 0.249675 0.301948
C23   C     C_R   0.876191 0.495474 0.489669 -0.048742
C24   C     C_R   0.925758 0.717681 0.761337 0.139467
C25   C     C_R   0.138034 0.161408 0.078298 0.371480
C26   C     C_R   0.909356 0.729954 0.900932 0.229470
C27   C     C_R   0.169021 0.274045 0.942714 0.595389
C28   C     C_R   0.879845 0.623076 0.980589 0.357594
C29   C     C_R   0.944230 0.412041 0.413619 -0.088397
C30   C     C_R   0.068088 0.589522 0.551800 -0.186582
C31   C     C_R   0.132303 0.499354 0.493083 -0.014959
C32   C     C_R   0.945152 0.578068 0.566505 0.066788
C33   C     C_R   0.069936 0.419065 0.408944 0.014414
C34   C     C_3   0.573874 0.040974 0.582584 0.136476
C35   C     C_3   0.412900 0.953841 0.415623 0.176069
C36   C     C_3   0.594197 0.956805 0.460063 -0.264649
Cu1   Cu    Cu3+1 0.500030 0.499990 0.643150 1.115963
Cu2   Cu    Cu3+1 0.499970 0.500010 0.356850 1.114601
H1    H     H_    0.351462 0.604582 0.921007 0.222311
H2    H     H_    0.984222 0.710530 0.305476 0.387871
H3    H     H_    0.564712 0.895029 0.853843 0.398790
H4    H     H_    0.000200 0.388401 0.136911 0.386990
H5    H     H_    0.675643 0.457130 0.092880 0.239168
H6    H     H_    0.169064 0.580945 0.179835 0.202993
H7    H     H_    0.861138 0.413118 0.730939 0.215772
H8    H     H_    0.899841 0.344700 0.352358 0.184702
H9    H     H_    0.115236 0.663123 0.600946 0.188994
H10   H     H_    0.677789 0.919482 0.427131 0.224283
H11   H     H_    0.312795 0.083655 0.558314 0.226240
H12   H     H_    0.131434 0.066323 0.666667 0.393932
I1    I     I_    0.421847 0.773179 0.121636 -0.101804
I2    I     I_    0.244295 0.871403 0.384496 -0.279969
I3    I     I_    0.320366 0.893390 0.756613 -0.165685
I4    I     I_    0.610454 0.078384 0.187010 -0.075648
I5    I     I_    0.542555 0.216103 0.881959 -0.092811
I6    I     I_    0.146556 0.569175 0.851195 -0.327156
I7    I     I_    0.830950 0.319217 0.984599 -0.202133
I8    I     I_    0.022639 0.098995 0.384608 -0.216018
I9    I     I_    0.960539 0.867234 0.631622 -0.179653
I10   I     I_    0.181847 0.979388 0.058242 -0.026373
I11   I     I_    0.907911 0.912800 0.980547 0.037752
I12   I     I_    0.739234 0.093056 0.656734 -0.176388
N1    N     N_3   0.500090 0.499970 0.858290 -0.243849
N2    N     N_3   0.499910 0.500030 0.141710 -0.238695
O1    O     O_R   0.500060 0.316850 0.620870 -0.535765
O2    O     O_2   0.274824 0.259702 0.704225 -0.316099
O3    O     O_3   0.120707 0.083249 0.763595 -0.488002
O4    O     O_2   0.776603 0.712575 0.206444 -0.221453
O5    O     O_2   0.850162 0.510687 0.209487 -0.373953
O6    O     O_3   0.997643 0.699130 0.207520 -0.530259
O7    O     O_2   0.690390 0.782700 0.992478 -0.278926
O8    O     O_2   0.702967 0.711690 0.754632 -0.305730
O9    O     O_3   0.528952 0.810917 0.845488 -0.486981
O10   O     O_2   0.345382 0.202342 0.067868 -0.348782
O11   O     O_2   0.327268 0.294488 0.272641 -0.309784
O12   O     O_R   0.499940 0.683150 0.379130 -0.552728
O13   O     O_3   0.059015 0.330142 0.104213 -0.800970
O14   O     O_R   0.500000 0.316860 0.379090 -0.509617
O15   O     O_R   0.500000 0.683140 0.620910 -0.492130
O16   O     O_R   0.319670 0.500010 0.620890 -0.518896
O17   O     O_R   0.680330 0.499990 0.379110 -0.504643
O18   O     O_R   0.319620 0.500010 0.379110 -0.571250
O19   O     O_R   0.680380 0.499990 0.620890 -0.564464
O20   O     O_2   0.070980 0.304066 0.711924 -0.288763
S1    S     S_3+6 0.159510 0.231994 0.775245 0.024485
S2    S     S_3+6 0.872397 0.636374 0.155583 0.001594
S3    S     S_3+6 0.631021 0.720661 0.881302 0.026850
S4    S     S_3+6 0.296445 0.313893 0.130974 -0.169176

loop_
_geom_bond_atom_site_label_1
_geom_bond_atom_site_label_2
_ccdc_geom_bond_type
C2    C35   S    
C8    C13   S    
O4    S2    D    
C34   I12   S    
C14   C31   S    
O2    S1    D    
C15   O17   A    
Cu2   O12   S    
C7    C11   S    
Cu1   O15   S    
H2    O6    S    
C23   C29   A    
C5    I3    S    
C19   C21   A    
C26   I11   S    
C24   C26   A    
C11   N1    S    
C30   C31   A    
C12   O15   A    
C29   C33   A    
C9    H1    S    
C6    C35   S    
C27   S1    S    
C9    C13   S    
O9    S3    S    
C3    C12   S    
Cu1   N1    S    
O13   S4    S    
C11   S3    S    
C22   C25   A    
Cu1   O1    S    
C1    O1    A    
C31   C33   A    
C25   I10   S    
C14   O16   A    
H12   O3    S    
C18   C20   A    
C16   C27   A    
C15   C23   S    
Cu2   O18   S    
C1    O14   A    
C6    I4    S    
C8    I5    S    
Cu1   O16   S    
Cu2   N2    S    
C21   C32   S    
C4    C34   S    
O3    S1    S    
C30   H9    S    
O20   S1    D    
C4    C6    S    
C15   O19   A    
Cu2   O14   S    
C2    C4    S    
C16   I6    S    
Cu1   Cu2   S    
C2    H11   S    
C18   H6    S    
C3    C35   S    
C5    C34   S    
O7    S3    D    
C20   C33   S    
C16   C18   A    
C20   C22   A    
C12   O12   A    
Cu2   O17   S    
C28   S2    S    
C2    C5    S    
C14   O18   A    
O6    S2    S    
O8    S3    D    
C7    C9    S    
C10   H5    S    
C9    N1    S    
C17   C28   A    
C10   N2    S    
C3    C5    S    
C22   I8    S    
C19   H7    S    
C25   C27   A    
C26   C28   A    
C29   H8    S    
C1    C4    S    
C23   C32   A    
C7    I1    S    
C30   C32   A    
C13   N2    S    
C3    C36   S    
C24   I9    S    
C13   S4    S    
C17   C19   A    
C6    C36   S    
C36   H10   S    
C34   C36   S    
C7    N2    S    
C10   C11   S    
C8    N1    S    
H3    O9    S    
O11   S4    D    
H4    O13   S    
C8    C10   S    
C21   C24   A    
C35   I2    S    
Cu1   O19   S    
O10   S4    D    
O5    S2    D    
C17   I7    S    
