data_mof_unit_34197.cif
_audit_creation_date              2012-12-10T17:19:25-0500
_audit_creation_method            fapswitch 2.2
_symmetry_space_group_name_H-M    P1
_symmetry_Int_Tables_number       1
_space_group_crystal_system       triclinic
_cell_length_a                    15.063311
_cell_length_b                    10.807576
_cell_length_c                    9.584198
_cell_angle_alpha                 90.475895
_cell_angle_beta                  89.997777
_cell_angle_gamma                 93.694995
_cell_volume                      1556.98975519

loop_
_atom_site_label
_atom_site_type_symbol
_atom_type_description
_atom_site_fract_x
_atom_site_fract_y
_atom_site_fract_z
_atom_type_partial_charge
C1    C     C_R   0.494131 0.262129 0.499298 0.786442
C2    C     C_R   0.907920 0.516839 0.627796 0.108111
C3    C     C_R   0.954293 0.508659 0.245673 -0.212149
C4    C     C_R   0.046906 0.510231 0.245656 -0.214830
C5    C     C_R   0.093773 0.513475 0.372136 0.103135
C6    C     C_R   0.047455 0.516690 0.499953 0.061692
C7    C     C_R   0.094121 0.520387 0.627753 0.110939
C8    C     C_R   0.047546 0.523840 0.754204 -0.220615
C9    C     C_R   0.954897 0.522029 0.754231 -0.211845
C10   C     C_R   0.186150 0.511934 0.373041 -0.255691
C11   C     C_R   0.232599 0.512833 0.499986 -0.064596
C12   C     C_R   0.329079 0.505523 0.500013 0.791136
C13   C     C_R   0.186529 0.518961 0.626872 -0.262692
C14   C     C_R   0.346066 0.108989 0.650554 0.111524
C15   C     C_R   0.304188 0.043408 0.760786 -0.176715
C16   C     C_R   0.318161 0.918741 0.781047 0.181018
C17   C     C_R   0.374282 0.859983 0.689758 -0.203962
C18   C     C_R   0.428147 0.928205 0.592423 0.037092
C19   C     C_R   0.419187 0.057691 0.580487 0.055485
C20   C     C_R   0.481629 0.127306 0.495120 -0.101035
C21   C     C_R   0.539213 0.067072 0.407252 -0.192619
C22   C     C_R   0.540909 0.939915 0.408467 -0.208315
C23   C     C_R   0.496493 0.737143 0.500860 0.767517
C24   C     C_R   0.488349 0.870285 0.502638 -0.068867
C25   C     C_R   0.619660 0.665859 0.145629 -0.153608
C26   C     C_R   0.678076 0.747029 0.073900 -0.221551
C27   C     C_R   0.677742 0.747368 0.930027 -0.205985
C28   C     C_R   0.619039 0.666463 0.856998 -0.146560
C29   C     C_R   0.558566 0.581871 0.925823 0.198650
C30   C     C_R   0.558711 0.581677 0.075508 0.213551
C31   C     C_R   0.443980 0.422373 0.073254 -0.066261
C32   C     C_R   0.444072 0.422321 0.925267 -0.066126
C33   C     C_R   0.671410 0.501733 0.500010 0.803136
C34   C     C_R   0.815264 0.512692 0.626943 -0.250651
C35   C     C_R   0.768594 0.506549 0.500049 -0.075882
C36   C     C_R   0.815018 0.506263 0.373106 -0.253112
C37   C     C_R   0.907640 0.510219 0.372173 0.108381
C38   C     C_R   0.954318 0.514945 0.499972 0.062870
Cu1   Cu    Cu3+1 0.499990 0.499990 0.640660 0.918271
Cu2   Cu    Cu3+1 0.500010 0.500010 0.359340 0.927253
H1    H     H_    0.779651 0.513917 0.725221 0.161661
H2    H     H_    0.254028 0.086366 0.822292 0.130500
H3    H     H_    0.373870 0.760711 0.697621 0.180769
H4    H     H_    0.586742 0.896013 0.339563 0.144222
H5    H     H_    0.398127 0.358731 0.128016 0.135699
H6    H     H_    0.625328 0.673266 0.255797 0.192813
H7    H     H_    0.723928 0.810232 0.130691 0.148975
H8    H     H_    0.723353 0.810801 0.874279 0.152069
H9    H     H_    0.624117 0.674163 0.746904 0.198246
H10   H     H_    0.779225 0.502355 0.274834 0.161944
H11   H     H_    0.398397 0.358473 0.869459 0.129284
H12   H     H_    0.919144 0.505405 0.146906 0.139638
H13   H     H_    0.081823 0.508047 0.146881 0.135986
H14   H     H_    0.221603 0.508143 0.274778 0.156163
H15   H     H_    0.222319 0.520771 0.725114 0.152249
H16   H     H_    0.082719 0.527025 0.852952 0.135566
H17   H     H_    0.919972 0.523933 0.853013 0.140010
H18   H     H_    0.585281 0.119267 0.339589 0.157168
N1    N     N_R   0.500860 0.501210 0.147910 -0.198031
N2    N     N_R   0.500890 0.501290 0.852040 -0.200944
O1    O     O_R   0.499990 0.319640 0.618810 -0.565949
O2    O     O_R   0.500000 0.319660 0.381240 -0.577471
O3    O     O_R   0.370250 0.499960 0.618800 -0.605058
O4    O     O_R   0.370260 0.499980 0.381230 -0.584058
O5    O     O_R   0.500000 0.680340 0.618760 -0.611422
O6    O     O_R   0.500010 0.680360 0.381190 -0.590840
O7    O     O_R   0.629740 0.500020 0.618770 -0.596008
O8    O     O_R   0.629750 0.500040 0.381200 -0.600394
C39   C     C_3   0.298692 0.217831 0.595341 -0.388744
C40   C     C_3   0.203269 0.178998 0.550156 -0.838390
H19   H     H_    0.160965 0.153294 0.641541 0.247384
H20   H     H_    0.202945 0.099214 0.476256 0.257405
H21   H     H_    0.173457 0.257022 0.496834 0.253691
H22   H     H_    0.297013 0.290067 0.677890 0.209155
H23   H     H_    0.331150 0.257186 0.501213 0.197076
C41   C     C_3   0.267009 0.844818 0.891221 -0.431193
C42   C     C_3   0.329301 0.797326 0.001687 -0.790924
H24   H     H_    0.375712 0.733048 0.954381 0.250629
H25   H     H_    0.368327 0.876208 0.052109 0.259379
H26   H     H_    0.289593 0.746283 0.082966 0.237347
H27   H     H_    0.218194 0.902204 0.944138 0.200433
H28   H     H_    0.228923 0.764827 0.841125 0.201430

loop_
_geom_bond_atom_site_label_1
_geom_bond_atom_site_label_2
_ccdc_geom_bond_type
C27   H8    S    
C4    H13   S    
C35   C36   A    
C1    O2    A    
C8    H16   S    
C7    C8    A    
C42   H24   S    
C26   C27   A    
C29   C30   A    
C18   C24   A    
C23   O6    A    
C36   C37   A    
C34   C35   A    
C5    C6    A    
C12   O4    A    
C15   C16   A    
Cu2   O2    S    
C18   C19   A    
C31   N1    A    
C22   H4    S    
C19   C20   A    
C8    C9    A    
C23   C24   S    
C6    C38   A    
C40   H19   S    
C2    C34   A    
Cu2   N1    S    
Cu2   O6    S    
C21   C22   A    
Cu1   O5    S    
C34   H1    S    
C42   H25   S    
Cu1   O1    S    
C41   C42   S    
C41   H28   S    
Cu1   Cu2   S    
C12   O3    A    
C16   C17   A    
C25   C26   A    
C17   H3    S    
C32   H11   S    
C37   C38   A    
C28   H9    S    
C2    C38   A    
C31   C32   A    
C29   N2    A    
C7    C13   A    
C3    H12   S    
C30   N1    A    
C40   H21   S    
C17   C18   A    
C39   H22   S    
C26   H7    S    
C31   H5    S    
C14   C39   S    
C22   C24   A    
C32   N2    A    
C3    C4    A    
C36   H10   S    
C33   O7    A    
C42   H26   S    
C25   C30   A    
C28   C29   A    
C1    C20   S    
C16   C41   S    
Cu1   O7    S    
C14   C19   A    
C15   H2    S    
C4    C5    A    
C1    O1    A    
C41   H27   S    
C11   C12   S    
C6    C7    A    
Cu1   O3    S    
Cu2   O4    S    
C23   O5    A    
C21   H18   S    
C11   C13   A    
Cu1   N2    S    
C33   C35   S    
C39   H23   S    
C9    H17   S    
C39   C40   S    
C10   H14   S    
C10   C11   A    
C5    C10   A    
C20   C21   A    
C3    C37   A    
Cu2   O8    S    
C27   C28   A    
C14   C15   A    
C40   H20   S    
C2    C9    A    
C25   H6    S    
C33   O8    A    
C13   H15   S    
