data_mof_unit_25260.cif
_audit_creation_date              2012-12-11T17:43:40-0500
_audit_creation_method            fapswitch 2.2
_symmetry_space_group_name_H-M    P1
_symmetry_Int_Tables_number       1
_space_group_crystal_system       triclinic
_cell_length_a                    15.115807
_cell_length_b                    15.089991
_cell_length_c                    16.946506
_cell_angle_alpha                 108.799688
_cell_angle_beta                  106.293871
_cell_angle_gamma                 108.890135
_cell_volume                      3126.17159582

loop_
_atom_site_label
_atom_site_type_symbol
_atom_type_description
_atom_site_fract_x
_atom_site_fract_y
_atom_site_fract_z
_atom_type_partial_charge
C1    C     C_R   0.081894 0.290279 0.083772 -0.007435
C2    C     C_R   0.084202 0.114080 0.123842 -0.228601
C3    C     C_R   0.996637 0.926401 0.070584 0.063176
C4    C     C_R   0.990157 0.112602 0.080530 0.063899
C5    C     C_R   0.088780 0.023181 0.121796 0.058626
C6    C     C_R   0.897115 0.022716 0.051821 0.072739
C7    C     C_R   0.710756 0.956147 0.945500 -0.002933
C8    C     C_R   0.208086 0.033010 0.264232 0.012857
C9    C     C_R   0.604029 0.027744 0.998666 -0.109931
C10   C     C_R   0.391210 0.092121 0.301361 -0.078722
C11   C     C_R   0.511234 0.704553 0.266205 -0.308988
C12   C     C_R   0.910522 0.724250 0.975719 -0.159228
C13   C     C_R   0.474224 0.226997 0.656699 -0.316357
C14   C     C_R   0.500853 0.653542 0.176745 0.006504
C15   C     C_R   0.463614 0.262180 0.738800 -0.001149
C16   C     C_R   0.935657 0.530564 0.752787 -0.249262
C17   C     C_R   0.063738 0.530947 0.266357 -0.225777
C18   C     C_R   0.477726 0.545968 0.138495 -0.097276
C19   C     C_R   0.460595 0.359435 0.773929 -0.069535
C20   C     C_R   0.473727 0.493758 0.195118 0.511771
C21   C     C_R   0.460200 0.415909 0.720750 0.529969
C22   C     C_R   0.482511 0.546488 0.283756 -0.216494
C23   C     C_R   0.024939 0.600488 0.755677 -0.049815
C24   C     C_R   0.468906 0.377299 0.637806 -0.206945
C25   C     C_R   0.500020 0.650907 0.319532 0.484974
C26   C     C_R   0.478963 0.285125 0.606658 0.489057
C27   C     C_R   0.551494 0.483447 0.035019 -0.290046
C28   C     C_R   0.374940 0.409363 0.874112 -0.299291
C29   C     C_R   0.549395 0.440206 0.948384 0.111926
C30   C     C_R   0.377998 0.453969 0.961478 0.091739
C31   C     C_R   0.461737 0.402719 0.866518 0.066231
C32   C     C_R   0.467014 0.492140 0.043158 0.035094
C33   C     C_R   0.615569 0.958869 0.929015 -0.160103
C34   C     C_R   0.972801 0.501187 0.278270 -0.068042
C35   C     C_R   0.308711 0.060955 0.324676 -0.106928
C36   C     C_R   0.965687 0.541801 0.367252 -0.006711
C37   C     C_R   0.030271 0.656910 0.697918 0.073397
C38   C     C_R   0.136435 0.688235 0.618508 -0.434340
C39   C     C_R   0.866193 0.577809 0.453299 -0.382360
C40   C     C_R   0.782046 0.204302 0.812706 -0.125317
C41   C     C_R   0.259207 0.796415 0.189057 -0.126485
C42   C     C_R   0.126542 0.713706 0.701237 0.505772
C43   C     C_R   0.876034 0.551180 0.369960 0.498916
C44   C     C_R   0.941268 0.625482 0.618984 -0.084719
C45   C     C_R   0.770032 0.201006 0.727487 0.038543
C46   C     C_R   0.052104 0.580337 0.451294 -0.062211
C47   C     C_R   0.950337 0.610978 0.535645 0.083235
C48   C     C_R   0.047097 0.626404 0.534865 0.098110
C49   C     C_R   0.707987 0.108070 0.639915 0.076031
C50   C     C_R   0.369132 0.884858 0.363282 0.085156
C51   C     C_R   0.426924 0.950603 0.527704 -0.246881
C52   C     C_R   0.653732 0.035104 0.474924 -0.228072
C53   C     C_R   0.346427 0.897587 0.440438 0.021856
C54   C     C_R   0.732862 0.097711 0.564179 0.038959
C55   C     C_R   0.470276 0.933575 0.374232 -0.338573
C56   C     C_R   0.293427 0.799110 0.275082 0.059688
C57   C     C_R   0.608098 0.049033 0.626489 -0.276922
C58   C     C_R   0.551095 0.987577 0.462078 0.136056
C59   C     C_R   0.528793 0.993545 0.538712 0.151281
C60   C     C_R   0.687160 0.094354 0.085480 -0.127839
C61   C     C_R   0.374575 0.096218 0.217762 -0.166555
C62   C     C_R   0.782933 0.092741 0.103494 0.025680
C63   C     C_R   0.275176 0.070430 0.157035 0.015599
C64   C     C_R   0.259945 0.535150 0.950215 -0.209073
C65   C     C_R   0.701281 0.410368 0.000308 -0.185136
C66   C     C_R   0.795500 0.023698 0.033182 0.065171
C67   C     C_R   0.289083 0.462982 0.967173 -0.127080
C68   C     C_R   0.191064 0.037737 0.179729 0.049051
C69   C     C_R   0.788475 0.300163 0.735951 -0.118492
C70   C     C_R   0.252593 0.698461 0.263566 -0.143782
C71   C     C_R   0.248470 0.436261 0.023813 0.528327
C72   C     C_R   0.706599 0.503707 0.922371 0.494080
C73   C     C_R   0.106363 0.610274 0.827566 0.505713
C74   C     C_R   0.891812 0.438031 0.189323 0.601163
C75   C     C_R   0.912142 0.204746 0.000752 -0.139355
C76   C     C_R   0.083333 0.806747 0.045286 -0.075975
C77   C     C_R   0.993887 0.198676 0.055944 0.006787
C78   C     C_R   0.645002 0.444800 0.950184 -0.057779
C79   C     C_R   0.996782 0.823123 0.034944 0.061366
C80   C     C_R   0.901550 0.929676 0.044957 -0.231229
H1    H     H_    0.156405 0.320703 0.139774 0.142142
H2    H     H_    0.793641 0.574619 0.453313 0.145400
H3    H     H_    0.856980 0.511626 0.712794 0.152222
H4    H     H_    0.141284 0.578789 0.318713 0.145184
H5    H     H_    0.550601 0.907870 0.861774 0.124910
H6    H     H_    0.323426 0.059708 0.390464 0.131660
H7    H     H_    0.589528 0.058233 0.685178 0.133696
H8    H     H_    0.486000 0.924239 0.314198 0.140473
H9    H     H_    0.409735 0.958343 0.586878 0.138841
H10   H     H_    0.671716 0.028336 0.416299 0.134890
H11   H     H_    0.530421 0.029509 0.985317 0.126762
H12   H     H_    0.830519 0.708024 0.951087 0.137910
H13   H     H_    0.468478 0.113565 0.348344 0.139087
H14   H     H_    0.677160 0.147206 0.139091 0.126024
H15   H     H_    0.439214 0.120669 0.200505 0.129423
H16   H     H_    0.767533 0.138625 0.828484 0.104130
H17   H     H_    0.289549 0.859820 0.172622 0.113665
H18   H     H_    0.284232 0.576356 0.912805 0.170981
H19   H     H_    0.671714 0.353743 0.024000 0.194234
H20   H     H_    0.779976 0.324233 0.681824 0.112714
H21   H     H_    0.278003 0.671459 0.313342 0.120780
H22   H     H_    0.830859 0.155343 0.974788 0.121965
H23   H     H_    0.530330 0.786909 0.294818 0.147934
H24   H     H_    0.162711 0.863435 0.077101 0.106710
H25   H     H_    0.829846 0.859567 0.017660 0.135205
H26   H     H_    0.156281 0.185351 0.157107 0.140591
H27   H     H_    0.667828 0.810461 0.849748 0.139629
H28   H     H_    0.705142 0.906321 0.817629 0.112489
H29   H     H_    0.099677 0.062012 0.299119 0.120359
H30   H     H_    0.148879 0.001772 0.352741 0.098566
H31   H     H_    0.520282 0.772193 0.422495 0.324537
H32   H     H_    0.504553 0.190726 0.517487 0.309157
H33   H     H_    0.580463 0.709971 0.111322 0.126374
H34   H     H_    0.479116 0.154204 0.632098 0.152014
H35   H     H_    0.454057 0.682100 0.067109 0.134665
H36   H     H_    0.385736 0.182683 0.793526 0.118474
H37   H     H_    0.516328 0.234751 0.848312 0.115365
H38   H     H_    0.458875 0.363179 0.105365 0.317850
H39   H     H_    0.463941 0.537619 0.812475 0.332634
H40   H     H_    0.152651 0.523841 0.491578 0.128046
H41   H     H_    0.205607 0.635549 0.481586 0.110548
H42   H     H_    0.820600 0.659384 0.607924 0.132318
H43   H     H_    0.789187 0.530212 0.574948 0.120550
H44   H     H_    0.743952 0.546555 0.306020 0.323472
H45   H     H_    0.476815 0.505909 0.325869 0.173906
H46   H     H_    0.267341 0.826930 0.772207 0.310043
H47   H     H_    0.884368 0.133871 0.619895 0.114533
H48   H     H_    0.861492 0.232828 0.608809 0.104408
H49   H     H_    0.210354 0.774115 0.403569 0.113566
H50   H     H_    0.198592 0.875248 0.386608 0.110401
H51   H     H_    0.843376 0.145059 0.241609 0.102859
H52   H     H_    0.883335 0.238312 0.207292 0.113183
H53   H     H_    0.306357 0.153835 0.087545 0.150218
H54   H     H_    0.283436 0.027424 0.034550 0.127579
H55   H     H_    0.281684 0.322741 0.019037 0.314976
H56   H     H_    0.471233 0.421505 0.598517 0.172200
H57   H     H_    0.725959 0.545903 0.830814 0.306805
H58   H     H_    0.232468 0.659726 0.817667 0.310186
H59   H     H_    0.789896 0.359464 0.219661 0.316788
H60   H     H_    0.621202 0.514426 0.097307 0.176944
H61   H     H_    0.305852 0.381363 0.812516 0.149858
H62   H     H_    0.212627 0.718801 0.620115 0.147854
N1    N     N_R   0.055660 0.348550 0.045620 -0.046359
N2    N     N_R   0.185200 0.638170 0.176300 -0.043180
N3    N     N_R   0.201680 0.494570 0.045620 -0.077382
N4    N     N_R   0.798320 0.505430 0.954380 -0.106986
N5    N     N_R   0.068420 0.560530 0.871650 -0.075405
N6    N     N_R   0.931580 0.439470 0.128350 -0.083381
N7    N     N_R   0.948070 0.295860 0.997670 -0.053394
N8    N     N_R   0.051930 0.704140 0.002330 -0.039719
N9    N     N_3   0.722430 0.887506 0.872434 -0.212697
N10   N     N_3   0.123657 0.003214 0.289297 -0.210640
N11   N     N_3   0.520104 0.714454 0.128218 -0.202703
N12   N     N_R   0.944340 0.651450 0.954380 -0.051908
N13   N     N_3   0.453316 0.196153 0.783830 -0.208624
N14   N     N_3   0.140276 0.563055 0.451937 -0.213028
N15   N     N_3   0.844258 0.607047 0.623993 -0.209838
N16   N     N_3   0.836734 0.151887 0.576430 -0.214663
N17   N     N_3   0.242379 0.855849 0.431611 -0.211486
N18   N     N_3   0.867325 0.160674 0.193279 -0.216133
N19   N     N_3   0.259091 0.076653 0.071948 -0.208138
N20   N     N_R   0.960830 0.507850 0.823700 -0.071858
N21   N     N_R   0.039170 0.492150 0.176300 -0.075645
N22   N     N_R   0.811290 0.303410 0.871650 -0.043063
N23   N     N_R   0.188710 0.696590 0.128350 -0.040673
N24   N     N_R   0.205200 0.552990 0.997670 -0.058124
N25   N     N_R   0.794800 0.447010 0.002330 -0.059670
N26   N     N_R   0.814800 0.361830 0.823700 -0.047236
Ni1   Ni    Ni4+2 0.119340 0.493420 0.109960 0.228334
Ni2   Ni    Ni4+2 0.880660 0.506580 0.890040 0.201538
Ni3   Ni    Ni4+2 0.872590 0.372590 0.000000 0.228113
Ni4   Ni    Ni4+2 0.127410 0.627410 0.000000 0.261614
O1    O     O_3   0.508426 0.698977 0.407507 -0.751876
O2    O     O_3   0.792160 0.368192 0.164662 -0.774373
O3    O     O_3   0.493759 0.254179 0.527501 -0.761952
O4    O     O_3   0.460872 0.391878 0.167453 -0.751825
O5    O     O_3   0.456689 0.511011 0.748421 -0.749618
O6    O     O_3   0.800068 0.535918 0.291617 -0.750506
O7    O     O_3   0.206711 0.794780 0.783590 -0.723739
O8    O     O_3   0.257350 0.365906 0.056487 -0.785531
O9    O     O_3   0.673067 0.532464 0.855063 -0.777587
O10   O     O_3   0.208408 0.681266 0.866075 -0.732302

loop_
_geom_bond_atom_site_label_1
_geom_bond_atom_site_label_2
_ccdc_geom_bond_type
C76   H24   S    
N4    N25   A    
C43   O6    S    
N24   Ni4   S    
H41   N14   S    
C27   C29   A    
C1    C77   A    
C14   C18   A    
C52   H10   S    
C76   C79   A    
C19   C31   S    
C9    H11   S    
C70   H21   S    
H48   N16   S    
C15   C19   A    
H52   N18   S    
C6    C66   S    
C73   N5    A    
C26   O3    S    
C74   N6    A    
C8    N10   S    
C24   C26   A    
H55   O8    S    
C74   O2    S    
H30   N10   S    
C35   H6    S    
C57   C59   A    
H57   O9    S    
C11   C25   A    
C1    H1    S    
C49   C54   A    
C12   C79   A    
H40   N14   S    
N6    Ni3   S    
C49   C57   A    
N12   Ni2   S    
C60   C62   A    
C37   C42   A    
C61   C63   A    
C33   H5    S    
H36   N13   S    
C64   N24   A    
C17   N21   A    
N8    Ni4   S    
C29   C78   S    
C22   C25   A    
C41   N23   A    
H37   N13   S    
C75   H22   S    
C72   C78   A    
C36   C46   A    
C10   C35   A    
C7    C33   A    
C45   C49   S    
C64   H18   S    
C18   C20   A    
C30   C67   S    
C44   C47   A    
H27   N9    S    
C24   H56   S    
N23   Ni4   S    
C21   O5    S    
H38   O4    S    
H31   O1    S    
H35   N11   S    
C62   N18   S    
C9    C33   A    
C44   N15   S    
C38   H62   S    
C23   C73   A    
C5    C68   S    
N21   Ni1   S    
C3    C80   A    
C52   C54   A    
C46   C48   A    
N3    N24   A    
C40   C45   A    
N3    Ni1   S    
C53   N17   S    
C50   C53   A    
C62   C66   A    
C45   C69   A    
C64   C67   A    
N22   N26   A    
H29   N10   S    
N1    Ni1   S    
C4    C6    A    
C12   N12   A    
C22   H45   S    
C39   C43   A    
H43   N15   S    
C10   H13   S    
C16   N20   A    
C58   C59   A    
C23   C37   S    
N2    Ni1   S    
C2    H26   S    
C16   H3    S    
C50   C56   S    
C57   H7    S    
H50   N17   S    
C51   C53   A    
C8    C35   A    
C71   O8    S    
C2    C4    A    
C41   C56   A    
C1    N1    A    
C54   N16   S    
H28   N9    S    
H59   O2    S    
C6    C80   A    
C47   C48   A    
N20   Ni2   S    
C13   C15   A    
C76   N8    A    
C42   O7    S    
C50   C55   A    
H46   O7    S    
C75   C77   A    
H47   N16   S    
C65   H19   S    
C3    C79   S    
C52   C58   A    
C34   C74   A    
C7    N9    S    
C71   N3    A    
C20   C22   A    
C8    C68   A    
C16   C23   A    
C56   C70   A    
N4    Ni2   S    
C14   N11   S    
C41   H17   S    
C13   C26   A    
C21   C24   A    
C10   C61   A    
C18   C32   S    
C17   C34   A    
H49   N17   S    
C38   C48   A    
N5    Ni4   S    
C39   C47   A    
C63   N19   S    
C63   C68   A    
C65   C78   A    
C19   C21   A    
C27   C32   A    
N7    Ni3   S    
N6    N21   A    
C15   N13   S    
C12   H12   S    
C28   C31   A    
C13   H34   S    
C39   H2    S    
H33   N11   S    
C3    C5    A    
N5    N20   A    
H53   N19   S    
C72   O9    S    
N25   Ni3   S    
C61   H15   S    
C38   C42   A    
C46   N14   S    
C65   N25   A    
C70   N2    A    
C27   H60   S    
H54   N19   S    
N2    N23   A    
C17   H4    S    
C9    C60   A    
C37   C44   A    
C28   C30   A    
C40   H16   S    
C69   N26   A    
C4    C77   S    
C29   C31   A    
C51   H9    S    
C7    C66   A    
C30   C32   A    
C73   O10   S    
C40   N22   A    
C20   O4    S    
H44   O6    S    
C75   N7    A    
C72   N4    A    
C80   H25   S    
N26   Ni2   S    
C11   C14   A    
H42   N15   S    
C55   H8    S    
C67   C71   A    
H51   N18   S    
H58   O10   S    
C2    C5    A    
C69   H20   S    
C25   O1    S    
N1    N7    A    
H32   O3    S    
C51   C59   A    
C34   C36   S    
N8    N12   A    
C55   C58   A    
C36   C43   A    
C11   H23   S    
C28   H61   S    
H39   O5    S    
N22   Ni3   S    
C60   H14   S    
