data_mof_unit_8367.cif
_audit_creation_date              2012-12-10T16:35:57-0500
_audit_creation_method            fapswitch 2.2
_symmetry_space_group_name_H-M    P1
_symmetry_Int_Tables_number       1
_space_group_crystal_system       triclinic
_cell_length_a                    14.225306
_cell_length_b                    16.481768
_cell_length_c                    13.083946
_cell_angle_alpha                 90.018421
_cell_angle_beta                  106.981075
_cell_angle_gamma                 89.981507
_cell_volume                      2933.89298401

loop_
_atom_site_label
_atom_site_type_symbol
_atom_type_description
_atom_site_fract_x
_atom_site_fract_y
_atom_site_fract_z
_atom_type_partial_charge
C1    C     C_R   0.315009 0.844653 0.476388 0.534256
C2    C     C_R   0.685896 0.844172 0.522153 0.535634
C3    C     C_R   0.185859 0.655955 0.522389 0.532611
C4    C     C_R   0.185897 0.344173 0.522151 0.535663
C5    C     C_R   0.546863 0.998960 0.785971 0.505902
C6    C     C_R   0.046867 0.498978 0.785970 0.505541
C7    C     C_R   0.452757 0.000093 0.214647 0.532350
C8    C     C_R   0.952735 0.500092 0.214651 0.532385
C9    C     C_2   0.435309 0.000768 0.097999 0.290398
C10   C     C_2   0.935241 0.500755 0.098006 0.290400
C11   C     C_2   0.502986 0.966223 0.058078 0.275673
C12   C     C_R   0.315070 0.155368 0.476850 0.539026
C13   C     C_2   0.003033 0.466403 0.058101 0.275799
C14   C     C_2   0.565883 0.992438 0.902747 0.259915
C15   C     C_2   0.065907 0.492508 0.902756 0.260276
C16   C     C_2   0.491131 0.973882 0.942255 -0.085048
C17   C     C_2   0.991150 0.474024 0.942280 -0.084677
C18   C     C_2   0.759861 0.219038 0.529536 0.259577
C19   C     C_2   0.762106 0.784249 0.523335 0.266905
C20   C     C_2   0.259863 0.719036 0.529518 0.259597
C21   C     C_2   0.262111 0.284257 0.523323 0.266913
C22   C     C_3   0.592641 0.849569 0.099890 -0.082731
C23   C     C_R   0.815008 0.344653 0.476388 0.534377
C24   C     C_3   0.092669 0.349850 0.100670 -0.082816
C25   C     C_3   0.685558 0.082350 0.982176 -0.079580
C26   C     C_3   0.185947 0.582369 0.981468 -0.079693
C27   C     C_3   0.274656 0.046327 0.066042 -0.126907
C28   C     C_3   0.774490 0.546035 0.066189 -0.126938
C29   C     C_3   0.411727 0.661467 0.580005 -0.114273
C30   C     C_3   0.402933 0.354071 0.535626 -0.116449
C31   C     C_3   0.911751 0.161518 0.580072 -0.114221
C32   C     C_3   0.902945 0.854053 0.535680 -0.116349
C33   C     C_3   0.624685 0.367082 0.344874 -0.117890
C34   C     C_R   0.815069 0.655367 0.476849 0.538938
C35   C     C_3   0.631664 0.645750 0.324050 -0.128804
C36   C     C_3   0.124862 0.867120 0.344628 -0.118000
C37   C     C_3   0.131639 0.145855 0.324011 -0.128889
C38   C     C_2   0.239064 0.784036 0.463623 0.283518
C39   C     C_2   0.238436 0.215113 0.466002 0.280756
C40   C     C_2   0.739074 0.284030 0.463628 0.283422
C41   C     C_2   0.738433 0.715111 0.465993 0.280813
C42   C     C_R   0.685860 0.155954 0.522389 0.532617
H1    H     H_    0.416875 0.968760 0.888666 0.131334
H2    H     H_    0.687514 0.109924 0.905240 0.127171
H3    H     H_    0.760207 0.088177 0.039168 0.143112
H4    H     H_    0.134184 0.617091 0.014482 0.129087
H5    H     H_    0.188679 0.609294 0.904401 0.127792
H6    H     H_    0.260363 0.588199 0.038971 0.143185
H7    H     H_    0.284545 0.088612 0.134540 0.130292
H8    H     H_    0.255250 0.984387 0.087317 0.094709
H9    H     H_    0.211659 0.068947 0.000389 0.149506
H10   H     H_    0.784393 0.588383 0.134625 0.130178
H11   H     H_    0.755257 0.484089 0.087624 0.094850
H12   H     H_    0.916889 0.468902 0.888700 0.131350
H13   H     H_    0.711370 0.568525 0.000570 0.149448
H14   H     H_    0.424724 0.680762 0.503713 0.141631
H15   H     H_    0.383590 0.598145 0.573032 0.127768
H16   H     H_    0.483806 0.661961 0.642511 0.156125
H17   H     H_    0.368597 0.415054 0.531768 0.122180
H18   H     H_    0.401174 0.333376 0.454033 0.123136
H19   H     H_    0.481259 0.360080 0.582812 0.153455
H20   H     H_    0.924818 0.180854 0.503824 0.141650
H21   H     H_    0.883607 0.098198 0.573015 0.127742
H22   H     H_    0.983800 0.161995 0.642631 0.156150
H23   H     H_    0.608930 0.842957 0.022195 0.146152
H24   H     H_    0.868632 0.915042 0.531835 0.122194
H25   H     H_    0.901167 0.833364 0.454082 0.123271
H26   H     H_    0.981274 0.860048 0.582858 0.153477
H27   H     H_    0.675333 0.394464 0.303887 0.103057
H28   H     H_    0.619964 0.405355 0.413326 0.111523
H29   H     H_    0.550353 0.365418 0.286505 0.147641
H30   H     H_    0.655120 0.582625 0.348895 0.104101
H31   H     H_    0.673723 0.670548 0.271403 0.093675
H32   H     H_    0.553157 0.643507 0.276421 0.140035
H33   H     H_    0.175583 0.894186 0.303499 0.103205
H34   H     H_    0.524047 0.816249 0.098263 0.101595
H35   H     H_    0.120298 0.905637 0.412926 0.111615
H36   H     H_    0.050510 0.865510 0.286291 0.147655
H37   H     H_    0.155164 0.082715 0.348698 0.104085
H38   H     H_    0.173621 0.170783 0.271361 0.093613
H39   H     H_    0.053115 0.143601 0.276443 0.139989
H40   H     H_    0.653844 0.820803 0.162098 0.143616
H41   H     H_    0.107765 0.342662 0.022467 0.145034
H42   H     H_    0.024471 0.316621 0.100602 0.102388
H43   H     H_    0.154531 0.321461 0.162427 0.143677
H44   H     H_    0.634037 0.116444 0.016145 0.129739
O1    O     O_3   0.500010 0.000000 0.500000 -0.459812
O2    O     O_R   0.103010 0.337110 0.452470 -0.503277
O3    O     O_R   0.316670 0.095240 0.537470 -0.533948
O4    O     O_R   0.316670 0.904760 0.537470 -0.552169
O5    O     O_R   0.816670 0.595240 0.537470 -0.534027
O6    O     O_R   0.816670 0.404760 0.537470 -0.552176
O7    O     O_R   0.703490 0.904800 0.585920 -0.531977
O8    O     O_R   0.703490 0.095200 0.585920 -0.540698
O9    O     O_R   0.203490 0.404800 0.585920 -0.531912
O10   O     O_R   0.203490 0.595200 0.585920 -0.540831
O11   O     O_R   0.458050 0.000000 0.725250 -0.557085
O12   O     O_3   0.000010 0.500000 0.500000 -0.459727
O13   O     O_R   0.958050 0.500000 0.725250 -0.557014
O14   O     O_R   0.461630 0.932310 0.264690 -0.546085
O15   O     O_R   0.461630 0.067690 0.264690 -0.536193
O16   O     O_R   0.961630 0.432310 0.264690 -0.546589
O17   O     O_R   0.961630 0.567690 0.264690 -0.536039
O18   O     O_R   0.618750 0.000000 0.745380 -0.512636
O19   O     O_R   0.118750 0.500000 0.745380 -0.513016
O20   O     O_3   0.587152 0.931934 0.126875 -0.543306
O21   O     O_3   0.087362 0.432384 0.126890 -0.543091
O22   O     O_3   0.660880 0.999379 0.970044 -0.532179
O23   O     O_R   0.376880 0.837120 0.424150 -0.550316
O24   O     O_3   0.160901 0.499433 0.970077 -0.531606
O25   O     O_3   0.358939 0.045480 0.029865 -0.601858
O26   O     O_3   0.858676 0.545252 0.029845 -0.601939
O27   O     O_3   0.347856 0.715252 0.610992 -0.595200
O28   O     O_3   0.357713 0.297400 0.586957 -0.583645
O29   O     O_3   0.847833 0.215269 0.611045 -0.595107
O30   O     O_3   0.857704 0.797384 0.586992 -0.583691
O31   O     O_3   0.653189 0.286888 0.377629 -0.570684
O32   O     O_3   0.640441 0.695730 0.414044 -0.576733
O33   O     O_3   0.153098 0.786943 0.377717 -0.570656
O34   O     O_R   0.376880 0.162880 0.424150 -0.565254
O35   O     O_3   0.140445 0.195701 0.414133 -0.576792
O36   O     O_R   0.876880 0.337120 0.424150 -0.550264
O37   O     O_R   0.876880 0.662880 0.424150 -0.565201
O38   O     O_R   0.603010 0.162890 0.452470 -0.496088
O39   O     O_R   0.603010 0.837110 0.452470 -0.503107
O40   O     O_R   0.103010 0.662890 0.452470 -0.495981
Zn1   Zn    Zn3+2 0.485630 0.096680 0.411850 0.956343
Zn2   Zn    Zn3+2 0.485630 0.903320 0.411850 0.953508
Zn3   Zn    Zn3+2 0.985630 0.596680 0.411850 0.956518
Zn4   Zn    Zn3+2 0.985630 0.403320 0.411850 0.953242
Zn5   Zn    Zn3+2 0.399590 0.000000 0.573760 0.946805
Zn6   Zn    Zn3+2 0.899590 0.500000 0.573760 0.946821
Zn7   Zn    Zn3+2 0.629190 0.000000 0.602520 0.965840
Zn8   Zn    Zn3+2 0.129190 0.500000 0.602520 0.965649

loop_
_geom_bond_atom_site_label_1
_geom_bond_atom_site_label_2
_ccdc_geom_bond_type
C9    O25   S    
C35   H32   S    
C33   O31   S    
C1    O4    A    
O1    Zn7   S    
C15   O24   S    
O2    Zn4   S    
C13   O21   S    
O1    Zn1   S    
C3    O40   A    
C42   O38   A    
C28   O26   S    
C37   H37   S    
C34   O37   A    
O13   Zn6   S    
C22   H40   S    
O6    Zn6   S    
C24   H41   S    
O7    Zn7   S    
C36   H35   S    
C18   C42   S    
C20   O27   S    
C23   C40   S    
O8    Zn7   S    
C15   C17   D    
O1    Zn5   S    
C36   O33   S    
C18   C40   D    
C34   O5    A    
C29   O27   S    
C1    O23   A    
C6    C15   S    
C12   O34   A    
C30   H18   S    
O39   Zn2   S    
C10   O26   S    
C3    O10   A    
C22   H34   S    
C41   O32   S    
C24   H43   S    
C26   O24   S    
C27   H8    S    
C33   H27   S    
C32   H26   S    
C14   O22   S    
C40   O31   S    
C5    O18   A    
C27   O25   S    
C42   O8    A    
O37   Zn3   S    
C31   H20   S    
C37   H39   S    
C34   C41   S    
O17   Zn3   S    
C25   H2    S    
C31   O29   S    
O1    Zn2   S    
C28   H13   S    
C27   H9    S    
C23   O36   A    
C37   H38   S    
O34   Zn1   S    
O18   Zn7   S    
C31   H21   S    
C12   O3    A    
O11   Zn5   S    
C7    O14   A    
C33   H29   S    
O10   Zn8   S    
O5    Zn6   S    
O40   Zn3   S    
C22   O20   S    
O9    Zn8   S    
C22   H23   S    
C36   H33   S    
C4    O9    A    
C20   C38   D    
C11   C16   S    
O23   Zn2   S    
C21   C39   D    
C30   H17   S    
O12   Zn4   S    
C11   O20   S    
C3    C20   S    
C24   O21   S    
C32   O30   S    
C9    C11   D    
C16   H1    S    
C5    C14   S    
C1    C38   S    
O38   Zn1   S    
C37   O35   S    
C38   O33   S    
C33   H28   S    
C5    O11   A    
C35   H30   S    
C32   H25   S    
C14   C16   D    
O4    Zn5   S    
C25   H3    S    
C32   H24   S    
C30   O28   S    
C7    C9    S    
C26   H5    S    
C35   H31   S    
C2    C19   S    
O14   Zn2   S    
C31   H22   S    
C2    O7    A    
O16   Zn4   S    
C29   H15   S    
C21   O28   S    
C10   C13   D    
C39   O35   S    
C18   O29   S    
C28   H11   S    
C4    O2    A    
C29   H14   S    
C26   H6    S    
O12   Zn8   S    
O3    Zn5   S    
C13   C17   S    
C6    O13   A    
C12   C39   S    
C24   H42   S    
C36   H36   S    
C4    C21   S    
C28   H10   S    
C19   O30   S    
O12   Zn3   S    
C25   H44   S    
O15   Zn1   S    
C6    O19   A    
C8    O17   A    
C26   H4    S    
C2    O39   A    
C27   H7    S    
C29   H16   S    
C8    C10   S    
C7    O15   A    
C30   H19   S    
O12   Zn6   S    
C23   O6    A    
C35   O32   S    
C8    O16   A    
C17   H12   S    
O36   Zn4   S    
C19   C41   D    
C25   O22   S    
O19   Zn8   S    
