data_mof_unit_17793.cif
_audit_creation_date              2012-12-10T17:53:14-0500
_audit_creation_method            fapswitch 2.2
_symmetry_space_group_name_H-M    P1
_symmetry_Int_Tables_number       1
_space_group_crystal_system       triclinic
_cell_length_a                    23.434722
_cell_length_b                    10.713589
_cell_length_c                    9.895063
_cell_angle_alpha                 89.762807
_cell_angle_beta                  89.257435
_cell_angle_gamma                 92.012215
_cell_volume                      2482.58656925

loop_
_atom_site_label
_atom_site_type_symbol
_atom_type_description
_atom_site_fract_x
_atom_site_fract_y
_atom_site_fract_z
_atom_type_partial_charge
C1    C     C_R   0.504401 0.260369 0.501008 0.882201
C2    C     C_R   0.963175 0.259443 0.552127 -0.100962
C3    C     C_R   0.022530 0.251364 0.545784 -0.034320
C4    C     C_R   0.056692 0.361153 0.518055 -0.097817
C5    C     C_R   0.029656 0.474500 0.487635 -0.001603
C6    C     C_R   0.062572 0.582523 0.452617 -0.054946
C7    C     C_R   0.036227 0.695028 0.426303 -0.104575
C8    C     C_R   0.977026 0.703915 0.435632 -0.032958
C9    C     C_R   0.116887 0.364710 0.523706 0.570245
C10   C     C_R   0.121835 0.577021 0.448534 0.570307
C11   C     C_R   0.234269 0.530332 0.600602 -0.094794
C12   C     C_R   0.389365 0.500985 0.500863 0.851158
C13   C     C_R   0.293578 0.545349 0.606474 -0.044703
C14   C     C_R   0.326925 0.494827 0.501111 -0.101722
C15   C     C_R   0.300216 0.433756 0.392301 -0.275732
C16   C     C_R   0.241010 0.422859 0.384437 0.026232
C17   C     C_R   0.208096 0.471576 0.490633 0.262856
C18   C     C_R   0.761536 0.470506 0.371854 0.008706
C19   C     C_R   0.702044 0.476067 0.374775 -0.138431
C20   C     C_R   0.672788 0.496271 0.496990 -0.098521
C21   C     C_R   0.703169 0.511215 0.617183 -0.199130
C22   C     C_R   0.762171 0.506678 0.615200 -0.066414
C23   C     C_R   0.494539 0.739127 0.500827 0.894311
C24   C     C_R   0.791322 0.486634 0.493656 0.222550
C25   C     C_R   0.525284 0.113530 0.754427 -0.140208
C26   C     C_R   0.511686 0.053602 0.876557 -0.139698
C27   C     C_R   0.480856 0.940559 0.876343 -0.168085
C28   C     C_R   0.468806 0.881956 0.754008 -0.122171
C29   C     C_R   0.487453 0.936707 0.629480 0.113026
C30   C     C_R   0.507562 0.060851 0.629688 0.119019
C31   C     C_R   0.508088 0.126802 0.504872 -0.110195
C32   C     C_R   0.501860 0.063685 0.382373 -0.206425
C33   C     C_R   0.494083 0.936668 0.382164 -0.178727
C34   C     C_R   0.610622 0.499727 0.499146 0.916191
C35   C     C_R   0.488387 0.872092 0.504571 -0.138828
C36   C     C_R   0.428550 0.328163 0.142745 -0.158690
C37   C     C_R   0.393905 0.242397 0.073963 -0.329617
C38   C     C_R   0.393414 0.242172 0.933531 0.011850
C39   C     C_R   0.428043 0.329663 0.862491 -0.126960
C40   C     C_R   0.465192 0.414561 0.929180 0.110416
C41   C     C_R   0.465421 0.414055 0.073728 0.151928
C42   C     C_R   0.530776 0.587421 0.068063 0.017481
C43   C     C_R   0.530795 0.585737 0.925292 -0.186161
C44   C     C_R   0.882588 0.591868 0.461460 0.482784
C45   C     C_R   0.877379 0.377153 0.528267 0.517784
C46   C     C_R   0.936729 0.371896 0.525696 -0.051657
C47   C     C_R   0.969708 0.480379 0.492461 -0.002857
C48   C     C_R   0.942778 0.594372 0.464213 -0.097271
H1    H     H_    0.678491 0.463512 0.282025 0.211891
H2    H     H_    0.785533 0.519185 0.708187 0.164041
H3    H     H_    0.503088 0.112154 0.285958 0.171021
H4    H     H_    0.523787 0.096532 0.971313 0.144533
H5    H     H_    0.467638 0.896554 0.970897 0.129393
H6    H     H_    0.444152 0.794973 0.758544 0.153148
H7    H     H_    0.062157 0.778582 0.404042 0.221629
H8    H     H_    0.207519 0.569237 0.678894 0.185107
H9    H     H_    0.325769 0.394634 0.311970 0.152771
N1    N     N_R   0.852032 0.485252 0.495104 -0.359597
N2    N     N_R   0.147380 0.470034 0.485166 -0.327357
N3    N     N_R   0.499460 0.498800 0.142780 -0.134153
N4    N     N_R   0.499440 0.498720 0.857170 -0.124302
O1    O     O_R   0.500000 0.316780 0.614690 -0.649498
O2    O     O_2   0.844923 0.274691 0.561458 -0.536451
O3    O     O_2   0.145177 0.266463 0.570668 -0.561876
O4    O     O_2   0.154094 0.678358 0.410390 -0.538204
O5    O     O_R   0.500000 0.316750 0.385360 -0.647114
O6    O     O_R   0.416160 0.499970 0.614690 -0.655909
O7    O     O_R   0.416150 0.499950 0.385360 -0.631502
O8    O     O_R   0.500000 0.683250 0.614640 -0.637290
O9    O     O_R   0.500000 0.683220 0.385310 -0.593744
O10   O     O_R   0.583850 0.500050 0.614640 -0.624668
O11   O     O_R   0.583840 0.500030 0.385310 -0.558755
O12   O     O_2   0.854244 0.692680 0.421633 -0.563957
Zn1   Zn    Zn3+2 0.500000 0.500020 0.653130 0.935947
Zn2   Zn    Zn3+2 0.500000 0.499980 0.346870 0.982702
H10   H     H_    0.937274 0.175586 0.573131 0.221470
H11   H     H_    0.681442 0.526983 0.712558 0.179523
H12   H     H_    0.550630 0.199531 0.759561 0.167830
H13   H     H_    0.493065 0.889196 0.285704 0.158272
C49   C     C_2   0.562422 0.693413 0.129865 0.463331
H14   H     H_    0.558369 0.786381 0.087795 0.012297
O13   O     O_2   0.596484 0.678542 0.219679 -0.524013
C50   C     C_2   0.046151 0.124986 0.558365 0.548036
H15   H     H_    0.083671 0.100097 0.500730 0.132067
O14   O     O_2   0.022672 0.045434 0.630637 -0.564430
H16   H     H_    0.424095 0.326126 0.249796 0.214094
H17   H     H_    0.366571 0.177198 0.131168 0.155993
C51   C     C_2   0.355993 0.150610 0.862275 0.440332
H18   H     H_    0.328859 0.084991 0.919790 0.081425
O15   O     O_2   0.355178 0.146658 0.738968 -0.563010
H19   H     H_    0.424170 0.330617 0.755631 0.236541
H20   H     H_    0.555724 0.655253 0.868103 0.157257
C52   C     C_2   0.953840 0.830780 0.424019 0.546443
H21   H     H_    0.917619 0.857327 0.485286 0.128972
O16   O     O_2   0.976369 0.908949 0.348503 -0.558123
C53   C     C_2   0.318765 0.620916 0.717816 0.441312
H22   H     H_    0.361022 0.664215 0.707439 0.062409
O17   O     O_2   0.291863 0.638010 0.822324 -0.550802
C54   C     C_2   0.215976 0.362467 0.262813 0.473660
H23   H     H_    0.243870 0.320886 0.188338 0.060322
O18   O     O_2   0.164697 0.359262 0.242529 -0.546920
C55   C     C_2   0.792297 0.447408 0.242759 0.477252
H24   H     H_    0.838348 0.440101 0.240673 0.073737
O19   O     O_2   0.766570 0.436004 0.136712 -0.557946

loop_
_geom_bond_atom_site_label_1
_geom_bond_atom_site_label_2
_ccdc_geom_bond_type
C42   C49   S    
C52   H21   S    
C9    O3    S    
C23   O8    A    
C19   C20   A    
C7    H7    S    
C1    O1    A    
C7    C8    A    
C45   C46   A    
C2    C46   A    
O7    Zn2   S    
C12   O7    A    
C28   C29   A    
C26   C27   A    
C29   C30   A    
C50   H15   S    
C18   C24   A    
C36   C37   A    
C30   C31   A    
C15   C16   A    
C1    C31   S    
C18   C19   A    
C18   C55   S    
C47   C48   A    
C44   N1    A    
C16   C17   A    
C53   O17   D    
C22   H2    S    
C20   C34   S    
C52   O16   D    
C21   C22   A    
C15   H9    S    
C23   O9    A    
C36   C41   A    
C55   H24   S    
O11   Zn2   S    
C39   H19   S    
C38   C39   A    
C12   O6    A    
C45   N1    A    
C13   C53   S    
C25   H12   S    
C49   O13   D    
C42   N3    A    
C39   C40   A    
C28   H6    S    
C33   H13   S    
C36   H16   S    
C25   C26   A    
C45   O2    S    
C40   N4    A    
C38   C51   S    
C9    N2    A    
C8    C48   A    
C32   H3    S    
C37   C38   A    
C26   H4    S    
C5    C47   A    
C19   H1    S    
C54   H23   S    
C53   H22   S    
C1    O5    A    
O8    Zn1   S    
O6    Zn1   S    
C51   H18   S    
C55   O19   D    
C17   N2    S    
C40   C41   A    
C54   O18   D    
C12   C14   S    
C23   C35   S    
C3    C50   S    
C22   C24   A    
C42   C43   A    
C3    C4    A    
C34   O11   A    
O9    Zn2   S    
C2    H10   S    
C43   N4    A    
C10   O4    S    
C25   C30   A    
C46   C47   A    
C11   C17   A    
C50   O14   D    
C37   H17   S    
C31   C32   A    
C8    C52   S    
C41   N3    A    
C51   O15   D    
C49   H14   S    
C6    C10   A    
O10   Zn1   S    
C27   H5    S    
C16   C54   S    
C6    C7    A    
N4    Zn1   S    
C29   C35   A    
N3    Zn2   S    
C43   H20   S    
C32   C33   A    
C2    C3    A    
C11   C13   A    
C5    C6    A    
O5    Zn2   S    
C33   C35   A    
C10   N2    A    
C44   O12   S    
C4    C5    A    
C20   C21   A    
C24   N1    S    
C21   H11   S    
C27   C28   A    
C14   C15   A    
O1    Zn1   S    
C4    C9    A    
C13   C14   A    
C34   O10   A    
C11   H8    S    
C44   C48   A    
