data_mof_unit_49579.cif
_audit_creation_date              2012-12-10T17:52:20-0500
_audit_creation_method            fapswitch 2.2
_symmetry_space_group_name_H-M    P1
_symmetry_Int_Tables_number       1
_space_group_crystal_system       triclinic
_cell_length_a                    19.065488
_cell_length_b                    10.719323
_cell_length_c                    9.940149
_cell_angle_alpha                 91.301608
_cell_angle_beta                  91.845657
_cell_angle_gamma                 92.037348
_cell_volume                      2028.54313746

loop_
_atom_site_label
_atom_site_type_symbol
_atom_type_description
_atom_site_fract_x
_atom_site_fract_y
_atom_site_fract_z
_atom_type_partial_charge
C1    C     C_R   0.502264 0.260381 0.499502 0.847153
C2    C     C_R   0.289052 0.484790 0.490275 -0.032973
C3    C     C_R   0.926085 0.437563 0.458149 0.309765
C4    C     C_R   0.067363 0.434740 0.461050 0.268513
C5    C     C_R   0.807436 0.358200 0.518979 0.529796
C6    C     C_R   0.737723 0.382293 0.541493 -0.335856
C7    C     C_R   0.709382 0.493648 0.500116 -0.125328
C8    C     C_R   0.751376 0.584390 0.437267 0.078025
C9    C     C_R   0.822446 0.564676 0.424390 -0.215898
C10   C     C_R   0.850889 0.452446 0.465825 -0.082432
C11   C     C_R   0.606996 0.139713 0.668770 -0.329953
C12   C     C_R   0.365355 0.497941 0.497745 0.842572
C13   C     C_R   0.658564 0.080813 0.744897 0.028138
C14   C     C_R   0.667828 0.952317 0.725325 0.568970
C15   C     C_R   0.617209 0.882085 0.648228 -0.282310
C16   C     C_R   0.561508 0.939955 0.578936 0.010136
C17   C     C_R   0.558623 0.070670 0.582406 0.074193
C18   C     C_R   0.506643 0.127365 0.500419 -0.111143
C19   C     C_R   0.456256 0.054900 0.423721 0.070167
C20   C     C_R   0.457287 0.927880 0.428057 -0.171286
C21   C     C_R   0.508721 0.871133 0.503970 -0.117809
C22   C     C_R   0.399839 0.352798 0.129831 -0.160900
C23   C     C_R   0.504459 0.739027 0.501603 0.869463
C24   C     C_R   0.350086 0.279570 0.055769 -0.197076
C25   C     C_R   0.351452 0.275604 0.916671 -0.194097
C26   C     C_R   0.401828 0.346420 0.851152 -0.120126
C27   C     C_R   0.450406 0.427276 0.922960 0.075054
C28   C     C_R   0.450220 0.428200 0.067206 0.149327
C29   C     C_R   0.548708 0.566095 0.076978 -0.223206
C30   C     C_R   0.551462 0.560496 0.933945 0.506055
C31   C     C_R   0.634194 0.502759 0.501267 0.856286
C32   C     C_R   0.251761 0.452667 0.604407 -0.205158
C33   C     C_R   0.179431 0.432324 0.594088 -0.159692
C34   C     C_R   0.143723 0.445495 0.469912 0.094922
C35   C     C_R   0.181063 0.477610 0.355960 -0.163386
C36   C     C_R   0.253284 0.496735 0.365941 -0.199087
H1    H     H_    0.278362 0.442138 0.701109 0.159604
H2    H     H_    0.605445 0.239466 0.681764 0.187588
H3    H     H_    0.622244 0.781939 0.642983 0.181711
H4    H     H_    0.417276 0.872511 0.371069 0.167861
H5    H     H_    0.588525 0.619888 0.135267 0.160859
H6    H     H_    0.399459 0.344386 0.235859 0.196562
H7    H     H_    0.311851 0.222330 0.106894 0.159372
H8    H     H_    0.314344 0.215097 0.859161 0.149476
H9    H     H_    0.402504 0.331647 0.744989 0.198258
H10   H     H_    0.151413 0.408914 0.683698 0.150088
H11   H     H_    0.154487 0.488172 0.259140 0.150175
H12   H     H_    0.281003 0.520798 0.276150 0.165283
H13   H     H_    0.704569 0.309998 0.582066 0.148142
H14   H     H_    0.855346 0.637056 0.381493 0.178235
N1    N     N_R   0.031780 0.491441 0.360754 -0.179597
N2    N     N_R   0.962256 0.493253 0.359567 -0.187656
N3    N     N_R   0.961444 0.378333 0.556821 -0.123288
N4    N     N_R   0.031049 0.377109 0.558391 -0.181572
N5    N     N_R   0.499340 0.498800 0.142780 -0.140449
N6    N     N_R   0.499320 0.498720 0.857170 -0.162929
O1    O     O_R   0.500000 0.316780 0.614690 -0.648509
O2    O     O_R   0.499990 0.316750 0.385360 -0.629695
O3    O     O_R   0.398140 0.500000 0.614700 -0.631680
O4    O     O_R   0.398130 0.499970 0.385370 -0.638635
O5    O     O_R   0.500010 0.683250 0.614640 -0.579170
O6    O     O_R   0.500000 0.683220 0.385310 -0.613660
O7    O     O_R   0.601870 0.500030 0.614630 -0.597559
O8    O     O_R   0.601860 0.500000 0.385300 -0.618391
Zn1   Zn    Zn3+2 0.500000 0.500020 0.653130 0.963255
Zn2   Zn    Zn3+2 0.500000 0.499980 0.346870 0.929425
N7    N     N_3   0.699859 0.150648 0.845501 -0.455992
H15   H     H_    0.726667 0.223389 0.798598 0.179641
H16   H     H_    0.665690 0.190352 0.913208 0.190671
O9    O     O_3   0.719746 0.889842 0.794443 -0.652692
C37   C     C_3   0.788244 0.935487 0.764531 0.067145
H17   H     H_    0.820746 0.934376 0.859272 0.183185
H18   H     H_    0.791123 0.033045 0.728841 0.173501
C38   C     C_3   0.821034 0.851435 0.658908 -0.402542
H19   H     H_    0.814377 0.752235 0.685564 0.244431
H20   H     H_    0.794469 0.864485 0.559698 0.230264
C39   C     C_3   0.899433 0.881631 0.648041 -0.916346
H21   H     H_    0.909088 0.982295 0.629171 0.275054
H22   H     H_    0.920349 0.825949 0.563726 0.265147
H23   H     H_    0.927872 0.857689 0.742738 0.266526
O10   O     O_3   0.609378 0.611572 0.872847 -0.605273
C40   C     C_3   0.667015 0.534700 0.899949 0.076263
H24   H     H_    0.658426 0.442564 0.846707 0.146227
H25   H     H_    0.675322 0.518545 0.009616 0.115035
C41   C     C_3   0.733946 0.597972 0.851388 -0.289590
H26   H     H_    0.726332 0.619451 0.743553 0.238739
H27   H     H_    0.744430 0.686417 0.909975 0.263102
C42   C     C_3   0.797148 0.515812 0.869791 -0.968059
H28   H     H_    0.806486 0.496495 0.978100 0.269571
H29   H     H_    0.844633 0.564452 0.831648 0.273729
H30   H     H_    0.788447 0.426136 0.812956 0.274925
O11   O     O_3   0.832031 0.241515 0.547564 -0.657385
C43   C     C_3   0.830593 0.167053 0.427633 0.078463
H31   H     H_    0.869705 0.093866 0.441331 0.177518
H32   H     H_    0.847054 0.220160 0.337924 0.127865
C44   C     C_3   0.757903 0.103414 0.400253 -0.392238
H33   H     H_    0.740032 0.057539 0.492623 0.225555
H34   H     H_    0.719281 0.174183 0.371916 0.223054
C45   C     C_3   0.759368 0.005969 0.286166 -0.910016
H35   H     H_    0.775027 0.050728 0.191450 0.269679
H36   H     H_    0.706247 0.961204 0.269916 0.274277
H37   H     H_    0.796945 0.932610 0.311758 0.268465
N8    N     N_3   0.723100 0.696162 0.384968 -0.473525
H38   H     H_    0.696065 0.740607 0.460898 0.162045
H39   H     H_    0.687345 0.671729 0.306160 0.203668
N9    N     N_3   0.402463 0.107256 0.341522 -0.465992
H40   H     H_    0.426611 0.143758 0.257759 0.211237
H41   H     H_    0.378018 0.177164 0.395869 0.170738

loop_
_geom_bond_atom_site_label_1
_geom_bond_atom_site_label_2
_ccdc_geom_bond_type
O7    Zn1   S    
C16   C21   A    
C11   C13   A    
C35   C36   A    
C2    C12   S    
O10   C40   S    
C7    C8    A    
C39   H21   S    
C26   C27   A    
C43   H31   S    
C38   H20   S    
C18   C19   A    
C5    C6    A    
C20   H4    S    
C41   C42   S    
N9    H40   S    
C15   C16   A    
C44   C45   S    
C2    C32   A    
C34   C35   A    
C26   H9    S    
C12   O3    A    
O2    Zn2   S    
C23   O6    A    
C19   C20   A    
C8    C9    A    
C38   C39   S    
C44   H34   S    
O9    C37   S    
C9    C10   A    
C29   H5    S    
C39   H22   S    
C35   H11   S    
C43   H32   S    
C22   C28   A    
C13   C14   A    
C33   H10   S    
C14   O9    S    
C25   H8    S    
C28   N5    A    
C33   C34   A    
C41   H27   S    
C4    C34   S    
C7    C31   S    
C38   H19   S    
O6    Zn2   S    
C4    N1    A    
N7    H15   S    
C31   O7    A    
C24   C25   A    
C37   H18   S    
C27   N6    A    
C16   C17   A    
C29   N5    A    
C25   C26   A    
C41   H26   S    
C30   N6    A    
N1    N2    A    
N7    H16   S    
O8    Zn2   S    
C11   H2    S    
C29   C30   A    
C1    O1    A    
C45   H35   S    
C42   H30   S    
C44   H33   S    
C17   C18   A    
C1    C18   S    
N8    H39   S    
C32   H1    S    
C20   C21   A    
C15   H3    S    
C45   H36   S    
C42   H29   S    
C43   C44   S    
C40   H25   S    
C21   C23   S    
C22   C24   A    
N8    H38   S    
N5    Zn2   S    
C13   N7    S    
C39   H23   S    
C2    C36   A    
C11   C17   A    
C4    N4    A    
C31   O8    A    
C9    H14   S    
O1    Zn1   S    
C37   C38   S    
C3    N2    A    
N3    N4    A    
C6    C7    A    
C40   C41   S    
C32   C33   A    
C30   O10   S    
C5    C10   A    
C3    C10   S    
C1    O2    A    
O3    Zn1   S    
C3    N3    A    
C22   H6    S    
N9    H41   S    
O11   C43   S    
C36   H12   S    
C6    H13   S    
C8    N8    S    
C5    O11   S    
O4    Zn2   S    
C12   O4    A    
C19   N9    S    
O5    Zn1   S    
C23   O5    A    
C45   H37   S    
C37   H17   S    
C42   H28   S    
C40   H24   S    
C27   C28   A    
C24   H7    S    
C14   C15   A    
N6    Zn1   S    
