data_mof_unit_68400.cif
_audit_creation_date              2012-12-10T17:49:37-0500
_audit_creation_method            fapswitch 2.2
_symmetry_space_group_name_H-M    P1
_symmetry_Int_Tables_number       1
_space_group_crystal_system       triclinic
_cell_length_a                    10.788288
_cell_length_b                    10.719038
_cell_length_c                    10.299986
_cell_angle_alpha                 89.54016
_cell_angle_beta                  92.074569
_cell_angle_gamma                 87.45209
_cell_volume                      1189.0782826

loop_
_atom_site_label
_atom_site_type_symbol
_atom_type_description
_atom_site_fract_x
_atom_site_fract_y
_atom_site_fract_z
_atom_type_partial_charge
Br1   Br    Br    0.133939 0.643489 0.069528 -0.339229
Br2   Br    Br    0.289064 0.277211 0.754000 -0.453447
Br3   Br    Br    0.911632 0.774272 0.658914 -0.296184
Br4   Br    Br    0.109906 0.788871 0.392621 -0.310145
Br5   Br    Br    0.624359 0.941263 0.964349 -0.333053
C1    C     C_R   0.511981 0.259694 0.502749 0.923335
C2    C     C_R   0.502010 0.056118 0.628417 -0.034013
C3    C     C_R   0.527018 0.122217 0.512129 -0.165781
C4    C     C_R   0.257353 0.503937 0.497199 0.969069
C5    C     C_R   0.532266 0.056773 0.395874 0.139914
C6    C     C_R   0.484363 0.939778 0.386350 0.173807
C7    C     C_R   0.458573 0.874346 0.498520 -0.141869
C8    C     C_R   0.294627 0.438942 0.130627 0.183214
C9    C     C_R   0.182602 0.470309 0.066544 0.177868
C10   C     C_R   0.174554 0.421770 0.943239 0.077858
C11   C     C_R   0.284369 0.414803 0.870813 0.228961
C12   C     C_3   0.946179 0.557557 0.374745 0.133726
C13   C     C_R   0.394435 0.468883 0.926595 0.025208
C14   C     C_R   0.394425 0.482121 0.068575 -0.005167
C15   C     C_R   0.604340 0.500823 0.073277 0.212124
C16   C     C_R   0.483833 0.738840 0.499192 0.883011
C17   C     C_R   0.600873 0.523023 0.936117 0.201702
C18   C     C_R   0.739747 0.515055 0.500985 0.934996
C19   C     C_3   0.045373 0.501903 0.613664 -0.227932
C20   C     C_3   0.958196 0.418985 0.533672 0.142358
C21   C     C_3   0.874544 0.534239 0.498996 -0.279733
C22   C     C_3   0.961841 0.618741 0.575748 0.260097
C23   C     C_3   0.030301 0.439078 0.409264 0.102971
C24   C     C_3   0.038872 0.635357 0.454312 0.230720
C25   C     C_3   0.119555 0.517668 0.490655 -0.238183
C26   C     C_R   0.535863 0.092914 0.757615 0.206512
C27   C     C_R   0.493347 0.025326 0.862407 0.188478
C28   C     C_R   0.389897 0.955033 0.840302 0.143227
C29   C     C_R   0.379180 0.895603 0.721569 0.157841
C30   C     C_R   0.447357 0.938990 0.616132 -0.050515
H1    H     H_    0.085120 0.485031 0.711878 0.221552
I1    I     I_    0.907773 0.233443 0.582334 -0.093269
I2    I     I_    0.054421 0.279443 0.289723 -0.112657
I3    I     I_    0.678146 0.090708 0.272881 -0.069054
I4    I     I_    0.676638 0.215889 0.812606 -0.111664
I5    I     I_    0.224984 0.994137 0.944062 0.006984
I6    I     I_    0.242818 0.761516 0.708617 -0.160197
I7    I     I_    0.423509 0.875345 0.202535 -0.095638
I8    I     I_    0.752845 0.380014 0.135253 -0.115268
I9    I     I_    0.343190 0.244394 0.156776 -0.186353
I10   I     I_    0.017990 0.313000 0.911462 -0.089689
I11   I     I_    0.760910 0.598776 0.868351 -0.072418
I12   I     I_    0.853579 0.675370 0.225910 -0.048315
N1    N     N_R   0.498800 0.498800 0.142780 -0.138047
N2    N     N_R   0.498760 0.498720 0.857170 -0.133431
O1    O     O_R   0.500000 0.316780 0.614690 -0.578081
O2    O     O_R   0.499990 0.316750 0.385360 -0.584775
O3    O     O_R   0.313960 0.499980 0.614650 -0.592163
O4    O     O_R   0.313940 0.499960 0.385310 -0.607919
O5    O     O_R   0.500010 0.683250 0.614640 -0.602288
O6    O     O_R   0.500000 0.683220 0.385310 -0.588511
O7    O     O_R   0.686060 0.500040 0.614690 -0.582486
O8    O     O_R   0.686040 0.500020 0.385350 -0.597523
Zn1   Zn    Zn3+2 0.500010 0.500020 0.653130 1.051713
Zn2   Zn    Zn3+2 0.499990 0.499980 0.346870 1.057748

loop_
_geom_bond_atom_site_label_1
_geom_bond_atom_site_label_2
_ccdc_geom_bond_type
C16   O6    A    
C6    C7    A    
C12   I12   S    
C6    I7    S    
C24   C25   S    
C4    O4    A    
O5    Zn1   S    
C1    O1    A    
C22   C24   S    
Br2   C11   S    
C14   N1    A    
Br4   C24   S    
C29   I6    S    
C19   C22   S    
C23   I2    S    
C19   H1    S    
C17   N2    A    
Br5   C27   S    
C28   I5    S    
C27   C28   A    
Br3   C22   S    
C17   I11   S    
O3    Zn1   S    
C2    C3    A    
O4    Zn2   S    
C8    C9    A    
C19   C20   S    
C20   C23   S    
C8    I9    S    
C21   C22   S    
C15   N1    A    
N1    Zn2   S    
C4    C25   S    
C18   O7    A    
N2    Zn1   S    
C23   C25   S    
C15   I8    S    
C2    C26   A    
C15   C17   A    
C28   C29   A    
C18   O8    A    
C12   C24   S    
C19   C25   S    
O7    Zn1   S    
C4    O3    A    
C5    C6    A    
C12   C21   S    
O8    Zn2   S    
C10   C11   A    
O6    Zn2   S    
O1    Zn1   S    
C26   I4    S    
C13   N2    A    
C11   C13   A    
C29   C30   A    
C18   C21   S    
C16   O5    A    
C8    C14   A    
C9    C10   A    
C13   C14   A    
C1    C3    S    
Br1   C9    S    
O2    Zn2   S    
C10   I10   S    
C1    O2    A    
C20   C21   S    
C12   C23   S    
C2    C30   A    
C7    C16   S    
C3    C5    A    
C26   C27   A    
C20   I1    S    
C5    I3    S    
C7    C30   A    
