data_mof_unit_39139.cif
_audit_creation_date              2012-12-10T19:07:04-0500
_audit_creation_method            fapswitch 2.2
_symmetry_space_group_name_H-M    P1
_symmetry_Int_Tables_number       1
_space_group_crystal_system       triclinic
_cell_length_a                    27.808613
_cell_length_b                    10.821856
_cell_length_c                    9.530866
_cell_angle_alpha                 89.861237
_cell_angle_beta                  90.034218
_cell_angle_gamma                 90.345476
_cell_volume                      2868.16545206

loop_
_atom_site_label
_atom_site_type_symbol
_atom_type_description
_atom_site_fract_x
_atom_site_fract_y
_atom_site_fract_z
_atom_type_partial_charge
C1    C     C_R   0.500530 0.262340 0.500126 0.803353
C2    C     C_R   0.278868 0.472879 0.620440 -0.100915
C3    C     C_R   0.253663 0.513379 0.502059 0.296571
C4    C     C_R   0.101872 0.511131 0.501565 -0.044750
C5    C     C_R   0.127526 0.399350 0.500457 -0.024899
C6    C     C_R   0.102416 0.287295 0.499420 -0.144983
C7    C     C_R   0.127494 0.623773 0.503019 -0.021905
C8    C     C_R   0.354571 0.507815 0.499427 -0.142768
C9    C     C_R   0.645516 0.501412 0.499989 -0.037245
C10   C     C_R   0.974451 0.395306 0.487940 0.043044
C11   C     C_R   0.974354 0.622510 0.513131 0.043049
C12   C     C_R   0.407487 0.501988 0.499801 0.818674
C13   C     C_R   0.949150 0.508451 0.500365 0.067836
C14   C     C_R   0.947554 0.285260 0.467800 -0.204935
C15   C     C_R   0.897626 0.285794 0.465460 -0.144602
C16   C     C_R   0.872433 0.395854 0.482684 -0.021377
C17   C     C_R   0.898011 0.507508 0.500040 -0.043906
C18   C     C_R   0.872311 0.618204 0.517104 -0.021074
C19   C     C_R   0.821825 0.615110 0.517072 0.534578
C20   C     C_R   0.821956 0.397013 0.482352 0.535275
C21   C     C_R   0.721253 0.510899 0.626658 -0.103668
C22   C     C_R   0.671113 0.509032 0.626991 -0.214809
C23   C     C_R   0.500298 0.737747 0.499883 0.795994
C24   C     C_R   0.671021 0.495268 0.372843 -0.216884
C25   C     C_R   0.721163 0.496504 0.372925 -0.103563
C26   C     C_R   0.746356 0.504495 0.499730 0.364289
C27   C     C_R   0.025513 0.395781 0.494920 0.043525
C28   C     C_R   0.050730 0.510254 0.501169 0.068466
C29   C     C_R   0.025440 0.623845 0.507018 0.043367
C30   C     C_R   0.052493 0.285255 0.496971 -0.203691
C31   C     C_R   0.102321 0.734966 0.503773 -0.145086
C32   C     C_R   0.947334 0.731592 0.532718 -0.204904
C33   C     C_R   0.897395 0.729213 0.534469 -0.144607
C34   C     C_R   0.592557 0.500308 0.500038 0.802600
C35   C     C_R   0.052378 0.735295 0.505514 -0.204163
C36   C     C_R   0.501650 0.063450 0.626184 0.138850
C37   C     C_R   0.504427 0.129321 0.500405 -0.097386
C38   C     C_R   0.512783 0.064996 0.374991 -0.207870
C39   C     C_R   0.512396 0.936350 0.374833 -0.212923
C40   C     C_R   0.503908 0.871038 0.500072 -0.097795
C41   C     C_R   0.501386 0.936168 0.626092 0.123917
C42   C     C_3   0.464263 0.929665 0.739345 -0.468145
C43   C     C_3   0.464724 0.069875 0.739617 -0.468008
C44   C     C_R   0.539676 0.538497 0.073564 0.252763
C45   C     C_R   0.177998 0.402231 0.500922 0.544211
C46   C     C_R   0.462885 0.449632 0.074509 -0.065785
C47   C     C_R   0.462882 0.449645 0.925605 -0.079993
C48   C     C_R   0.539731 0.538197 0.926163 0.258471
C49   C     C_3   0.563233 0.662136 0.919305 -0.495447
C50   C     C_3   0.562854 0.662929 0.078608 -0.502607
C51   C     C_R   0.177990 0.622542 0.503085 0.540689
C52   C     C_R   0.278810 0.552836 0.382806 -0.188433
C53   C     C_R   0.329109 0.552152 0.381091 0.398162
C54   C     C_R   0.328939 0.470237 0.619307 -0.287020
Cu1   Cu    Cu3+1 0.500000 0.499980 0.640670 0.941881
Cu2   Cu    Cu3+1 0.500000 0.500020 0.359330 0.949735
H1    H     H_    0.347595 0.437010 0.711651 0.172819
H2    H     H_    0.259251 0.583853 0.291066 0.157333
H3    H     H_    0.121166 0.822895 0.502913 0.186486
H4    H     H_    0.963606 0.820771 0.549927 0.136870
H5    H     H_    0.652301 0.489227 0.273400 0.153110
H6    H     H_    0.878480 0.815389 0.549648 0.187778
H7    H     H_    0.740502 0.491543 0.274540 0.136491
H8    H     H_    0.036040 0.825186 0.502852 0.135452
H9    H     H_    0.517522 0.113444 0.276336 0.167101
H10   H     H_    0.516707 0.888894 0.276103 0.155298
H11   H     H_    0.429642 0.889164 0.702542 0.200260
H12   H     H_    0.259547 0.442628 0.713084 0.155270
H13   H     H_    0.478502 0.889236 0.838116 0.195291
H14   H     H_    0.430339 0.111087 0.703254 0.197811
H15   H     H_    0.479561 0.109931 0.837963 0.200424
H16   H     H_    0.432500 0.410587 0.130111 0.171014
H17   H     H_    0.432526 0.410425 0.870130 0.142234
H18   H     H_    0.600042 0.657686 0.874391 0.194836
H19   H     H_    0.539762 0.733662 0.872042 0.214903
H20   H     H_    0.599428 0.659844 0.125532 0.199047
H21   H     H_    0.538746 0.734260 0.122601 0.205077
H22   H     H_    0.121296 0.200001 0.500605 0.186431
H23   H     H_    0.652475 0.513707 0.726512 0.150767
H24   H     H_    0.740661 0.516849 0.724965 0.136278
H25   H     H_    0.878807 0.198930 0.449968 0.187722
H26   H     H_    0.963916 0.196704 0.450598 0.136854
H27   H     H_    0.036202 0.194802 0.499549 0.135370
N1    N     N_R   0.202096 0.512769 0.502182 -0.456232
N2    N     N_R   0.797849 0.505591 0.499659 -0.470738
N3    N     N_R   0.500300 0.500930 0.147930 -0.196065
N4    N     N_R   0.500310 0.500890 0.852020 -0.186173
O1    O     O_R   0.500000 0.319640 0.618810 -0.577588
O2    O     O_2   0.797116 0.290524 0.465690 -0.530171
O3    O     O_2   0.202826 0.730065 0.505119 -0.543151
O4    O     O_2   0.796856 0.720634 0.533566 -0.531182
O5    O     O_R   0.500010 0.319680 0.381230 -0.586796
O6    O     O_R   0.430260 0.500000 0.618780 -0.596114
O7    O     O_R   0.430270 0.500040 0.381190 -0.540488
O8    O     O_R   0.499990 0.680320 0.618770 -0.577952
O9    O     O_R   0.500000 0.680360 0.381190 -0.590114
O10   O     O_R   0.569730 0.499960 0.618810 -0.582969
O11   O     O_R   0.569740 0.500000 0.381220 -0.583697
O12   O     O_2   0.202836 0.295473 0.498904 -0.534140
O13   O     O_3   0.352952 0.589948 0.261049 -0.575155
C55   C     C_3   0.362188 0.718126 0.270639 0.095203
H28   H     H_    0.380952 0.742249 0.370493 0.124603
H29   H     H_    0.327963 0.770701 0.263590 0.154602
C56   C     C_3   0.394579 0.757526 0.149677 -0.758521
H30   H     H_    0.377081 0.735553 0.047889 0.246053
H31   H     H_    0.401519 0.858576 0.154955 0.194637
H32   H     H_    0.429470 0.708469 0.156133 0.260668

loop_
_geom_bond_atom_site_label_1
_geom_bond_atom_site_label_2
_ccdc_geom_bond_type
C10   C27   A    
Cu1   Cu2   S    
C55   H28   S    
C41   C42   S    
Cu2   O11   S    
C21   C26   A    
C56   H31   S    
C15   H25   S    
Cu2   O7    S    
C28   C29   A    
C24   H5    S    
C36   C37   A    
C22   H23   S    
C2    H12   S    
C51   O3    S    
C5    C6    A    
C9    C22   A    
C6    H22   S    
C42   H11   S    
C23   C40   S    
C30   H27   S    
C34   O10   A    
C23   O9    A    
C18   C19   A    
C25   H7    S    
C31   H3    S    
Cu1   O1    S    
C33   H6    S    
C49   H19   S    
C35   H8    S    
C46   H16   S    
C16   C20   A    
C1    O1    A    
C55   H29   S    
C21   C22   A    
C27   C30   A    
C12   O7    A    
C36   C41   A    
C4    C7    A    
C44   N3    A    
C56   H30   S    
C4    C28   A    
C53   O13   S    
C7    C31   A    
C24   C25   A    
C47   H17   S    
Cu1   O8    S    
C45   O12   S    
C8    C54   A    
C39   C40   A    
C16   C17   A    
C25   C26   A    
C5    C45   A    
C42   H13   S    
C47   N4    A    
C37   C38   A    
C50   H20   S    
Cu2   N3    S    
C38   H9    S    
C8    C12   S    
C20   N2    A    
Cu1   O10   S    
C17   C18   A    
C48   N4    A    
C52   H2    S    
C48   C49   S    
C6    C30   A    
C11   C32   A    
C1    O5    A    
C2    C54   A    
C9    C34   S    
C39   H10   S    
C31   C35   A    
C12   O6    A    
C45   N1    A    
C42   C43   S    
C14   H26   S    
C50   H21   S    
C3    N1    S    
C52   C53   A    
C44   C50   S    
Cu2   O9    S    
C46   C47   A    
C40   C41   A    
C43   H15   S    
C14   C15   A    
C4    C5    A    
C19   N2    A    
C10   C13   A    
C8    C53   A    
C3    C52   A    
C9    C24   A    
C1    C37   S    
C43   H14   S    
C20   O2    S    
C29   C35   A    
C13   C17   A    
C32   C33   A    
C2    C3    A    
C7    C51   A    
C11   C13   A    
C38   C39   A    
C26   N2    S    
C51   N1    A    
C21   H24   S    
O13   C55   S    
C34   O11   A    
C23   O8    A    
Cu1   N4    S    
C18   C33   A    
C19   O4    S    
C44   C48   A    
Cu2   O5    S    
C11   C29   A    
C49   C50   S    
C27   C28   A    
C32   H4    S    
C49   H18   S    
C36   C43   S    
C55   C56   S    
Cu1   O6    S    
C56   H32   S    
C15   C16   A    
C10   C14   A    
C46   N3    A    
C54   H1    S    
