data_mof_unit_46932.cif
_audit_creation_date              2012-12-10T18:55:19-0500
_audit_creation_method            fapswitch 2.2
_symmetry_space_group_name_H-M    P1
_symmetry_Int_Tables_number       1
_space_group_crystal_system       triclinic
_cell_length_a                    10.665292
_cell_length_b                    9.945283
_cell_length_c                    27.419102
_cell_angle_alpha                 90.925084
_cell_angle_beta                  93.217841
_cell_angle_gamma                 89.952864
_cell_volume                      2903.36230718

loop_
_atom_site_label
_atom_site_type_symbol
_atom_type_description
_atom_site_fract_x
_atom_site_fract_y
_atom_site_fract_z
_atom_type_partial_charge
C1    C     C_R   0.260807 0.500306 0.500095 0.871769
C2    C     C_R   0.456483 0.543183 0.878968 -0.096079
C3    C     C_R   0.506402 0.495617 0.352637 -0.198329
C4    C     C_R   0.508619 0.505884 0.648667 -0.218005
C5    C     C_R   0.467268 0.492732 0.979241 0.003403
C6    C     C_R   0.698625 0.488840 0.033063 0.002023
C7    C     C_R   0.696663 0.486713 0.980964 -0.029691
C8    C     C_R   0.474293 0.435158 0.026048 -0.023337
C9    C     C_R   0.579517 0.501263 0.954713 0.014857
C10   C     C_R   0.587694 0.448445 0.054620 0.017832
C11   C     C_R   0.353969 0.541505 0.956387 -0.123590
C12   C     C_R   0.739271 0.499768 0.500919 0.884220
C13   C     C_R   0.804315 0.528921 0.064133 -0.122352
C14   C     C_R   0.349727 0.569216 0.905889 0.472954
C15   C     C_R   0.802181 0.509493 0.115389 0.473298
C16   C     C_R   0.500236 0.499055 0.405908 1.045390
C17   C     C_R   0.500687 0.501246 0.594473 1.017264
C18   C     C_R   0.376618 0.355657 0.043230 0.285191
C19   C     C_R   0.803532 0.456395 0.954577 0.289432
C20   C     C_R   0.058384 0.465682 0.457245 -0.041856
C21   C     C_R   0.941414 0.537365 0.544359 -0.021651
C22   C     C_R   0.928262 0.458441 0.458003 -0.089998
C23   C     C_R   0.589861 0.418973 0.104378 -0.223347
C24   C     C_R   0.072177 0.539366 0.543974 -0.102448
C25   C     C_R   0.872101 0.498330 0.501169 -0.102204
C26   C     C_R   0.127951 0.501684 0.500505 -0.104680
C27   C     C_R   0.584752 0.073259 0.529568 0.014519
C28   C     C_R   0.415579 0.926300 0.470416 -0.001014
C29   C     C_R   0.419321 0.070136 0.468704 0.002716
C30   C     C_R   0.579609 0.929476 0.531698 0.020724
C31   C     C_R   0.491233 0.332209 0.173886 0.695582
C32   C     C_R   0.671797 0.509552 0.826314 0.698817
C33   C     C_R   0.687944 0.431753 0.185714 0.674142
C34   C     C_R   0.573268 0.515626 0.903759 -0.209916
C35   C     C_R   0.450768 0.546981 0.827777 0.668778
C36   C     C_R   0.612985 0.552843 0.279514 0.357942
C37   C     C_R   0.519702 0.639104 0.724513 0.342992
C38   C     C_R   0.592829 0.576266 0.329733 0.207096
C39   C     C_R   0.491571 0.629934 0.673634 0.261801
C40   C     C_R   0.421343 0.416103 0.324309 0.270699
C41   C     C_R   0.538871 0.388740 0.675581 0.284145
C42   C     C_R   0.427505 0.414032 0.273205 0.336000
C43   C     C_R   0.549381 0.396449 0.727140 0.325384
C44   C     C_R   0.540703 0.452914 0.252693 0.055089
C45   C     C_R   0.486196 0.354877 0.123611 -0.124024
C46   C     C_R   0.545072 0.521978 0.750715 0.117586
C47   C     C_2   0.689658 0.146925 0.555689 0.564600
C48   C     C_2   0.312582 0.851486 0.443740 0.592604
C49   C     C_2   0.344407 0.140058 0.429670 0.536334
C50   C     C_2   0.651210 0.858819 0.571525 0.578682
C51   C     C_2   0.245448 0.574426 0.986261 0.534356
C52   C     C_2   0.909271 0.605412 0.044193 0.548634
C53   C     C_2   0.121130 0.449079 0.410567 0.467255
C54   C     C_2   0.877536 0.566507 0.590316 0.408230
C55   C     C_2   0.848877 0.417355 0.413647 0.458380
C56   C     C_R   0.683040 0.500786 0.877658 -0.120267
C57   C     C_2   0.152723 0.572160 0.588869 0.484368
C58   C     C_R   0.380392 0.319263 0.093006 0.392309
C59   C     C_R   0.798968 0.472387 0.903129 0.381665
C60   C     C_R   0.696590 0.449661 0.135045 -0.097338
H1    H     H_    0.293081 0.277651 0.323965 0.385455
H2    H     H_    0.980032 0.482511 0.899024 0.391014
H3    H     H_    0.398505 0.798244 0.670139 0.376858
H4    H     H_    0.673727 0.750961 0.336061 0.371824
H5    H     H_    0.542056 0.832907 0.727395 0.368858
H6    H     H_    0.766579 0.656257 0.277929 0.376452
H7    H     H_    0.212428 0.696372 0.903722 0.351179
H8    H     H_    0.919322 0.648503 0.137485 0.354667
H9    H     H_    0.261521 0.602367 0.024526 0.089313
H10   H     H_    0.891932 0.667599 0.012359 0.065194
H11   H     H_    0.252004 0.220587 0.022141 0.357681
H12   H     H_    0.619614 0.214193 0.670663 0.372504
H13   H     H_    0.950116 0.338758 0.955495 0.377040
H14   H     H_    0.106462 0.359340 0.388087 0.160280
H15   H     H_    0.902285 0.654480 0.612562 0.158284
H16   H     H_    0.757980 0.463199 0.406507 0.084834
H17   H     H_    0.237679 0.514983 0.596964 0.046542
H18   H     H_    0.676099 0.244514 0.571882 0.171984
H19   H     H_    0.330767 0.762255 0.422589 0.133006
H20   H     H_    0.310654 0.240412 0.434735 0.129847
H21   H     H_    0.688287 0.759828 0.566195 0.089115
H22   H     H_    0.244782 0.409640 0.262595 0.374573
H23   H     H_    0.524395 0.205754 0.737638 0.364726
H24   H     H_    0.201142 0.283825 0.093864 0.366127
N1    N     N_R   0.573416 0.405295 0.203936 -0.346951
N2    N     N_R   0.556877 0.528791 0.802944 -0.325039
N3    N     N_R   0.500000 0.857200 0.500000 -0.184569
N4    N     N_R   0.500000 0.142800 0.500000 -0.186968
O1    O     O_R   0.316770 0.614620 0.500000 -0.614602
O2    O     O_2   0.773645 0.496971 0.799556 -0.418303
O3    O     O_2   0.339736 0.564439 0.802543 -0.427906
O4    O     O_2   0.792360 0.433948 0.215802 -0.423845
O5    O     O_3   0.329009 0.347584 0.346816 -0.742437
O6    O     O_3   0.558282 0.268858 0.651065 -0.734936
O7    O     O_2   0.795527 0.099700 0.558149 -0.542049
O8    O     O_2   0.204004 0.889373 0.445731 -0.525034
O9    O     O_2   0.322115 0.085921 0.389837 -0.548414
O10   O     O_2   0.666418 0.910354 0.612162 -0.540719
O11   O     O_3   0.319831 0.395499 0.243391 -0.665467
O12   O     O_R   0.683230 0.385380 0.500000 -0.641210
O13   O     O_3   0.562685 0.283730 0.755775 -0.714817
O14   O     O_3   0.278923 0.259121 0.113107 -0.665066
O15   O     O_3   0.905929 0.458432 0.877303 -0.654133
O16   O     O_3   0.444853 0.739229 0.647937 -0.692994
O17   O     O_3   0.657344 0.674070 0.357273 -0.742194
O18   O     O_3   0.521972 0.760176 0.749952 -0.711430
O19   O     O_3   0.693375 0.633924 0.255428 -0.702531
O20   O     O_3   0.244140 0.623974 0.882463 -0.647050
O21   O     O_3   0.898042 0.556091 0.147135 -0.640225
O22   O     O_2   0.137619 0.566182 0.969154 -0.530413
O23   O     O_R   0.683230 0.614620 0.500000 -0.647495
O24   O     O_2   0.016386 0.596549 0.062044 -0.516171
O25   O     O_3   0.285505 0.305727 0.009884 -0.727744
O26   O     O_3   0.904871 0.395188 0.978857 -0.709933
O27   O     O_2   0.188552 0.538077 0.396613 -0.553256
O28   O     O_2   0.797043 0.490862 0.603972 -0.590812
O29   O     O_2   0.881401 0.328304 0.385952 -0.550522
O30   O     O_2   0.128286 0.666000 0.615932 -0.532307
O31   O     O_R   0.316770 0.385380 0.500000 -0.663541
O32   O     O_R   0.500030 0.614650 0.428760 -0.608636
O33   O     O_R   0.499970 0.385350 0.571240 -0.596420
O34   O     O_R   0.499970 0.614650 0.571240 -0.594522
O35   O     O_R   0.500030 0.385350 0.428760 -0.632101
O36   O     O_2   0.423552 0.231624 0.191670 -0.402587
Zn1   Zn    Zn3+2 0.500000 0.653120 0.500000 0.995906
Zn2   Zn    Zn3+2 0.500000 0.346880 0.500000 0.973151

loop_
_geom_bond_atom_site_label_1
_geom_bond_atom_site_label_2
_ccdc_geom_bond_type
C2    C35   A    
C34   C56   A    
C23   C45   A    
H24   O14   S    
C15   C60   A    
C15   O21   S    
C53   H14   S    
C40   O5    S    
C39   O16   S    
O1    Zn1   S    
O12   Zn2   S    
C48   H19   S    
C28   C29   A    
C16   O35   A    
C24   C26   A    
C31   O36   S    
C5    C11   A    
C16   O32   A    
C1    O31   A    
C21   C54   S    
C35   N2    A    
H1    O5    S    
H7    O20   S    
C4    C41   A    
C52   O24   D    
H11   O25   S    
H22   O11   S    
C31   N1    A    
C33   N1    A    
C29   N4    A    
N4    Zn2   S    
C18   C58   A    
C32   O2    S    
C3    C38   A    
C24   C57   S    
C22   C25   A    
C54   O28   D    
O23   Zn1   S    
C58   O14   S    
C48   O8    D    
H6    O19   S    
H12   O6    S    
C2    C34   A    
C40   C42   A    
C30   C50   S    
C36   O19   S    
C41   C43   A    
C42   C44   A    
C18   O25   S    
C23   C60   A    
C45   C58   A    
C50   O10   D    
C57   H17   S    
H4    O17   S    
C52   H10   S    
C33   O4    S    
C27   C30   A    
O32   Zn1   S    
C20   C53   S    
O35   Zn2   S    
C29   C49   S    
C19   O26   S    
C19   C59   A    
C8    C18   A    
H13   O26   S    
C43   O13   S    
C5    C9    A    
C13   C52   S    
C41   O6    S    
C4    C39   A    
C32   N2    A    
C28   N3    A    
C6    C7    A    
C55   H16   S    
C17   O33   A    
C20   C22   A    
C3    C40   A    
C51   O22   D    
C7    C19   A    
C13   C15   A    
C9    C34   A    
C36   C44   A    
C4    C17   S    
C44   N1    S    
H5    O18   S    
N3    Zn1   S    
H2    O15   S    
C55   O29   D    
C27   C47   S    
C7    C9    A    
C21   C25   A    
C28   C48   S    
C1    O1    A    
H23   O13   S    
H3    O16   S    
C6    C10   A    
C5    C8    A    
C49   H20   S    
C22   C55   S    
C10   C23   A    
C33   C60   A    
C56   C59   A    
C12   C25   S    
C59   O15   S    
C38   O17   S    
C36   C38   A    
C30   N3    A    
C37   O18   S    
C37   C39   A    
C42   O11   S    
C6    C13   A    
C1    C26   S    
C20   C26   A    
O34   Zn1   S    
C14   O20   S    
C11   C14   A    
H8    O21   S    
C27   N4    A    
C2    C14   A    
C43   C46   A    
C12   O12   A    
C11   C51   S    
C49   O9    D    
C54   H15   S    
O31   Zn2   S    
C17   O34   A    
O33   Zn2   S    
C8    C10   A    
C31   C45   A    
C21   C24   A    
C47   O7    D    
C51   H9    S    
C47   H18   S    
C37   C46   A    
C32   C56   A    
C12   O23   A    
C3    C16   S    
C53   O27   D    
C50   H21   S    
C57   O30   D    
C46   N2    S    
C35   O3    S    
