data_mof_unit_49303.cif
_audit_creation_date              2012-12-10T18:23:05-0500
_audit_creation_method            fapswitch 2.2
_symmetry_space_group_name_H-M    P1
_symmetry_Int_Tables_number       1
_space_group_crystal_system       triclinic
_cell_length_a                    15.004204
_cell_length_b                    14.015501
_cell_length_c                    10.515239
_cell_angle_alpha                 90.470821
_cell_angle_beta                  90.101247
_cell_angle_gamma                 89.919106
_cell_volume                      2211.18444197

loop_
_atom_site_label
_atom_site_type_symbol
_atom_type_description
_atom_site_fract_x
_atom_site_fract_y
_atom_site_fract_z
_atom_type_partial_charge
C1    C     C_R   0.326500 0.500059 0.500464 0.897862
C2    C     C_R   0.673500 0.499940 0.499536 0.897862
C3    C     C_R   0.953635 0.499941 0.499587 0.061530
C4    C     C_R   0.046364 0.500059 0.500413 0.061530
C5    C     C_R   0.907420 0.413838 0.520034 0.119058
C6    C     C_R   0.092580 0.586162 0.479966 0.119058
C7    C     C_R   0.953411 0.671080 0.458007 -0.209407
C8    C     C_R   0.046589 0.328919 0.541993 -0.209407
C9    C     C_R   0.046013 0.671202 0.458847 -0.216362
C10   C     C_R   0.953987 0.328798 0.541153 -0.216362
C11   C     C_R   0.555738 0.797563 0.419842 -0.058759
C12   C     C_R   0.444262 0.202437 0.580158 -0.058759
C13   C     C_R   0.444289 0.798726 0.580180 -0.066508
C14   C     C_R   0.555710 0.201274 0.419820 -0.066508
C15   C     C_R   0.442947 0.899400 0.582118 0.015907
C16   C     C_R   0.557053 0.100600 0.417882 0.015907
C17   C     C_R   0.557070 0.898207 0.417896 0.013163
C18   C     C_R   0.442930 0.101793 0.582104 0.013163
C19   C     C_R   0.500004 0.949390 0.500002 0.086080
C20   C     C_R   0.499996 0.050610 0.499998 0.086080
C21   C     C_R   0.386204 0.951043 0.663781 -0.208209
C22   C     C_R   0.613796 0.048957 0.336219 -0.208209
C23   C     C_R   0.613807 0.948662 0.336229 -0.204979
C24   C     C_R   0.386193 0.051338 0.663771 -0.204979
C25   C     C_R   0.499670 0.499566 0.257277 0.886178
C26   C     C_R   0.500330 0.500434 0.742723 0.886177
C27   C     C_3   0.426834 0.546485 0.042877 -0.227098
C28   C     C_3   0.573166 0.453515 0.957122 -0.227098
C29   C     C_3   0.501173 0.591686 0.960828 -0.190298
C30   C     C_3   0.498827 0.408314 0.039172 -0.190298
C31   C     C_3   0.427126 0.456883 0.957562 0.049530
C32   C     C_3   0.572874 0.543117 0.042438 0.049529
C33   C     C_3   0.500278 0.501271 0.877402 -0.033651
C34   C     C_3   0.499722 0.498729 0.122598 -0.033651
C35   C     C_R   0.815229 0.414406 0.519342 -0.263122
C36   C     C_R   0.184771 0.585594 0.480658 -0.263122
C37   C     C_R   0.769344 0.499831 0.498861 -0.074434
C38   C     C_R   0.230656 0.500169 0.501139 -0.074434
C39   C     C_R   0.814945 0.585224 0.478101 -0.237872
C40   C     C_R   0.185055 0.414776 0.521899 -0.237872
C41   C     C_R   0.907130 0.585931 0.478364 0.116577
C42   C     C_R   0.092870 0.414069 0.521636 0.116577
H1    H     H_    0.367173 0.583232 0.082093 0.147643
H2    H     H_    0.632827 0.416768 0.917907 0.147643
H3    H     H_    0.502909 0.666079 0.925382 0.154324
H4    H     H_    0.497091 0.333921 0.074618 0.154324
H5    H     H_    0.779359 0.348501 0.535692 0.162824
H6    H     H_    0.220640 0.651499 0.464308 0.162824
H7    H     H_    0.778852 0.651080 0.461404 0.162992
H8    H     H_    0.221148 0.348920 0.538596 0.162992
H9    H     H_    0.918035 0.737337 0.441606 0.147968
H10   H     H_    0.081964 0.262663 0.558394 0.147968
H11   H     H_    0.081164 0.737543 0.443014 0.147177
H12   H     H_    0.918836 0.262457 0.556986 0.147177
H13   H     H_    0.599103 0.756874 0.357497 0.141795
H14   H     H_    0.400897 0.243126 0.642503 0.141795
H15   H     H_    0.400956 0.758936 0.642550 0.133684
H16   H     H_    0.599044 0.241064 0.357449 0.133684
H17   H     H_    0.341837 0.913891 0.727647 0.142563
H18   H     H_    0.658163 0.086109 0.272353 0.142562
H19   H     H_    0.658180 0.910579 0.272373 0.146943
H20   H     H_    0.341820 0.089421 0.727627 0.146943
N1    N     N_R   0.500000 0.750030 0.500000 -0.104329
N2    N     N_R   0.500000 0.249970 0.500000 -0.104329
O1    O     O_R   0.367850 0.580280 0.500030 -0.630542
O2    O     O_R   0.632150 0.419720 0.499970 -0.630542
O3    O     O_R   0.632150 0.580280 0.499970 -0.625370
O4    O     O_R   0.367850 0.419720 0.500030 -0.625370
O5    O     O_R   0.499970 0.580260 0.313950 -0.621506
O6    O     O_R   0.500030 0.419740 0.686050 -0.621506
O7    O     O_R   0.500030 0.580260 0.686050 -0.627987
O8    O     O_R   0.499970 0.419740 0.313950 -0.627987
Zn1   Zn    Zn3+2 0.500000 0.607200 0.500000 0.947602
Zn2   Zn    Zn3+2 0.500000 0.392800 0.500000 0.947602
C43   C     C_1   0.347232 0.409923 0.906277 0.137969
N3    N     N_1   0.284339 0.372950 0.865533 -0.218937
C44   C     C_1   0.652768 0.590077 0.093723 0.137969
N4    N     N_1   0.715661 0.627050 0.134467 -0.218937

loop_
_geom_bond_atom_site_label_1
_geom_bond_atom_site_label_2
_ccdc_geom_bond_type
C27   C29   S    
C19   C20   A    
C35   H5    S    
C6    C9    A    
C39   C41   A    
C44   N4    T    
C15   C19   A    
C17   C23   A    
C18   C24   A    
C35   C37   A    
C8    C42   A    
C21   H17   S    
C29   C32   S    
C11   N1    A    
C22   H18   S    
C30   C31   S    
C12   N2    A    
C13   H15   S    
O4    Zn2   S    
O2    Zn2   S    
C29   C33   S    
C1    O4    A    
O1    Zn1   S    
C32   C44   S    
C11   C17   A    
O6    Zn2   S    
C1    O1    A    
C31   C33   S    
O5    Zn1   S    
O3    Zn1   S    
C8    H10   S    
C25   C34   S    
C40   C42   A    
C26   O7    A    
C27   C34   S    
C14   H16   S    
C30   C34   S    
C27   C31   S    
C28   C32   S    
C4    C6    A    
C2    O3    A    
O7    Zn1   S    
N1    Zn1   S    
C2    O2    A    
C28   H2    S    
C16   C22   A    
C32   C34   S    
C43   N3    T    
C26   C33   S    
C31   C43   S    
C13   N1    A    
C15   C21   A    
C16   C20   A    
C14   N2    A    
C25   O8    A    
C12   H14   S    
C1    C38   S    
O8    Zn2   S    
C39   H7    S    
C28   C33   S    
C13   C15   A    
C26   O6    A    
C14   C16   A    
C9    H11   S    
C3    C4    A    
C11   H13   S    
C7    C9    A    
C3    C41   A    
C24   H20   S    
C30   H4    S    
C3    C5    A    
C28   C30   S    
C7    H9    S    
C5    C10   A    
C37   C39   A    
C38   C40   A    
C2    C37   S    
C4    C42   A    
C40   H8    S    
C5    C35   A    
C36   C38   A    
C17   C19   A    
C6    C36   A    
C36   H6    S    
C18   C20   A    
C7    C41   A    
C10   H12   S    
C27   H1    S    
C23   H19   S    
C25   O5    A    
C8    C10   A    
C21   C24   A    
C12   C18   A    
N2    Zn2   S    
C22   C23   A    
C29   H3    S    
