data_mof_unit_8728.cif
_audit_creation_date              2012-10-26T21:00:37-0400
_audit_creation_method            fapswitch 2.2
_symmetry_space_group_name_H-M    P1
_symmetry_Int_Tables_number       1
_space_group_crystal_system       triclinic
_cell_length_a                    10.880338
_cell_length_b                    9.710697
_cell_length_c                    10.880821
_cell_angle_alpha                 92.681057
_cell_angle_beta                  98.486291
_cell_angle_gamma                 92.506177
_cell_volume                      1134.29642918

loop_
_atom_site_label
_atom_site_type_symbol
_atom_type_description
_atom_site_fract_x
_atom_site_fract_y
_atom_site_fract_z
_atom_type_partial_charge
C1    C     C_R   0.263276 0.498116 0.502987 0.566989
C2    C     C_R   0.504626 0.503305 0.737456 0.557175
C3    C     C_R   0.705916 0.642076 0.165834 -0.130625
C4    C     C_R   0.711001 0.637386 0.910613 -0.102003
C5    C     C_R   0.805367 0.708572 0.120727 0.155590
C6    C     C_R   0.808650 0.705068 0.992867 0.167582
C7    C     C_R   0.607474 0.574471 0.954166 -0.009756
C8    C     C_R   0.606882 0.573017 0.084108 -0.030920
C9    C     C_R   0.513577 0.492099 0.129195 0.004776
C10   C     C_R   0.506645 0.508319 0.871690 0.033980
C11   C     C_R   0.429064 0.406804 0.045053 0.093623
C12   C     C_R   0.737916 0.502623 0.501138 0.536018
C13   C     C_R   0.413529 0.430198 0.918149 0.100408
C14   C     C_R   0.052112 0.386071 0.457444 -0.154170
C15   C     C_R   0.924692 0.390014 0.453976 -0.127294
C16   C     C_R   0.873062 0.506070 0.503194 0.001958
C17   C     C_R   0.130762 0.497097 0.510710 0.008873
C18   C     C_R   0.952710 0.617855 0.559180 0.079638
C19   C     C_R   0.081196 0.611351 0.566434 0.118234
C20   C     C_R   0.412172 0.063716 0.420669 0.346076
C21   C     C_R   0.585239 0.082473 0.583385 0.352550
C22   C     C_R   0.412674 0.916664 0.422421 0.207632
C23   C     C_R   0.581826 0.934194 0.583835 0.189912
C24   C     C_R   0.502898 0.497185 0.262728 0.562752
Cu1   Cu    Cu3+1 0.500000 0.640660 0.500000 0.945026
Cu2   Cu    Cu3+1 0.500000 0.359340 0.500000 1.131425
H1    H     H_    0.710669 0.640758 0.265474 0.139370
H2    H     H_    0.944219 0.702514 0.265377 0.222605
H3    H     H_    0.953712 0.692261 0.897456 0.218324
H4    H     H_    0.880084 0.842223 0.885291 0.266877
H5    H     H_    0.853361 0.787490 0.543105 0.260815
H6    H     H_    0.854887 0.704749 0.680594 0.214249
H7    H     H_    0.144482 0.724779 0.726273 0.255098
H8    H     H_    0.140263 0.813145 0.595055 0.272810
H9    H     H_    0.190588 0.295536 0.236414 0.351097
H10   H     H_    0.800633 0.360158 0.779160 0.346698
H11   H     H_    0.243011 0.811817 0.404461 0.270195
H12   H     H_    0.719260 0.630080 0.813266 0.103301
H13   H     H_    0.336662 0.754563 0.298582 0.276611
H14   H     H_    0.751589 0.902465 0.677143 0.257033
H15   H     H_    0.656994 0.767282 0.662398 0.266700
H16   H     H_    0.088356 0.297184 0.416243 0.212098
H17   H     H_    0.866276 0.302423 0.410950 0.170234
H18   H     H_    0.305366 0.235894 0.017583 0.282178
H19   H     H_    0.434607 0.221640 0.117271 0.278871
H20   H     H_    0.226888 0.395466 0.878685 0.231362
H21   H     H_    0.290217 0.417921 0.753658 0.236482
H22   H     H_    0.868966 0.851049 0.259075 0.244600
N1    N     N_R   0.500000 0.852070 0.500000 -0.280721
N2    N     N_3   0.659761 0.871726 0.680950 -0.551554
N3    N     N_R   0.500000 0.147940 0.500000 -0.306772
N4    N     N_3   0.366148 0.290352 0.088185 -0.527742
N5    N     N_3   0.304756 0.369989 0.837930 -0.586272
N6    N     N_3   0.905833 0.775650 0.205358 -0.535120
N7    N     N_3   0.912981 0.768212 0.947017 -0.544533
N8    N     N_3   0.907005 0.737553 0.613564 -0.638556
N9    N     N_3   0.161780 0.719231 0.634195 -0.575689
N10   N     N_3   0.310283 0.838048 0.349452 -0.504317
O1    O     O_R   0.319640 0.618740 0.499990 -0.494354
O2    O     O_2   0.167127 0.076491 0.371712 -0.312464
O3    O     O_3   0.271750 0.288989 0.290221 -0.491970
O4    O     O_2   0.709259 0.108139 0.817447 -0.264954
O5    O     O_2   0.830063 0.134427 0.647581 -0.319208
O6    O     O_3   0.720401 0.340605 0.723680 -0.504005
O7    O     O_R   0.680360 0.618740 0.500010 -0.562867
O8    O     O_R   0.319620 0.381170 0.499990 -0.442056
O9    O     O_R   0.680380 0.381170 0.500010 -0.441729
O10   O     O_R   0.500000 0.618810 0.319650 -0.532524
O11   O     O_R   0.500000 0.618810 0.680350 -0.514343
O12   O     O_R   0.499970 0.381240 0.319640 -0.445574
O13   O     O_R   0.500030 0.381240 0.680360 -0.419384
O14   O     O_2   0.276288 0.045110 0.194528 -0.271148
S1    S     S_3+6 0.281315 0.121897 0.318628 0.036043
S2    S     S_3+6 0.710700 0.169519 0.693218 0.048757

loop_
_geom_bond_atom_site_label_1
_geom_bond_atom_site_label_2
_ccdc_geom_bond_type
C22   N10   S    
C7    C10   A    
H7    N9    S    
C9    C24   S    
Cu1   O1    S    
O5    S2    D    
H5    N8    S    
H8    N9    S    
C2    O11   A    
C9    C11   A    
H4    N7    S    
C5    N6    S    
C1    C17   S    
H11   N10   S    
C18   N8    S    
C6    N7    S    
C14   H16   S    
H18   N4    S    
C3    H1    S    
C1    O8    A    
C8    C9    A    
C15   H17   S    
C7    C8    A    
H9    O3    S    
Cu2   N3    S    
C19   N9    S    
H22   N6    S    
Cu2   O13   S    
C11   C13   A    
C14   C17   A    
Cu1   O10   S    
C4    C7    A    
H14   N2    S    
H21   N5    S    
H13   N10   S    
H20   N5    S    
C4    C6    A    
O2    S1    D    
C17   C19   A    
C4    H12   S    
C20   S1    S    
C3    C8    A    
C20   N3    A    
C13   N5    S    
C1    O1    A    
C21   C23   A    
C5    C6    A    
Cu2   O12   S    
C12   O9    A    
Cu1   N1    S    
C23   N1    A    
Cu1   O11   S    
C15   C16   A    
Cu2   O9    S    
C24   O12   A    
C2    O13   A    
Cu2   O8    S    
H15   N2    S    
C21   N3    A    
Cu1   O7    S    
C16   C18   A    
C18   C19   A    
C12   O7    A    
C22   N1    A    
H2    N6    S    
C14   C15   A    
O4    S2    D    
C23   N2    S    
O6    S2    S    
C11   N4    S    
H3    N7    S    
H19   N4    S    
O3    S1    S    
Cu1   Cu2   S    
H10   O6    S    
C24   O10   A    
C21   S2    S    
H6    N8    S    
C12   C16   S    
C20   C22   A    
O14   S1    D    
C3    C5    A    
C10   C13   A    
C2    C10   S    
