data_mof_unit_30717.cif
_audit_creation_date              2012-12-11T17:00:22-0500
_audit_creation_method            fapswitch 2.2
_symmetry_space_group_name_H-M    P1
_symmetry_Int_Tables_number       1
_space_group_crystal_system       triclinic
_cell_length_a                    6.9652
_cell_length_b                    13.537878
_cell_length_c                    20.318932
_cell_angle_alpha                 102.919964
_cell_angle_beta                  90.879686
_cell_angle_gamma                 89.853722
_cell_volume                      1867.22753663

loop_
_atom_site_label
_atom_site_type_symbol
_atom_type_description
_atom_site_fract_x
_atom_site_fract_y
_atom_site_fract_z
_atom_type_partial_charge
O1    O     O_R   0.506770 0.599700 0.449550 -0.537166
O2    O     O_R   0.179980 0.595740 0.587960 -0.533959
O3    O     O_R   0.004580 0.400300 0.550450 -0.527424
C1    C     C_R   0.348721 0.617330 0.615234 0.721990
O4    O     O_R   0.177380 0.611700 0.452380 -0.552450
O5    O     O_R   0.001970 0.416370 0.413900 -0.521743
C2    C     C_R   0.345594 0.641018 0.438242 0.693196
O6    O     O_R   0.509390 0.583630 0.586100 -0.536112
O7    O     O_3   0.337530 0.435890 0.487530 -0.349823
V1    V     V_3+5 0.064660 0.511890 0.502310 1.532936
O8    O     O_R   0.671950 0.404260 0.412040 -0.527440
C3    C     C_R   0.840174 0.380490 0.385600 0.778739
O9    O     O_R   0.674540 0.388300 0.547620 -0.542080
C4    C     C_R   0.845322 0.359837 0.563062 0.757447
V2    V     V_3+5 0.564030 0.488110 0.497690 1.546604
O10   O     O_3   0.841030 0.564110 0.512470 -0.379810
C5    C     C_R   0.048005 0.131895 0.614769 -0.104310
H1    H     H_    0.048938 0.188166 0.524369 0.145242
H2    H     H_    0.147581 0.072275 0.593474 0.178359
C6    C     C_R   0.865951 0.277870 0.599476 -0.061220
C7    C     C_R   0.732787 0.297883 0.916051 0.437277
C8    C     C_R   0.621582 0.340195 0.871020 -0.211909
C9    C     C_R   0.652801 0.312735 0.802242 -0.156555
C10   C     C_R   0.796681 0.242165 0.775988 0.085248
C11   C     C_R   0.884401 0.185947 0.819987 -0.060480
C12   C     C_R   0.853223 0.225221 0.707273 0.042764
C13   C     C_R   0.987367 0.146969 0.682107 0.065330
C14   C     C_R   0.064499 0.088313 0.725365 0.357498
C15   C     C_R   0.012478 0.107547 0.793083 -0.221917
C16   C     C_R   0.792890 0.289482 0.664398 -0.143319
C17   C     C_R   0.990082 0.197518 0.574458 -0.189119
C18   C     C_R   0.843592 0.211059 0.890240 -0.135016
H3    H     H_    0.703863 0.354953 0.682101 0.152245
H4    H     H_    0.563236 0.349044 0.770910 0.151812
H5    H     H_    0.514493 0.397440 0.888876 0.150645
H6    H     H_    0.079900 0.063085 0.825086 0.150478
C19   C     C_R   0.696050 0.232473 0.210153 0.122866
C20   C     C_R   0.864604 0.182932 0.184463 -0.143084
C21   C     C_R   0.019343 0.186983 0.230466 -0.223511
H7    H     H_    0.147203 0.144278 0.214698 0.219611
C22   C     C_R   0.011272 0.245942 0.297279 0.338839
C23   C     C_R   0.847380 0.306602 0.319232 -0.180951
C24   C     C_R   0.687257 0.291612 0.275379 0.060478
C25   C     C_3   0.546627 0.363274 0.254941 0.254778
C26   C     C_3   0.559765 0.298547 0.182098 -0.449772
H8    H     H_    0.403514 0.356691 0.276787 0.154006
H9    H     H_    0.627615 0.331524 0.142914 0.178321
H10   H     H_    0.423467 0.257911 0.164535 0.202323
C27   C     C_R   0.501137 0.678218 0.730811 0.042774
C28   C     C_R   0.352098 0.682569 0.684651 -0.137540
C29   C     C_R   0.194291 0.745382 0.708688 -0.033800
H11   H     H_    0.074379 0.750734 0.675301 0.135845
C30   C     C_R   0.194690 0.807324 0.774511 -0.027100
H12   H     H_    0.076326 0.858753 0.789467 0.131908
C31   C     C_R   0.353864 0.809538 0.818196 -0.120255
C32   C     C_R   0.502649 0.740710 0.795585 0.045426
C33   C     C_3   0.713322 0.758420 0.794214 0.219015
C34   C     C_3   0.711605 0.689572 0.723299 0.205059
H13   H     H_    0.746844 0.838836 0.794836 0.042986
H14   H     H_    0.744458 0.729976 0.682850 0.046245
C35   C     C_R   0.397043 0.895094 0.395973 -0.117630
H15   H     H_    0.395332 0.842368 0.488066 0.124298
H16   H     H_    0.430233 0.020796 0.315328 0.198403
H17   H     H_    0.419517 0.973227 0.422326 0.134347
C36   C     C_R   0.353014 0.720365 0.400508 -0.043116
C37   C     C_R   0.348416 0.686644 0.076227 -0.262015
C38   C     C_R   0.334894 0.612295 0.113239 0.390457
C39   C     C_R   0.338817 0.638440 0.182937 -0.205636
C40   C     C_R   0.356025 0.740118 0.218772 -0.024192
C41   C     C_R   0.373834 0.817651 0.181419 -0.007334
C42   C     C_R   0.358325 0.765985 0.290833 0.079502
C43   C     C_R   0.386308 0.868183 0.325081 0.063135
C44   C     C_R   0.406977 0.942783 0.288659 -0.190251
C45   C     C_R   0.401932 0.919372 0.218420 0.320155
C46   C     C_R   0.336533 0.693286 0.330457 -0.201802
C47   C     C_R   0.382805 0.821161 0.433505 -0.176785
C48   C     C_R   0.364338 0.789070 0.109022 -0.126277
H18   H     H_    0.310173 0.614275 0.309166 0.124141
H19   H     H_    0.344290 0.664622 0.021570 0.140203
H20   H     H_    0.325818 0.576018 0.207173 0.169609
O11   O     O_R   0.203450 0.916320 0.913910 -0.542281
O12   O     O_R   0.535520 0.888300 0.047620 -0.526331
O13   O     O_R   0.710860 0.083650 0.086100 -0.504847
C49   C     C_R   0.368298 0.862585 0.065521 0.810388
O14   O     O_R   0.532860 0.904250 0.912040 -0.538189
O15   O     O_R   0.708190 0.099710 0.949550 -0.539778
C50   C     C_R   0.363714 0.881927 0.885026 0.711021
O16   O     O_R   0.206120 0.900260 0.050460 -0.534271
O17   O     O_3   0.375280 0.064080 0.012470 -0.358408
V3    V     V_3+5 0.648180 0.988110 0.997690 1.571728
O18   O     O_R   0.038220 0.111740 0.952370 -0.548316
C51   C     C_R   0.867656 0.136302 0.933350 0.728662
O19   O     O_R   0.040880 0.095790 0.087940 -0.539318
C52   C     C_R   0.872706 0.118372 0.114862 0.780511
V4    V     V_3+5 0.148800 0.011950 0.002300 1.540792
O20   O     O_3   0.871820 0.935920 0.987530 -0.363615
Cl1   Cl    Cl    0.206926 0.236937 0.351681 -0.695439
O21   O     O_3   0.611688 0.465657 0.272618 -0.575470
C53   C     C_3   0.730782 0.494938 0.224885 0.068190
H21   H     H_    0.643972 0.499035 0.179285 0.167803
H22   H     H_    0.852515 0.441218 0.210864 0.126609
C54   C     C_3   0.813594 0.599946 0.255839 -0.286417
H23   H     H_    0.706978 0.646741 0.289014 0.225427
H24   H     H_    0.941816 0.591817 0.287430 0.178847
C55   C     C_3   0.869089 0.655269 0.201429 -0.821032
H25   H     H_    0.964014 0.606300 0.164843 0.250269
H26   H     H_    0.944019 0.727078 0.224766 0.246850
H27   H     H_    0.739887 0.673583 0.173914 0.239874
Cl2   Cl    Cl    0.835585 0.710954 0.858686 -0.618213
Cl3   Cl    Cl    0.831465 0.570347 0.714248 -0.615768
Cl4   Cl    Cl    0.242540 0.995884 0.698463 -0.750047
Cl5   Cl    Cl    0.301418 0.484318 0.074029 -0.773009
Cl6   Cl    Cl    0.444529 0.023494 0.182737 -0.706951
O22   O     O_3   0.733762 0.336896 0.985516 -0.569724
C56   C     C_3   0.734738 0.444838 0.002988 0.100098
H28   H     H_    0.754544 0.467884 0.058662 0.170869
H29   H     H_    0.594520 0.475868 0.991280 0.174090
C57   C     C_3   0.895508 0.494285 0.969914 -0.357226
H30   H     H_    0.034582 0.457801 0.976307 0.262366
H31   H     H_    0.868504 0.484239 0.914888 0.224444
C58   C     C_3   0.906289 0.608051 0.999876 -0.667132
H32   H     H_    0.766664 0.644561 0.992935 0.239997
H33   H     H_    0.019179 0.642302 0.974111 0.258991
H34   H     H_    0.942101 0.623063 0.054422 0.224328

loop_
_geom_bond_atom_site_label_1
_geom_bond_atom_site_label_2
_ccdc_geom_bond_type
C39   H20   S    
C31   C32   A    
C19   C24   A    
O19   C52   A    
C44   C45   A    
V4    O20   S    
C1    O6    A    
O22   C56   S    
C21   C22   A    
C6    C16   A    
C30   H12   S    
C8    H5    S    
C55   H26   S    
C15   H6    S    
C12   C13   A    
C36   C47   A    
C14   C15   A    
C10   C12   A    
O5    C3    A    
C20   C21   A    
O11   V4    S    
C33   H13   S    
C34   H14   S    
V2    O10   S    
C32   C33   S    
C54   C55   S    
C22   C23   A    
C40   C42   A    
C57   H30   S    
C58   H34   S    
C3    C23   S    
C25   O21   S    
C33   Cl2   S    
C39   C40   A    
C56   H29   S    
C41   C45   A    
C9    C10   A    
O1    V2    S    
O7    V1    S    
C56   C57   S    
C11   C18   A    
C30   C31   A    
C37   C38   A    
O16   V4    S    
C35   C47   A    
C34   Cl3   S    
C7    C8    A    
C41   C48   A    
H15   C47   S    
C54   H23   S    
O8    V2    S    
C7    C18   A    
C25   H8    S    
C26   H9    S    
C14   Cl4   S    
C11   C15   A    
C55   H27   S    
O14   C50   A    
C38   C39   A    
C5    C13   A    
C4    C6    S    
C10   C11   A    
O15   V3    S    
O18   C51   A    
O4    C2    A    
C7    O22   S    
H16   C44   S    
C48   C49   S    
C45   Cl6   S    
C27   C34   S    
C29   H11   S    
C1    C28   S    
C29   C30   A    
C57   C58   S    
O17   V4    S    
C35   H17   S    
O2    C1    A    
C24   C25   S    
C19   C20   A    
C37   H19   S    
C2    C36   S    
C53   H21   S    
O14   V3    S    
C9    H4    S    
C20   C52   S    
C28   C29   A    
C54   H24   S    
C58   H32   S    
O11   C50   A    
O3    C4    A    
C35   C43   A    
C53   H22   S    
C12   C16   A    
O6    V2    S    
O12   C49   A    
O9    V2    S    
C5    C17   A    
C27   C28   A    
C22   Cl1   S    
C23   C24   A    
C19   C26   S    
O2    V1    S    
C21   H7    S    
C25   C26   S    
C26   H10   S    
O13   V3    S    
C16   H3    S    
O1    C2    A    
C49   O16   A    
C43   C44   A    
O12   V3    S    
O5    V1    S    
O8    C3    A    
V3    O20   S    
C27   C32   A    
C55   H25   S    
C36   C46   A    
O7    V2    S    
C42   C43   A    
O3    V1    S    
V1    O10   S    
C42   C46   A    
O13   C52   A    
C33   C34   S    
C18   C51   S    
C5    H2    S    
C37   C48   A    
C31   C50   S    
C40   C41   A    
C46   H18   S    
C57   H31   S    
C58   H33   S    
O18   V4    S    
C38   Cl5   S    
O4    V1    S    
C53   C54   S    
O19   V4    S    
O21   C53   S    
C13   C14   A    
C8    C9    A    
O15   C51   A    
H1    C17   S    
O17   V3    S    
O9    C4    A    
C56   H28   S    
C6    C17   A    
