data_mof_unit_27985.cif
_audit_creation_date              2012-12-11T15:53:59-0500
_audit_creation_method            fapswitch 2.2
_symmetry_space_group_name_H-M    P1
_symmetry_Int_Tables_number       1
_space_group_crystal_system       triclinic
_cell_length_a                    10.638146
_cell_length_b                    10.74448
_cell_length_c                    17.02567
_cell_angle_alpha                 80.729181
_cell_angle_beta                  99.138607
_cell_angle_gamma                 118.783488
_cell_volume                      1675.89093388

loop_
_atom_site_label
_atom_site_type_symbol
_atom_type_description
_atom_site_fract_x
_atom_site_fract_y
_atom_site_fract_z
_atom_type_partial_charge
C1    C     C_R   0.384258 0.283746 0.632056 0.557458
C2    C     C_R   0.378377 0.834269 0.669597 0.225529
C3    C     C_R   0.366811 0.852755 0.747549 -0.089496
C4    C     C_3   0.146400 0.457192 0.796999 -0.237379
C5    C     C_3   0.164151 0.434193 0.714720 -0.244181
C6    C     C_R   0.309723 0.693613 0.644955 -0.003634
C7    C     C_1   0.823547 0.656986 0.705883 -0.028804
C8    C     C_1   0.851346 0.684760 0.773686 -0.030857
C9    C     C_1   0.364501 0.232135 0.714237 -0.044895
C10   C     C_1   0.333672 0.185543 0.781492 -0.055470
C11   C     C_1   0.335591 0.663478 0.277741 -0.042824
C12   C     C_R   0.367971 0.655582 0.585133 0.527046
C13   C     C_1   0.323113 0.672873 0.206959 -0.045639
C14   C     C_R   0.870186 0.686176 0.168098 0.024831
C15   C     C_R   0.915202 0.602532 0.224423 0.035178
C16   C     C_R   0.905757 0.596143 0.304125 0.014560
C17   C     C_R   0.834831 0.782510 0.276453 -0.160612
C18   C     C_R   0.843786 0.787316 0.195079 -0.161662
C19   C     C_3   0.878849 0.449561 0.227793 -0.266735
C20   C     C_3   0.867827 0.440744 0.316267 -0.269172
C21   C     C_R   0.849991 0.674731 0.330156 0.017007
C22   C     C_R   0.338382 0.183683 0.154978 0.018516
C23   C     C_R   0.777151 0.619035 0.626726 0.540339
C24   C     C_R   0.263993 0.246085 0.179056 0.016769
C25   C     C_R   0.268853 0.257162 0.258368 0.035682
C26   C     C_R   0.444012 0.171670 0.291426 -0.167390
C27   C     C_R   0.441045 0.161343 0.210480 -0.163044
C28   C     C_3   0.109948 0.217988 0.164575 -0.271044
C29   C     C_3   0.117011 0.230919 0.252647 -0.267200
C30   C     C_R   0.346244 0.206476 0.316260 0.022198
C31   C     C_R   0.892187 0.702072 0.855852 0.547071
C32   C     C_R   0.282083 0.750350 0.882729 0.564617
C33   C     C_R   0.286738 0.118259 0.858372 0.537673
C34   C     C_R   0.353925 0.231895 0.397519 0.553362
C35   C     C_R   0.893363 0.693931 0.086226 0.550673
C36   C     C_R   0.313047 0.700705 0.123809 0.559914
C37   C     C_R   0.287996 0.111553 0.083414 0.552778
C38   C     C_R   0.365119 0.653934 0.360793 0.547564
C39   C     C_R   0.775613 0.624307 0.401383 0.548957
C40   C     C_R   0.280657 0.735572 0.798651 -0.042888
C41   C     C_R   0.186144 0.608038 0.765112 0.007440
C42   C     C_R   0.201385 0.586852 0.690014 -0.020318
Cr1   Cr    Cr6+3 0.608440 0.389080 0.519680 1.046620
Cr2   Cr    Cr6+3 0.288640 0.400090 0.490760 1.010053
Cr3   Cr    Cr6+3 0.602940 0.710800 0.489510 1.028810
Cr4   Cr    Cr6+3 0.052530 0.947560 0.964210 1.021668
Cr5   Cr    Cr6+3 0.059970 0.626800 0.992920 1.008331
Cr6   Cr    Cr6+3 0.373320 0.938440 0.995370 1.015341
H1    H     H_    0.774014 0.385472 0.193761 0.143584
H2    H     H_    0.756364 0.368508 0.332372 0.165481
H3    H     H_    0.953044 0.421562 0.354438 0.142151
H4    H     H_    0.516622 0.145667 0.334442 0.127786
H5    H     H_    0.506755 0.120143 0.193386 0.141500
H6    H     H_    0.032548 0.108702 0.148530 0.161563
H7    H     H_    0.097849 0.305540 0.125243 0.144318
H8    H     H_    0.111178 0.326400 0.264623 0.143048
H9    H     H_    0.046348 0.129189 0.286615 0.142005
H10   H     H_    0.429561 0.957365 0.768953 0.159617
H11   H     H_    0.033103 0.397098 0.812483 0.156606
H12   H     H_    0.227651 0.447918 0.844114 0.153352
H13   H     H_    0.256675 0.413753 0.714552 0.141588
H14   H     H_    0.061540 0.359703 0.682945 0.161379
H15   H     H_    0.799487 0.851410 0.295189 0.140179
H16   H     H_    0.822704 0.864077 0.153415 0.129042
H17   H     H_    0.970758 0.437286 0.214397 0.142804
O1    O     O_R   0.754020 0.497590 0.609930 -0.510375
O2    O     O_R   0.295080 0.533620 0.397890 -0.508376
O3    O     O_R   0.485280 0.746620 0.388440 -0.515435
O4    O     O_R   0.720550 0.696220 0.420010 -0.506288
O5    O     O_3   0.500010 0.499990 0.499980 -0.273860
O6    O     O_R   0.163320 0.092900 0.874450 -0.504745
O7    O     O_R   0.934650 0.822080 0.882840 -0.487570
O8    O     O_R   0.915520 0.604140 0.893670 -0.520200
O9    O     O_R   0.191760 0.638110 0.923230 -0.497692
O10   O     O_R   0.406180 0.826930 0.920660 -0.508690
O11   O     O_R   0.358620 0.062870 0.901950 -0.518081
O12   O     O_R   0.481420 0.271390 0.600630 -0.451178
O13   O     O_R   0.163910 0.085460 0.050210 -0.522346
O14   O     O_R   0.935200 0.815170 0.045770 -0.501654
O15   O     O_R   0.916120 0.596690 0.069430 -0.519057
O16   O     O_R   0.192310 0.631200 0.086170 -0.504382
O17   O     O_R   0.406770 0.819480 0.096420 -0.509254
O18   O     O_R   0.359170 0.055960 0.064880 -0.507841
O19   O     O_3   0.161940 0.837600 0.984160 -0.274616
O20   O     O_R   0.263810 0.254550 0.589590 -0.506752
O21   O     O_R   0.300820 0.531200 0.560890 -0.518162
O22   O     O_R   0.491480 0.744020 0.564270 -0.492179
O23   O     O_R   0.726290 0.693800 0.583010 -0.492160
O24   O     O_R   0.747830 0.500190 0.434090 -0.522397
O25   O     O_R   0.475680 0.273800 0.437630 -0.498298
O26   O     O_R   0.257620 0.257160 0.413750 -0.515469
O27   O     O_3   0.464834 0.953301 0.622318 -0.665960
H18   H     H_    0.432300 0.934214 0.565650 0.334271

loop_
_geom_bond_atom_site_label_1
_geom_bond_atom_site_label_2
_ccdc_geom_bond_type
C5    C42   S    
C16   C21   A    
C1    O12   A    
C41   C42   A    
C14   C18   A    
C19   C20   S    
C32   O10   A    
C7    C8    T    
C15   C19   S    
C26   C27   A    
Cr1   O24   S    
C23   O1    A    
C28   C29   S    
Cr3   O22   S    
C20   H3    S    
C6    C12   S    
Cr4   O14   S    
C31   O8    A    
C4    C41   S    
C15   C16   A    
C35   O15   A    
Cr6   O11   S    
C34   O26   A    
C20   H2    S    
C36   O17   A    
Cr2   O5    S    
C9    C10   T    
Cr4   O7    S    
Cr5   O16   S    
C25   C29   S    
Cr6   O10   S    
C2    C6    A    
Cr5   O15   S    
Cr2   O21   S    
C28   H7    S    
C1    O20   A    
Cr1   O25   S    
C30   C34   S    
Cr3   O4    S    
Cr3   O23   S    
C1    C9    S    
C24   C25   A    
Cr5   O8    S    
C13   C36   S    
C14   C35   S    
Cr4   O13   S    
C28   H6    S    
C22   C37   S    
C17   C21   A    
Cr6   O19   S    
C11   C38   S    
C34   O25   A    
C26   H4    S    
C19   H1    S    
C33   O11   A    
C21   C39   S    
C36   O16   A    
C16   C20   S    
C4    H12   S    
Cr3   O3    S    
C17   C18   A    
C39   O4    A    
C5    H13   S    
Cr5   O19   S    
C2    O27   S    
Cr4   O6    S    
Cr2   O26   S    
Cr4   O19   S    
C40   C41   A    
C29   H9    S    
C3    C40   A    
C26   C30   A    
Cr1   O5    S    
C23   O23   A    
C22   C24   A    
Cr2   O20   S    
C25   C30   A    
C31   O7    A    
C12   O22   A    
Cr3   O5    S    
C8    C31   S    
C24   C28   S    
Cr5   O9    S    
C38   O3    A    
C4    C5    S    
C27   H5    S    
C29   H8    S    
Cr1   O12   S    
C37   O13   A    
Cr6   O18   S    
C12   O21   A    
C22   C27   A    
C2    C3    A    
C17   H15   S    
C32   O9    A    
C11   C13   T    
C18   H16   S    
Cr1   O1    S    
C7    C23   S    
C4    H11   S    
C35   O14   A    
O27   H18   S    
Cr6   O17   S    
C5    H14   S    
C19   H17   S    
C10   C33   S    
C32   C40   S    
C33   O6    A    
C3    H10   S    
C38   O2    A    
C6    C42   A    
C14   C15   A    
C37   O18   A    
Cr2   O2    S    
C39   O24   A    
