data_mof_unit_5010.cif
_audit_creation_date              2012-10-26T20:40:15-0400
_audit_creation_method            fapswitch 2.2
_symmetry_space_group_name_H-M    P1
_symmetry_Int_Tables_number       1
_space_group_crystal_system       triclinic
_cell_length_a                    15.090456
_cell_length_b                    10.776799
_cell_length_c                    9.59966
_cell_angle_alpha                 90.029077
_cell_angle_beta                  89.795165
_cell_angle_gamma                 92.580655
_cell_volume                      1559.56874805

loop_
_atom_site_label
_atom_site_type_symbol
_atom_type_description
_atom_site_fract_x
_atom_site_fract_y
_atom_site_fract_z
_atom_type_partial_charge
C1    C     C_R   0.496893 0.262577 0.500024 0.537256
C2    C     C_R   0.185171 0.491021 0.375676 -0.150487
C3    C     C_R   0.231603 0.503381 0.501675 -0.024655
C4    C     C_R   0.328659 0.500722 0.500471 0.555449
C5    C     C_R   0.185002 0.518627 0.627547 0.369142
C6    C     C_R   0.355506 0.120323 0.646799 -0.079527
C7    C     C_R   0.289599 0.051224 0.718356 0.394881
C8    C     C_R   0.289743 0.922131 0.718458 -0.072090
C9    C     C_R   0.355772 0.861403 0.647144 -0.155805
C10   C     C_R   0.424183 0.929554 0.575762 0.006304
C11   C     C_R   0.424043 0.060813 0.575618 -0.034898
C12   C     C_R   0.906707 0.519533 0.626184 0.024466
C13   C     C_R   0.490832 0.128382 0.499899 0.011421
C14   C     C_R   0.553431 0.067408 0.421116 -0.134511
C15   C     C_R   0.553571 0.939416 0.421225 -0.143706
C16   C     C_R   0.497277 0.737092 0.500059 0.521558
C17   C     C_R   0.491102 0.870484 0.500108 0.024515
C18   C     C_R   0.618562 0.664205 0.143499 -0.087563
C19   C     C_R   0.676751 0.744201 0.071097 -0.171752
C20   C     C_R   0.676634 0.744480 0.927555 -0.169312
C21   C     C_R   0.618327 0.664766 0.855538 -0.087150
C22   C     C_R   0.558200 0.580896 0.924953 0.156815
C23   C     C_R   0.953632 0.480629 0.247603 -0.088783
C24   C     C_R   0.558257 0.580731 0.074522 0.158716
C25   C     C_R   0.444479 0.423277 0.074147 0.020816
C26   C     C_R   0.444511 0.423290 0.926256 0.042810
C27   C     C_R   0.671230 0.501098 0.499751 0.533423
C28   C     C_R   0.814401 0.517800 0.625181 -0.129662
C29   C     C_R   0.768087 0.503744 0.499354 -0.007385
C30   C     C_R   0.814538 0.492501 0.373417 -0.136009
C31   C     C_R   0.906946 0.493433 0.372803 -0.039683
C32   C     C_R   0.953317 0.506674 0.499684 0.050348
C33   C     C_R   0.046015 0.479919 0.247779 0.394976
C34   C     C_R   0.092813 0.492565 0.373707 0.009789
C35   C     C_R   0.046300 0.506517 0.500201 -0.046210
C36   C     C_R   0.092518 0.519861 0.627365 0.036462
C37   C     C_R   0.045325 0.533849 0.752306 -0.057324
C38   C     C_R   0.953048 0.533436 0.751703 -0.135100
Cu1   Cu    Cu3+1 0.499990 0.499990 0.640660 0.964418
Cu2   Cu    Cu3+1 0.500010 0.500010 0.359340 0.938396
F1    F     F_    0.224421 0.109847 0.785982 -0.602702
F2    F     F_    0.089487 0.466421 0.124978 -0.630733
F3    F     F_    0.229053 0.532845 0.750319 -0.616596
H1    H     H_    0.778776 0.527460 0.722606 0.126852
H2    H     H_    0.623507 0.673261 0.745730 0.181198
H3    H     H_    0.778917 0.481993 0.275903 0.131243
H4    H     H_    0.399002 0.360384 0.871259 0.156821
H5    H     H_    0.918588 0.470577 0.149586 0.127150
H6    H     H_    0.221045 0.479500 0.278856 0.209928
H7    H     H_    0.079523 0.544662 0.850843 0.235351
H8    H     H_    0.917924 0.543713 0.849437 0.120654
H9    H     H_    0.603782 0.119431 0.361732 0.130606
H10   H     H_    0.350933 0.220122 0.645689 0.154401
H11   H     H_    0.237819 0.868587 0.772460 0.168489
H12   H     H_    0.351324 0.761078 0.646577 0.178920
H13   H     H_    0.604036 0.893886 0.361920 0.109623
H14   H     H_    0.398945 0.360365 0.129525 0.138928
H15   H     H_    0.623865 0.672228 0.253251 0.177898
H16   H     H_    0.722130 0.806732 0.127125 0.124672
H17   H     H_    0.721964 0.807185 0.871232 0.129533
N1    N     N_R   0.500860 0.501210 0.147910 -0.249930
N2    N     N_R   0.500890 0.501290 0.852040 -0.248360
O1    O     O_R   0.499990 0.319640 0.618810 -0.510738
O2    O     O_R   0.500000 0.319660 0.381240 -0.499061
O3    O     O_R   0.370250 0.499960 0.618800 -0.435033
O4    O     O_R   0.370260 0.499980 0.381230 -0.514382
O5    O     O_R   0.500000 0.680340 0.618760 -0.527606
O6    O     O_R   0.500010 0.680360 0.381190 -0.513779
O7    O     O_R   0.629740 0.500020 0.618770 -0.525457
O8    O     O_R   0.629750 0.500040 0.381200 -0.528243

loop_
_geom_bond_atom_site_label_1
_geom_bond_atom_site_label_2
_ccdc_geom_bond_type
C5    C36   A    
C6    C7    A    
C16   O6    A    
C2    H6    S    
C22   N2    A    
Cu1   O1    S    
C9    C10   A    
Cu2   O8    S    
C31   C32   A    
C27   O7    A    
C30   H3    S    
C30   C31   A    
C15   H13   S    
C2    C34   A    
C33   C34   A    
C26   N2    A    
C7    C8    A    
C16   O5    A    
Cu2   O4    S    
C21   C22   A    
C12   C32   A    
C4    O4    A    
C37   H7    S    
Cu1   O3    S    
C29   C30   A    
C27   O8    A    
C25   H14   S    
C26   H4    S    
C12   C28   A    
C24   N1    A    
C9    H12   S    
C33   F2    S    
C1    O1    A    
C22   C24   A    
C28   C29   A    
C25   C26   A    
C37   C38   A    
C18   H15   S    
C2    C3    A    
C21   H2    S    
C7    F1    S    
Cu1   O7    S    
C4    O3    A    
Cu1   N2    S    
C16   C17   S    
C18   C24   A    
C12   C38   A    
C27   C29   S    
C10   C11   A    
C10   C17   A    
C3    C4    S    
Cu1   Cu2   S    
C32   C35   A    
C3    C5    A    
C23   H5    S    
C11   C13   A    
C1    C13   S    
C20   C21   A    
C34   C35   A    
Cu2   O6    S    
C8    H11   S    
C6    C11   A    
C15   C17   A    
C18   C19   A    
C14   C15   A    
C36   C37   A    
C25   N1    A    
C38   H8    S    
C6    H10   S    
C19   H16   S    
C20   H17   S    
C13   C14   A    
Cu1   O5    S    
C1    O2    A    
C28   H1    S    
C14   H9    S    
Cu2   N1    S    
C19   C20   A    
C5    F3    S    
C23   C31   A    
C8    C9    A    
C23   C33   A    
C35   C36   A    
Cu2   O2    S    
