data_mof_unit_46833.cif
_audit_creation_date              2013-03-05T15:51:08-0500
_audit_creation_method            fapswitch 2.2
_symmetry_space_group_name_H-M    P1
_symmetry_Int_Tables_number       1
_space_group_crystal_system       triclinic
_cell_length_a                    10.513217
_cell_length_b                    11.994084
_cell_length_c                    12.87591
_cell_angle_alpha                 93.346114
_cell_angle_beta                  89.969532
_cell_angle_gamma                 86.936227
_cell_volume                      1618.51043533

loop_
_atom_site_label
_atom_site_type_symbol
_atom_site_description
_atom_site_fract_x
_atom_site_fract_y
_atom_site_fract_z
_atom_type_partial_charge
O1    O     O_R   0.506270 0.421700 0.658830 -0.625566
O2    O     O_R   0.493730 0.578300 0.341170 -0.625548
O3    O     O_R   0.491200 0.609310 0.646410 -0.633726
O4    O     O_R   0.508800 0.390690 0.353590 -0.633727
C1    C     C_R   0.499182 0.522049 0.700426 0.916574
C2    C     C_R   0.500821 0.477951 0.299574 0.916666
O5    O     O_R   0.693580 0.406210 0.506230 -0.614935
O6    O     O_R   0.306420 0.593790 0.493770 -0.614967
O7    O     O_R   0.678510 0.593830 0.493810 -0.625549
O8    O     O_R   0.321490 0.406170 0.506190 -0.625553
C3    C     C_R   0.742425 0.500834 0.499507 0.948188
C4    C     C_R   0.257575 0.499166 0.500493 0.948268
Zn1   Zn    Zn3+2 0.510060 0.374730 0.508290 0.971669
Zn2   Zn    Zn3+2 0.489940 0.625270 0.491710 0.971663
C5    C     C_3   0.960010 0.461020 0.586526 0.386344
C6    C     C_3   0.039988 0.538979 0.413472 0.386324
C7    C     C_3   0.038601 0.564782 0.582757 -0.284845
C8    C     C_3   0.961399 0.435217 0.417242 -0.284747
H1    H     H_    0.073789 0.615034 0.650914 0.179755
H2    H     H_    0.926210 0.384965 0.349085 0.179722
C9    C     C_3   0.123083 0.497651 0.501194 -0.150048
C10   C     C_3   0.876916 0.502349 0.498804 -0.149965
C11   C     C_3   0.046063 0.392705 0.507241 -0.223647
C12   C     C_3   0.953935 0.607293 0.492757 -0.223654
H3    H     H_    0.086665 0.306214 0.514923 0.190259
H4    H     H_    0.913333 0.693784 0.485077 0.190268
C13   C     C_R   0.502252 0.464714 0.188199 -0.035986
C14   C     C_R   0.497757 0.535287 0.811800 -0.036005
C15   C     C_R   0.449334 0.645778 0.970010 -0.180535
C16   C     C_R   0.550680 0.354224 0.029990 -0.180541
C17   C     C_R   0.458654 0.637761 0.862609 -0.195769
C18   C     C_R   0.541356 0.362240 0.137391 -0.195796
C19   C     C_R   0.530817 0.441749 0.867612 -0.192795
C20   C     C_R   0.469195 0.558252 0.132388 -0.192752
C21   C     C_R   0.520753 0.448650 0.974245 0.167654
C22   C     C_R   0.479262 0.551352 0.025755 0.167641
H5    H     H_    0.437057 0.637189 0.171827 0.166575
H6    H     H_    0.562955 0.362812 0.828172 0.166579
H7    H     H_    0.567081 0.289533 0.180523 0.166261
H8    H     H_    0.432927 0.710468 0.819477 0.166259
H9    H     H_    0.417905 0.724898 0.009233 0.150146
H10   H     H_    0.582109 0.275104 0.990767 0.150151
N1    N     N_R   0.523490 0.207800 0.519350 -0.110817
N2    N     N_R   0.476510 0.792200 0.480650 -0.110803
C23   C     C_R   0.380310 0.953875 0.403694 -0.311589
C24   C     C_R   0.619689 0.046125 0.596306 -0.311579
C25   C     C_R   0.391927 0.837726 0.412778 0.041880
C26   C     C_R   0.608073 0.162274 0.587222 0.041910
C27   C     C_R   0.551814 0.858652 0.541317 -0.044629
C28   C     C_R   0.448186 0.141348 0.458683 -0.044647
C29   C     C_R   0.543523 0.975962 0.534919 0.087572
C30   C     C_R   0.456477 0.024038 0.465081 0.087589
H11   H     H_    0.381902 0.179875 0.405422 0.134078
H12   H     H_    0.618098 0.820125 0.594577 0.134075
H13   H     H_    0.666887 0.216317 0.634530 0.167785
H14   H     H_    0.333112 0.783683 0.365471 0.167692
H15   H     H_    0.312478 0.988376 0.349282 0.160210
H16   H     H_    0.687522 0.011624 0.650718 0.160226
N3    N     N_R   0.910158 0.419522 0.681675 0.206522
O9    O     O_R   0.939277 0.317582 0.705987 -0.399812
O10   O     O_R   0.836071 0.484390 0.742626 -0.411346
N4    N     N_R   0.089821 0.580480 0.318317 0.206501
O11   O     O_R   0.060329 0.682303 0.293825 -0.399683
O12   O     O_R   0.164135 0.515691 0.257471 -0.411440

loop_
_geom_bond_atom_site_label_1
_geom_bond_atom_site_label_2
_geom_bond_distance
_ccdc_geom_bond_type
N2    C27   1.366616 A    
C26   H13   1.081982 S    
C16   C18   1.383673 A    
O7    Zn2   1.998620 S    
N1    C28   1.366616 A    
C5    C7    1.533231 S    
N4    O11   1.300646 A    
C20   H5    1.085320 S    
C1    C14   1.433552 S    
N1    C26   1.362814 A    
C3    C10   1.415057 S    
C20   C22   1.374338 A    
C21   C22   1.412236 A    
N2    C25   1.362814 A    
Zn1   N1    2.012957 S    
O6    C4    1.277880 A    
C6    C8    1.533227 S    
C5    C11   1.534318 S    
N3    O9    1.300544 A    
C6    C12   1.534320 S    
C27   H12   1.082825 S    
O2    C2    1.286917 A    
C24   H16   1.083274 S    
O5    C3    1.277879 A    
O7    C3    1.276911 A    
C15   C22   1.397821 A    
C23   H15   1.083273 S    
C6    C9    1.518147 S    
O3    Zn2   2.012156 S    
O8    C4    1.276913 A    
C16   C21   1.397822 A    
O1    C1    1.286917 A    
C24   C29   1.403283 A    
Zn2   N2    2.012957 S    
C19   C21   1.374339 A    
C12   H4    1.110336 S    
C14   C19   1.395917 A    
C8    H2    1.110280 S    
C9    C11   1.538323 S    
C13   C20   1.395916 A    
O2    Zn2   1.986496 S    
C10   C12   1.538297 S    
N3    O10   1.300465 A    
C7    C12   1.554574 S    
O1    Zn1   1.986498 S    
C7    H1    1.110280 S    
C8    C11   1.554565 S    
C28   H11   1.082825 S    
C24   C26   1.403632 A    
O3    C1    1.289117 A    
O5    Zn1   1.986146 S    
C11   H3    1.110335 S    
C29   C30   1.408391 A    
C17   H8    1.083302 S    
C15   C17   1.383672 A    
O4    C2    1.289119 A    
C5    C10   1.518142 S    
C23   C25   1.403632 A    
C28   C30   1.412285 A    
C18   H7    1.083303 S    
C16   H10   1.084042 S    
C19   H6    1.085320 S    
N4    O12   1.300558 A    
O6    Zn2   1.986148 S    
C23   C30   1.403283 A    
C15   H9    1.084042 S    
C13   C18   1.399818 A    
C8    C10   1.537517 S    
C5    N3    1.456624 S    
C4    C9    1.415058 S    
C6    N4    1.456627 S    
C14   C17   1.399817 A    
C7    C9    1.537512 S    
C2    C13   1.433553 S    
O4    Zn1   2.012153 S    
C25   H14   1.081983 S    
C27   C29   1.412285 A    
O8    Zn1   1.998620 S    
