data_mof_unit_22997.cif
_audit_creation_date              2012-12-11T14:27:03-0500
_audit_creation_method            fapswitch 2.2
_symmetry_space_group_name_H-M    P1
_symmetry_Int_Tables_number       1
_space_group_crystal_system       triclinic
_cell_length_a                    15.111875
_cell_length_b                    14.942327
_cell_length_c                    14.928494
_cell_angle_alpha                 109.294683
_cell_angle_beta                  109.538251
_cell_angle_gamma                 109.712047
_cell_volume                      2590.72010936

loop_
_atom_site_label
_atom_site_type_symbol
_atom_type_description
_atom_site_fract_x
_atom_site_fract_y
_atom_site_fract_z
_atom_type_partial_charge
C1    C     C_R   0.960191 0.776276 0.051004 -0.088939
C2    C     C_R   0.212825 0.796740 0.304553 -0.083991
C3    C     C_R   0.949452 0.409526 0.223258 -0.060143
C4    C     C_R   0.779896 0.254648 0.687205 -0.146899
C5    C     C_R   0.313988 0.594473 0.037648 -0.132053
C6    C     C_R   0.018418 0.501048 0.326243 0.172218
C7    C     C_R   0.325521 0.503651 0.002331 0.009546
C8    C     C_R   0.310554 0.854213 0.311288 0.114564
C9    C     C_R   0.037365 0.212122 0.040344 0.195695
C10   C     C_3   0.543189 0.477920 0.943156 -0.376298
C11   C     C_3   0.434550 0.473130 0.919252 -0.406405
C12   C     C_R   0.678574 0.230356 0.676489 0.132015
C13   C     C_3   0.536679 0.416142 0.080888 -0.439007
C14   C     C_3   0.631252 0.617343 0.143573 -0.378595
C15   C     C_3   0.607426 0.503180 0.063163 0.385347
C16   C     C_R   0.095447 0.592310 0.793984 -0.149135
C17   C     C_3   0.427774 0.504845 0.025007 0.363281
C18   C     C_3   0.433147 0.421616 0.064277 -0.346540
C19   C     C_3   0.526124 0.620349 0.115886 -0.433332
C20   C     C_2   0.386777 0.036060 0.465408 -0.107523
C21   C     C_2   0.399695 0.963424 0.397120 -0.194915
C22   C     C_2   0.481402 0.135476 0.565268 -0.104849
C23   C     C_R   0.070269 0.502377 0.703840 0.154654
C24   C     C_2   0.578887 0.178243 0.572908 -0.188500
C25   C     C_2   0.082251 0.419217 0.541697 -0.144436
C26   C     C_2   0.116955 0.508253 0.634123 -0.230196
C27   C     C_2   0.080866 0.430335 0.447488 -0.035502
C28   C     C_R   0.705171 0.409640 0.010939 -0.178832
C29   C     C_2   0.050238 0.500630 0.428384 -0.310255
C30   C     C_2   0.139709 0.117366 0.071118 -0.041212
C31   C     C_2   0.069780 0.148513 0.084704 -0.238534
C32   C     C_2   0.117703 0.008444 0.054474 -0.145836
C33   C     C_2   0.015389 0.926279 0.006944 -0.213760
C34   C     C_R   0.707825 0.500584 0.078857 -0.007169
C35   C     C_R   0.007453 0.410214 0.703368 -0.132909
C36   C     C_R   0.801195 0.591032 0.109876 -0.111201
C37   C     C_R   0.688583 0.255001 0.778728 -0.117442
C38   C     C_R   0.053419 0.774451 0.960949 -0.123394
C39   C     C_R   0.997863 0.821387 0.994407 0.104941
C40   C     C_2   0.104802 0.358476 0.374821 1.003752
C41   C     C_2   0.239525 0.189164 0.077026 0.987630
C42   C     C_2   0.872046 0.684217 0.224239 0.945791
C43   C     C_R   0.046162 0.592675 0.314703 -0.087455
C44   C     C_R   0.223846 0.410418 0.939703 -0.098256
C45   C     C_R   0.305027 0.795116 0.214580 -0.143173
C46   C     C_R   0.963448 0.239751 0.054319 -0.100499
C47   C     C_R   0.058574 0.241842 0.967533 -0.087392
H1    H     H_    0.202995 0.327360 0.889533 0.080734
H2    H     H_    0.361778 0.338252 0.002887 0.165971
H3    H     H_    0.669018 0.633563 0.229202 0.210420
H4    H     H_    0.686629 0.684367 0.138480 0.143371
H5    H     H_    0.519553 0.648533 0.191189 0.167986
H6    H     H_    0.432756 0.447287 0.143012 0.214084
H7    H     H_    0.156193 0.676279 0.827156 0.094881
H8    H     H_    0.166314 0.589542 0.648777 0.143786
H9    H     H_    0.038141 0.554615 0.486507 0.159121
H10   H     H_    0.944942 0.936391 0.981039 0.136852
H11   H     H_    0.987537 0.327182 0.654001 0.091124
H12   H     H_    0.361290 0.824110 0.187599 0.094380
H13   H     H_    0.626178 0.247321 0.800430 0.089705
H14   H     H_    0.102335 0.799035 0.925431 0.112091
H15   H     H_    0.093528 0.677580 0.379007 0.101226
H16   H     H_    0.922362 0.803079 0.095648 0.144863
H17   H     H_    0.921186 0.215757 0.095026 0.088384
H18   H     H_    0.185298 0.825921 0.360214 0.111793
H19   H     H_    0.526665 0.398034 0.882636 0.156751
H20   H     H_    0.592083 0.542553 0.930810 0.160041
H21   H     H_    0.528912 0.680851 0.087403 0.159702
H22   H     H_    0.582525 0.430842 0.165025 0.181227
H23   H     H_    0.104663 0.222023 0.930960 0.090289
H24   H     H_    0.307239 0.015498 0.456862 0.131849
H25   H     H_    0.478864 0.981145 0.406047 0.134734
H26   H     H_    0.473030 0.160809 0.637485 0.116850
H27   H     H_    0.585866 0.158580 0.499664 0.133211
H28   H     H_    0.037079 0.337197 0.527243 0.155693
H29   H     H_    0.115310 0.221286 0.324809 0.325932
H30   H     H_    0.364103 0.200570 0.049767 0.312772
H31   H     H_    0.016640 0.107377 0.109797 0.132013
H32   H     H_    0.185846 0.994296 0.078193 0.161919
H33   H     H_    0.647381 0.324566 0.977574 0.101036
H34   H     H_    0.901733 0.327052 0.204997 0.072560
H35   H     H_    0.911385 0.741770 0.382957 0.320842
H36   H     H_    0.374620 0.680228 0.080795 0.090219
H37   H     H_    0.427371 0.530115 0.888254 0.163377
H38   H     H_    0.800309 0.245601 0.623158 0.103992
H39   H     H_    0.366631 0.388738 0.853840 0.158750
H40   H     H_    0.513561 0.332424 0.021620 0.154137
N1    N     N_R   0.993980 0.704500 0.053430 -0.035128
N2    N     N_R   0.053690 0.556380 0.849240 -0.043581
N3    N     N_R   0.790390 0.443640 0.997160 -0.045304
N4    N     N_R   0.998260 0.443670 0.792970 -0.045654
N5    N     N_R   0.845830 0.556350 0.053430 -0.060420
N6    N     N_R   0.792820 0.295510 0.849240 -0.048404
N7    N     N_R   0.051260 0.704510 0.997160 -0.052754
N8    N     N_R   0.001740 0.556330 0.207030 -0.050758
N9    N     N_R   0.154170 0.443650 0.946570 -0.034292
N10   N     N_R   0.207180 0.704490 0.150760 -0.042982
N11   N     N_R   0.948740 0.295490 0.002840 -0.051584
N12   N     N_R   0.006020 0.295500 0.946570 -0.054548
N13   N     N_R   0.149890 0.704480 0.207030 -0.038797
N14   N     N_R   0.946310 0.443620 0.150760 -0.050337
N15   N     N_R   0.209610 0.556360 0.002840 -0.034416
N16   N     N_R   0.850110 0.295520 0.792970 -0.046107
Ni1   Ni    Ni4+2 0.997880 0.629240 0.129060 0.271627
Ni2   Ni    Ni4+2 0.002120 0.370760 0.870940 0.215587
Ni3   Ni    Ni4+2 0.129260 0.629260 0.000000 0.214090
Ni4   Ni    Ni4+2 0.870740 0.370740 0.000000 0.214318
O1    O     O_2   0.137709 0.385240 0.318095 -0.627755
O2    O     O_R   0.094706 0.262271 0.375662 -0.818238
O3    O     O_2   0.277456 0.288528 0.122958 -0.654006
O4    O     O_R   0.293550 0.143329 0.035465 -0.826944
O5    O     O_2   0.949041 0.767057 0.246867 -0.682660
O6    O     O_R   0.856026 0.674070 0.308159 -0.824482

loop_
_geom_bond_atom_site_label_1
_geom_bond_atom_site_label_2
_ccdc_geom_bond_type
N14   Ni4   S    
N9    Ni2   S    
N9    N15   A    
C27   C29   D    
N5    Ni1   S    
N4    Ni2   S    
C36   C42   S    
C2    H18   S    
C24   H27   S    
C26   H8    S    
N6    N16   A    
C14   H3    S    
C10   H20   S    
C33   C39   S    
C13   C18   S    
C35   H11   S    
N3    Ni4   S    
C10   C15   S    
C30   C31   D    
C5    H36   S    
C11   H39   S    
C4    N16   A    
N13   Ni1   S    
C47   N12   A    
C23   C26   S    
C12   C37   A    
H30   O4    S    
C42   O5    D    
C8    C45   A    
C18   H6    S    
C19   H5    S    
C45   H12   S    
H29   O2    S    
C7    C17   S    
N2    Ni3   S    
C3    H34   S    
C43   N8    A    
C30   C41   S    
C4    C12   A    
C15   C34   S    
C40   O1    D    
C38   H14   S    
C36   N5    A    
C1    N1    A    
C46   N11   A    
C28   C34   A    
C16   N2    A    
C38   N7    A    
C1    H16   S    
N1    Ni1   S    
C8    C21   S    
C10   H19   S    
N12   Ni2   S    
N1    N7    A    
C21   H25   S    
N16   Ni2   S    
C5    C7    A    
C1    C39   A    
C4    H38   S    
C25   C26   D    
N11   Ni4   S    
C46   H17   S    
C25   H28   S    
C47   H23   S    
C44   N9    A    
C42   O6    S    
N3    N5    A    
C14   H4    S    
C27   C40   S    
C13   H40   S    
C17   C18   S    
C37   N6    A    
C19   H21   S    
C20   H24   S    
C7    C44   A    
N10   Ni3   S    
C20   C22   S    
C9    C47   A    
C16   C23   A    
C23   C35   A    
C6    C43   A    
C13   C15   S    
C22   C24   D    
N2    N4    A    
N10   N13   A    
N8    Ni1   S    
C31   H31   S    
C5    N15   A    
N7    Ni3   S    
C33   H10   S    
C14   C19   S    
C2    C8    A    
H35   O6    S    
C11   C17   S    
C40   O2    S    
C29   H9    S    
C11   H37   S    
C25   C27   S    
C12   C24   S    
C41   O3    D    
C32   C33   D    
C45   N10   A    
N6    Ni4   S    
C32   H32   S    
C30   C32   S    
C3    N14   A    
C38   C39   A    
C13   H22   S    
C17   C19   S    
N15   Ni3   S    
C34   C36   A    
C28   H33   S    
C16   H7    S    
C37   H13   S    
C10   C11   S    
C9    C31   S    
C2    N13   A    
N8    N14   A    
C9    C46   A    
C6    C29   S    
C20   C21   D    
C43   H15   S    
N11   N12   A    
C41   O4    S    
C3    C6    A    
C14   C15   S    
C28   N3    A    
C22   H26   S    
C44   H1    S    
C18   H2    S    
C35   N4    A    
