data_mof_unit_35811.cif
_audit_creation_date              2012-12-11T15:43:02-0500
_audit_creation_method            fapswitch 2.2
_symmetry_space_group_name_H-M    P1
_symmetry_Int_Tables_number       1
_space_group_crystal_system       triclinic
_cell_length_a                    18.977411
_cell_length_b                    11.097338
_cell_length_c                    18.707323
_cell_angle_alpha                 89.521754
_cell_angle_beta                  89.794182
_cell_angle_gamma                 90.001977
_cell_volume                      3939.57606176

loop_
_atom_site_label
_atom_site_type_symbol
_atom_type_description
_atom_site_fract_x
_atom_site_fract_y
_atom_site_fract_z
_atom_type_partial_charge
C1    C     C_R   0.730897 0.377306 0.146566 0.558812
C2    C     C_R   0.288430 0.330173 0.861494 0.581622
C3    C     C_R   0.230897 0.877306 0.146566 0.558812
C4    C     C_R   0.788430 0.830173 0.861494 0.581622
C5    C     C_R   0.537833 0.363972 0.917141 -0.070536
C6    C     C_R   0.519644 0.393975 0.063593 -0.085987
C7    C     C_R   0.037833 0.863972 0.917141 -0.070536
C8    C     C_R   0.019644 0.893975 0.063593 -0.085987
C9    C     C_R   0.049829 0.975790 0.947645 -0.108222
C10   C     C_R   0.039131 0.991138 0.020414 -0.128808
C11   C     C_R   0.549829 0.475790 0.947645 -0.108221
C12   C     C_R   0.539131 0.491138 0.020415 -0.128807
C13   C     C_R   0.778627 0.844878 0.938237 0.026392
C14   C     C_R   0.255844 0.924463 0.079011 0.023590
C15   C     C_R   0.278627 0.344878 0.938237 0.026392
C16   C     C_R   0.755844 0.424463 0.079011 0.023590
C17   C     C_R   0.713879 0.824168 0.971582 -0.039693
C18   C     C_R   0.302578 0.857256 0.036691 -0.003846
C19   C     C_R   0.213879 0.324167 0.971582 -0.039693
C20   C     C_R   0.802578 0.357256 0.036691 -0.003845
C21   C     C_R   0.703465 0.851573 0.042625 0.022374
C22   C     C_R   0.303548 0.872418 0.963278 -0.008325
C23   C     C_R   0.203465 0.351572 0.042625 0.022376
C24   C     C_R   0.803548 0.372418 0.963279 -0.008325
C25   C     C_R   0.825933 0.904446 0.053391 -0.162130
C26   C     C_R   0.218659 0.032469 0.973943 -0.136244
C27   C     C_R   0.325933 0.404446 0.053391 -0.162130
C28   C     C_R   0.718659 0.532469 0.973943 -0.136244
C29   C     C_R   0.836140 0.876888 0.981234 -0.147781
C30   C     C_R   0.219469 0.020740 0.047705 -0.143602
C31   C     C_R   0.336140 0.376888 0.981234 -0.147781
C32   C     C_R   0.719469 0.520740 0.047706 -0.143602
C33   C     C_3   0.641156 0.861188 0.950964 -0.252851
C34   C     C_3   0.312474 0.723587 0.030758 -0.230770
C35   C     C_3   0.141156 0.361186 0.950964 -0.252851
C36   C     C_3   0.812474 0.223587 0.030758 -0.230770
C37   C     C_3   0.629452 0.893035 0.029375 -0.032521
C38   C     C_3   0.313643 0.740831 0.950038 -0.068237
C39   C     C_3   0.129452 0.393034 0.029375 -0.032522
C40   C     C_3   0.813643 0.240832 0.950038 -0.068237
C41   C     C_R   0.757699 0.901681 0.083135 0.007607
C42   C     C_R   0.257024 0.952753 0.930744 0.049175
C43   C     C_R   0.257699 0.401681 0.083135 0.007608
C44   C     C_R   0.757024 0.452753 0.930745 0.049176
C45   C     C_R   0.530917 0.156980 0.147440 0.534238
C46   C     C_R   0.466675 0.153970 0.853995 0.517344
C47   C     C_R   0.030917 0.656980 0.147440 0.534238
C48   C     C_R   0.966675 0.653970 0.853995 0.517344
C49   C     C_R   0.497492 0.172897 0.576533 0.031270
C50   C     C_R   0.510989 0.157167 0.427733 0.032350
C51   C     C_R   0.997493 0.672897 0.576533 0.031270
C52   C     C_R   0.010989 0.657166 0.427733 0.032351
C53   C     C_R   0.534360 0.078705 0.547000 0.041987
C54   C     C_R   0.541595 0.072383 0.473819 0.049825
C55   C     C_R   0.034361 0.578705 0.547000 0.041983
C56   C     C_R   0.041595 0.572382 0.473819 0.049823
C57   C     C_R   0.470435 0.249032 0.456724 -0.172388
C58   C     C_R   0.467073 0.259665 0.531120 -0.157757
C59   C     C_R   0.970436 0.749031 0.456724 -0.172387
C60   C     C_R   0.967073 0.759665 0.531121 -0.157755
C61   C     C_3   0.610158 0.048591 0.558897 -0.307221
C62   C     C_3   0.617030 0.038459 0.478872 -0.261868
C63   C     C_3   0.110158 0.548591 0.558896 -0.307224
C64   C     C_3   0.117029 0.538456 0.478871 -0.261866
C65   C     C_R   0.780778 0.842902 0.562222 -0.029896
C66   C     C_R   0.226605 0.862497 0.434169 -0.047380
C67   C     C_R   0.280778 0.342902 0.562222 -0.029896
C68   C     C_R   0.726605 0.362497 0.434169 -0.047380
C69   C     C_R   0.827198 0.916983 0.525984 -0.004990
C70   C     C_R   0.170354 0.870563 0.481729 -0.011496
C71   C     C_R   0.327198 0.416984 0.525984 -0.004991
C72   C     C_R   0.670354 0.370562 0.481730 -0.011497
C73   C     C_R   0.821550 0.941091 0.454738 -0.021589
C74   C     C_R   0.181140 0.891457 0.553222 -0.032497
C75   C     C_R   0.321550 0.441092 0.454739 -0.021590
C76   C     C_R   0.681140 0.391455 0.553222 -0.032497
C77   C     C_R   0.725069 0.803538 0.445829 0.220871
C78   C     C_R   0.307982 0.893531 0.532389 0.217370
C79   C     C_R   0.225069 0.303538 0.445829 0.220872
C80   C     C_R   0.807982 0.393533 0.532389 0.217370
C81   C     C_R   0.732191 0.776946 0.520243 -0.145740
C82   C     C_R   0.295662 0.869726 0.460199 -0.163184
C83   C     C_R   0.232191 0.276946 0.520243 -0.145741
C84   C     C_R   0.795661 0.369726 0.460199 -0.163182
C85   C     C_3   0.853167 0.038673 0.543310 -0.278491
C86   C     C_3   0.107370 0.951503 0.480265 -0.264686
C87   C     C_3   0.353165 0.538675 0.543310 -0.278491
C88   C     C_3   0.607370 0.451502 0.480266 -0.264687
C89   C     C_R   0.742212 0.968058 0.148239 0.527889
C90   C     C_R   0.260022 0.975670 0.854789 0.554411
C91   C     C_R   0.242212 0.468058 0.148239 0.527888
C92   C     C_R   0.760022 0.475670 0.854789 0.554411
C93   C     C_3   0.848304 0.065914 0.464304 -0.274482
C94   C     C_3   0.115477 0.965231 0.559895 -0.265564
C95   C     C_3   0.348302 0.565916 0.464305 -0.274482
C96   C     C_3   0.615476 0.465228 0.559896 -0.265563
C97   C     C_R   0.764182 0.899650 0.416421 0.026399
C98   C     C_R   0.249131 0.913187 0.578305 0.018822
C99   C     C_R   0.264182 0.399650 0.416421 0.026401
C100  C     C_R   0.749131 0.413187 0.578305 0.018822
C101  C     C_R   0.712738 0.336081 0.360167 0.554477
C102  C     C_R   0.289030 0.331060 0.640172 0.576212
C103  C     C_R   0.212739 0.836081 0.360167 0.554477
C104  C     C_R   0.789030 0.831060 0.640172 0.576212
C105  C     C_R   0.533183 0.155771 0.353851 0.526357
C106  C     C_R   0.468638 0.158311 0.647479 0.553206
C107  C     C_R   0.033183 0.655771 0.353851 0.526357
C108  C     C_R   0.968638 0.658311 0.647479 0.553204
C109  C     C_R   0.743125 0.968303 0.352941 0.533743
C110  C     C_R   0.259023 0.972017 0.645814 0.569132
C111  C     C_R   0.243125 0.468303 0.352941 0.533743
C112  C     C_R   0.759023 0.472018 0.645814 0.569132
C113  C     C_R   0.488914 0.158674 0.928421 -0.018279
C114  C     C_R   0.497743 0.172879 0.077284 -0.017549
C115  C     C_R   0.988915 0.658674 0.928421 -0.018279
C116  C     C_R   0.997743 0.672879 0.077284 -0.017549
C117  C     C_R   0.513259 0.266234 0.959293 0.020418
C118  C     C_R   0.510547 0.277777 0.034481 0.039805
C119  C     C_R   0.013259 0.766233 0.959293 0.020418
C120  C     C_R   0.010547 0.777777 0.034480 0.039805
C121  C     C_R   0.470907 0.069903 0.045693 -0.149616
C122  C     C_R   0.466885 0.062443 0.972480 -0.134680
C123  C     C_R   0.970907 0.569903 0.045693 -0.149616
C124  C     C_R   0.966885 0.562443 0.972480 -0.134680
Cr1   Cr    Cr6+3 0.772010 0.169670 0.250090 0.999614
Cr2   Cr    Cr6+3 0.227990 0.169670 0.749910 0.999827
Cr3   Cr    Cr6+3 0.272010 0.669670 0.250090 0.999613
Cr4   Cr    Cr6+3 0.727990 0.669670 0.749910 0.999826
Cr5   Cr    Cr6+3 0.615000 0.323260 0.249260 0.988366
Cr6   Cr    Cr6+3 0.385000 0.323260 0.750740 1.008027
Cr7   Cr    Cr6+3 0.115000 0.823260 0.249260 0.988367
Cr8   Cr    Cr6+3 0.885000 0.823260 0.750740 1.008028
Cr9   Cr    Cr6+3 0.616710 0.010760 0.250840 1.058883
Cr10  Cr    Cr6+3 0.383290 0.010760 0.749160 1.031252
Cr11  Cr    Cr6+3 0.116710 0.510760 0.250840 1.058885
Cr12  Cr    Cr6+3 0.883290 0.510760 0.749160 1.031255
H1    H     H_    0.455963 0.992484 0.077904 0.182560
H2    H     H_    0.444915 0.980691 0.950532 0.175807
H3    H     H_    0.955963 0.492485 0.077904 0.182561
H4    H     H_    0.944915 0.480691 0.950532 0.175806
H5    H     H_    0.447690 0.317978 0.422663 0.121739
H6    H     H_    0.442289 0.336384 0.554309 0.140342
H7    H     H_    0.947690 0.817978 0.422664 0.121738
H8    H     H_    0.942289 0.836383 0.554309 0.140342
H9    H     H_    0.117422 0.461245 0.587401 0.148872
H10   H     H_    0.153295 0.605947 0.454393 0.126723
H11   H     H_    0.617421 0.961245 0.587402 0.148873
H12   H     H_    0.653295 0.105952 0.454395 0.126721
H13   H     H_    0.640695 0.124956 0.581334 0.146979
H14   H     H_    0.622830 0.945113 0.460805 0.200163
H15   H     H_    0.140696 0.624955 0.581332 0.146979
H16   H     H_    0.122828 0.445110 0.460805 0.200161
H17   H     H_    0.697371 0.712368 0.545285 0.133526
H18   H     H_    0.340289 0.862020 0.424249 0.151134
H19   H     H_    0.197371 0.212368 0.545285 0.133526
H20   H     H_    0.840288 0.362022 0.424248 0.151135
H21   H     H_    0.908079 0.037820 0.563733 0.128153
H22   H     H_    0.058912 0.907061 0.463966 0.151737
H23   H     H_    0.408077 0.537823 0.563734 0.128154
H24   H     H_    0.558912 0.407061 0.463966 0.151737
H25   H     H_    0.814040 0.089652 0.575550 0.152325
H26   H     H_    0.116168 0.037769 0.452200 0.158577
H27   H     H_    0.314036 0.589650 0.575550 0.152324
H28   H     H_    0.616169 0.537769 0.452202 0.158575
H29   H     H_    0.807864 0.134872 0.451935 0.154546
H30   H     H_    0.123580 0.060219 0.575509 0.155160
H31   H     H_    0.307862 0.634872 0.451936 0.154546
H32   H     H_    0.623579 0.560217 0.575510 0.155160
H33   H     H_    0.900389 0.079142 0.437940 0.137466
H34   H     H_    0.074074 0.917389 0.591238 0.141052
H35   H     H_    0.400387 0.579146 0.437941 0.137466
H36   H     H_    0.574074 0.417386 0.591239 0.141052
H37   H     H_    0.547629 0.355121 0.860446 0.135613
H38   H     H_    0.508246 0.413446 0.118873 0.134512
H39   H     H_    0.047630 0.855121 0.860446 0.135613
H40   H     H_    0.008246 0.913446 0.118872 0.134512
H41   H     H_    0.066170 0.051188 0.914491 0.119447
H42   H     H_    0.046590 0.078266 0.043852 0.162021
H43   H     H_    0.566170 0.551188 0.914491 0.119447
H44   H     H_    0.546590 0.578266 0.043852 0.162021
H45   H     H_    0.869956 0.939042 0.083588 0.133430
H46   H     H_    0.185237 0.100540 0.950584 0.136188
H47   H     H_    0.369956 0.439043 0.083588 0.133430
H48   H     H_    0.685237 0.600541 0.950584 0.136188
H49   H     H_    0.887761 0.889452 0.957837 0.147237
H50   H     H_    0.185003 0.077608 0.079056 0.162372
H51   H     H_    0.387761 0.389453 0.957837 0.147237
H52   H     H_    0.685004 0.577609 0.079056 0.162369
H53   H     H_    0.109635 0.283519 0.931738 0.142960
H54   H     H_    0.766412 0.171867 0.051265 0.182300
H55   H     H_    0.609635 0.783522 0.931737 0.142961
H56   H     H_    0.266413 0.671867 0.051265 0.182301
H57   H     H_    0.640747 0.940841 0.914659 0.155743
H58   H     H_    0.364106 0.693887 0.052573 0.149014
H59   H     H_    0.140746 0.440839 0.914659 0.155743
H60   H     H_    0.864106 0.193887 0.052573 0.149014
H61   H     H_    0.621818 0.991147 0.038238 0.134797
H62   H     H_    0.365842 0.721360 0.925426 0.127663
H63   H     H_    0.121817 0.491145 0.038238 0.134798
H64   H     H_    0.865842 0.221360 0.925426 0.127663
O1    O     O_R   0.787520 0.042810 0.170440 -0.539407
O2    O     O_R   0.212480 0.042810 0.829560 -0.540765
O3    O     O_R   0.287520 0.542810 0.170440 -0.539407
O4    O     O_R   0.712480 0.542810 0.829560 -0.540765
O5    O     O_R   0.556610 0.252880 0.323980 -0.522792
O6    O     O_R   0.443390 0.252880 0.676020 -0.536763
O7    O     O_R   0.056610 0.752880 0.323980 -0.522791
O8    O     O_R   0.943390 0.752880 0.676020 -0.536762
O9    O     O_R   0.545950 0.051210 0.330860 -0.502043
O10   O     O_R   0.454050 0.051210 0.669140 -0.486435
O11   O     O_R   0.045950 0.551210 0.330860 -0.502044
O12   O     O_R   0.954050 0.551210 0.669140 -0.486435
O13   O     O_R   0.681390 0.959480 0.325510 -0.469618
O14   O     O_R   0.318610 0.959480 0.674490 -0.453006
O15   O     O_R   0.181390 0.459480 0.325510 -0.469618
O16   O     O_R   0.818610 0.459480 0.674490 -0.453009
O17   O     O_3   0.667900 0.167900 0.250060 -0.269385
O18   O     O_3   0.332100 0.167900 0.749940 -0.300739
O19   O     O_3   0.167900 0.667900 0.250060 -0.269385
O20   O     O_3   0.832100 0.667900 0.749940 -0.300738
O21   O     O_R   0.765640 0.292100 0.175020 -0.498522
O22   O     O_R   0.234360 0.292100 0.824980 -0.494906
O23   O     O_R   0.265640 0.792100 0.175020 -0.498522
O24   O     O_R   0.734360 0.792100 0.824980 -0.494906
O25   O     O_R   0.670190 0.408840 0.168540 -0.515423
O26   O     O_R   0.329810 0.408840 0.831460 -0.462574
O27   O     O_R   0.170190 0.908840 0.168540 -0.515422
O28   O     O_R   0.829810 0.908840 0.831460 -0.462574
O29   O     O_R   0.556620 0.251410 0.175160 -0.510818
O30   O     O_R   0.443380 0.251410 0.824840 -0.533064
O31   O     O_R   0.056620 0.751410 0.175160 -0.510818
O32   O     O_R   0.943380 0.751410 0.824840 -0.533064
O33   O     O_R   0.545960 0.049620 0.170320 -0.497104
O34   O     O_R   0.454040 0.049620 0.829680 -0.523293
O35   O     O_R   0.045960 0.549620 0.170320 -0.497105
O36   O     O_R   0.954040 0.549620 0.829680 -0.523292
O37   O     O_R   0.681390 0.958010 0.176690 -0.470112
O38   O     O_R   0.318610 0.958010 0.823310 -0.500252
O39   O     O_R   0.181390 0.458010 0.176690 -0.470112
O40   O     O_R   0.818610 0.458010 0.823310 -0.500251
O41   O     O_R   0.787510 0.044390 0.330970 -0.539783
O42   O     O_R   0.212490 0.044390 0.669030 -0.546773
O43   O     O_R   0.287510 0.544390 0.330970 -0.539783
O44   O     O_R   0.712490 0.544390 0.669030 -0.546773
O45   O     O_R   0.765630 0.293570 0.323840 -0.510500
O46   O     O_R   0.234370 0.293570 0.676160 -0.500909
O47   O     O_R   0.265630 0.793570 0.323840 -0.510500
O48   O     O_R   0.734370 0.793570 0.676160 -0.500910
O49   O     O_R   0.670190 0.410420 0.329080 -0.548513
O50   O     O_R   0.329810 0.410420 0.670920 -0.502221
O51   O     O_R   0.170190 0.910420 0.329080 -0.548513
O52   O     O_R   0.829810 0.910420 0.670920 -0.502221
O53   O     O_3   0.670019 0.756547 0.407070 -0.587233
C125  C     C_3   0.694508 0.661007 0.364263 -0.006572
H65   H     H_    0.646538 0.614780 0.345354 0.188744
H66   H     H_    0.727201 0.596583 0.395652 0.151327
C126  C     C_3   0.734221 0.699546 0.296508 -0.357743
H67   H     H_    0.785536 0.741567 0.309530 0.119948
H68   H     H_    0.745455 0.618538 0.263907 0.129265
H69   H     H_    0.701559 0.761363 0.263687 0.197756
O54   O     O_3   0.377017 0.912865 0.554859 -0.519258
C127  C     C_3   0.408940 0.798925 0.564225 0.004701
H70   H     H_    0.407799 0.749657 0.513321 0.124997
H71   H     H_    0.382250 0.749173 0.608494 0.139842
C128  C     C_3   0.486705 0.806158 0.582597 -0.358046
H72   H     H_    0.495689 0.858615 0.631595 0.188599
H73   H     H_    0.507027 0.713665 0.592548 0.073765
H74   H     H_    0.516582 0.843618 0.536648 0.159538
O55   O     O_3   0.170020 0.256546 0.407069 -0.587235
C129  C     C_3   0.194510 0.161007 0.364263 -0.006573
H75   H     H_    0.146541 0.114782 0.345350 0.188747
H76   H     H_    0.227200 0.096581 0.395654 0.151330
C130  C     C_3   0.234229 0.199544 0.296511 -0.357752
H77   H     H_    0.285546 0.241554 0.309539 0.119946
H78   H     H_    0.245459 0.118536 0.263908 0.129268
H79   H     H_    0.201573 0.261370 0.263691 0.197754
O56   O     O_3   0.877017 0.412870 0.554858 -0.519258
C131  C     C_3   0.908943 0.298931 0.564225 0.004697
H80   H     H_    0.907791 0.249653 0.513326 0.124994
H81   H     H_    0.882261 0.249188 0.608502 0.139852
C132  C     C_3   0.986711 0.306166 0.582577 -0.358064
H82   H     H_    0.995709 0.358647 0.631563 0.188606
H83   H     H_    0.007033 0.213677 0.592537 0.073773
H84   H     H_    0.016577 0.343605 0.536614 0.159536
C133  C     C_2   0.575658 0.814789 0.066639 0.561118
O57   O     O_2   0.517583 0.800725 0.039903 -0.589624
O58   O     O_R   0.591581 0.760289 0.132306 -0.698868
H85   H     H_    0.550733 0.711842 0.152539 0.315552
C134  C     C_2   0.252158 0.684026 0.912046 0.566741
O59   O     O_2   0.261913 0.632671 0.855383 -0.490029
O60   O     O_R   0.184073 0.693460 0.940317 -0.716611
H86   H     H_    0.147326 0.655835 0.908324 0.324895
C135  C     C_2   0.075659 0.314787 0.066640 0.561118
O61   O     O_2   0.017583 0.300725 0.039905 -0.589623
O62   O     O_R   0.091583 0.260284 0.132306 -0.698868
H87   H     H_    0.050735 0.211837 0.152539 0.315553
C136  C     C_2   0.752158 0.184026 0.912046 0.566740
O63   O     O_2   0.761913 0.132670 0.855383 -0.490029
O64   O     O_R   0.684073 0.193462 0.940316 -0.716611
H88   H     H_    0.647326 0.155837 0.908323 0.324895

loop_
_geom_bond_atom_site_label_1
_geom_bond_atom_site_label_2
_ccdc_geom_bond_type
Cr10  O10   S    
Cr2   O46   S    
O60   H86   S    
C102  O46   A    
C73   C93   S    
Cr4   O24   S    
C75   C95   S    
Cr2   O2    S    
C132  H84   S    
C45   O29   A    
C64   H16   S    
C79   C99   A    
C16   C20   A    
C111  O15   A    
C22   C38   S    
C130  H79   S    
C23   C43   A    
C1    O21   A    
C125  H66   S    
C113  C122  A    
C70   C74   A    
C96   H32   S    
C107  O7    A    
C44   C92   S    
C34   H58   S    
C59   C60   A    
Cr10  O38   S    
C47   O35   A    
C25   C29   A    
C47   C116  S    
Cr5   O49   S    
C90   O38   A    
C27   C31   A    
C7    C119  A    
C28   C32   A    
C68   C101  S    
C25   C41   A    
C6    H38   S    
C28   C44   A    
C17   C21   A    
Cr4   O48   S    
C19   C23   A    
C66   C82   A    
C110  O42   A    
C68   C72   A    
C93   H33   S    
C77   O53   S    
C26   H46   S    
Cr12  O40   S    
C80   O56   S    
Cr4   O44   S    
C129  H76   S    
C11   H43   S    
C9    H41   S    
C2    O26   A    
C111  O43   A    
C62   H14   S    
C64   H10   S    
C50   C57   A    
C66   C103  S    
C106  O6    A    
C49   C106  S    
C76   C100  A    
C33   H55   S    
C103  O51   A    
C34   H56   S    
C133  O58   S    
C19   C35   S    
C94   H34   S    
C84   H20   S    
C66   C70   A    
C49   C53   A    
C87   H23   S    
C51   C55   A    
C88   H24   S    
Cr9   O17   S    
C112  O44   A    
Cr6   O26   S    
C8    C10   A    
C5    C117  A    
C42   C90   S    
C61   H13   S    
C76   C96   S    
Cr2   O18   S    
C90   O2    A    
C106  O10   A    
C41   C89   S    
C67   C83   A    
C104  O52   A    
C116  C123  A    
Cr9   O9    S    
C108  O8    A    
Cr7   O7    S    
C123  C124  A    
C74   C98   A    
C53   C54   A    
C79   O55   S    
C36   H54   S    
C46   O34   A    
C110  O14   A    
O54   C127  S    
C83   H19   S    
C123  H3    S    
C81   H17   S    
C126  H67   S    
C121  H1    S    
Cr6   O18   S    
Cr12  O12   S    
C85   C93   S    
C45   C114  S    
C55   C63   S    
Cr2   O42   S    
C50   C105  S    
C38   H62   S    
C77   C97   A    
C9    C10   A    
Cr4   O20   S    
C59   H7    S    
C62   H12   S    
O56   C131  S    
C136  O64   S    
Cr9   O37   S    
C108  O12   A    
Cr7   O51   S    
C27   H47   S    
C18   C34   S    
Cr3   O43   S    
C21   C41   A    
C125  C126  S    
C88   H28   S    
C38   C134  S    
C116  C120  A    
Cr8   O20   S    
C36   H60   S    
C135  O61   D    
Cr6   O6    S    
Cr7   O27   S    
C97   C109  S    
C99   C111  S    
C75   C99   A    
C134  O59   D    
Cr10  O34   S    
C114  C118  A    
C128  H73   S    
C113  C117  A    
C12   H44   S    
C26   C30   A    
C115  C119  A    
C31   H51   S    
C69   C85   S    
C26   C42   A    
Cr7   O31   S    
C39   H63   S    
C92   O40   A    
C3    O23   A    
C46   C113  S    
C18   C22   A    
C5    H37   S    
C101  O49   A    
C95   H31   S    
C8    H40   S    
C15   C31   A    
C127  H70   S    
Cr1   O21   S    
C16   C32   A    
C13   C17   A    
C126  H69   S    
C28   H48   S    
C117  C118  A    
C57   C58   A    
C95   H35   S    
Cr12  O36   S    
C130  H78   S    
C29   H49   S    
C112  O16   A    
C61   C62   S    
C63   C64   S    
Cr5   O25   S    
C131  H80   S    
C51   C60   A    
C63   H9    S    
Cr11  O11   S    
C55   C56   A    
C88   C96   S    
C98   C110  S    
C85   H25   S    
C74   C94   S    
Cr1   O45   S    
C80   C84   A    
C101  O45   A    
C94   H30   S    
C127  C128  S    
Cr3   O19   S    
C15   C19   A    
Cr1   O1    S    
C50   C54   A    
C85   H21   S    
C13   C29   A    
C40   C136  S    
C45   O33   A    
C5    C11   A    
Cr8   O28   S    
C6    C12   A    
C107  O11   A    
Cr6   O30   S    
C2    O22   A    
C105  O9    A    
Cr4   O4    S    
Cr5   O17   S    
C114  C121  A    
C52   C107  S    
C104  O48   A    
C131  C132  S    
C39   C135  S    
C69   C73   A    
C92   O4    A    
C35   H59   S    
C109  O41   A    
C33   H57   S    
C35   H53   S    
C102  O50   A    
O55   C129  S    
C46   O30   A    
C129  C130  S    
C17   C33   S    
C68   C84   A    
C89   O37   A    
C122  H2    S    
O62   H87   S    
C54   C62   S    
Cr10  O18   S    
C33   C37   S    
C35   C39   S    
O64   H88   S    
C133  O57   D    
Cr5   O5    S    
C58   H6    S    
C65   C81   A    
O58   H85   S    
C77   C81   A    
C1    C16   S    
Cr9   O33   S    
C2    C15   S    
C63   H15   S    
C121  C122  A    
C3    C14   S    
C71   C87   S    
C100  C112  S    
C24   C44   A    
Cr11  O35   S    
C132  H83   S    
C37   C133  S    
C3    O27   A    
C1    O25   A    
C115  C124  A    
C124  H4    S    
C119  C120  A    
C105  O5    A    
Cr12  O20   S    
C40   H64   S    
Cr10  O14   S    
C57   H5    S    
C61   H11   S    
C60   H8    S    
C79   C83   A    
O53   C125  S    
C65   C69   A    
C67   C71   A    
C4    O28   A    
C103  O47   A    
C20   C36   S    
C27   C43   A    
C21   C37   S    
C129  H75   S    
Cr3   O3    S    
C91   O3    A    
Cr1   O17   S    
C87   H27   S    
C136  O63   D    
C14   C18   A    
C72   C76   A    
C73   C97   A    
C125  H65   S    
C30   H50   S    
C109  O13   A    
C47   O31   A    
Cr5   O29   S    
Cr7   O19   S    
C4    C13   S    
C78   C82   A    
C86   C94   S    
C24   C40   S    
Cr11  O15   S    
C20   C24   A    
C51   C108  S    
C7    H39   S    
C78   C98   A    
Cr1   O41   S    
C86   H26   S    
C37   H61   S    
C128  H72   S    
Cr3   O23   S    
C93   H29   S    
C80   C100  A    
C53   C61   S    
C14   C30   A    
Cr8   O32   S    
C72   C88   S    
C25   H45   S    
Cr6   O50   S    
C32   H52   S    
C10   H42   S    
C36   C40   S    
C127  H71   S    
C132  H82   S    
C4    O24   A    
C43   C91   S    
C49   C58   A    
C87   C95   S    
C126  H68   S    
C82   H18   S    
C52   C59   A    
Cr11  O19   S    
C56   C64   S    
C130  H77   S    
C86   H22   S    
C48   O36   A    
C48   C115  S    
Cr8   O8    S    
C78   O54   S    
C131  H81   S    
C70   C86   S    
Cr8   O52   S    
C7    C9    A    
C8    C120  A    
C34   C38   S    
C11   C12   A    
Cr2   O22   S    
C89   O1    A    
Cr9   O13   S    
C135  O62   S    
C71   C75   A    
C22   C42   A    
C23   C39   S    
C134  O60   S    
Cr11  O39   S    
C128  H74   S    
C48   O32   A    
Cr3   O47   S    
C96   H36   S    
C91   O39   A    
C65   C104  S    
C6    C118  A    
C52   C56   A    
C67   C102  S    
Cr12  O16   S    
