data_mof_unit_57234.cif
_audit_creation_date              2012-12-10T17:50:11-0500
_audit_creation_method            fapswitch 2.2
_symmetry_space_group_name_H-M    P1
_symmetry_Int_Tables_number       1
_space_group_crystal_system       triclinic
_cell_length_a                    10.640443
_cell_length_b                    14.770497
_cell_length_c                    14.736756
_cell_angle_alpha                 64.133371
_cell_angle_beta                  104.036756
_cell_angle_gamma                 103.596538
_cell_volume                      1999.5324829

loop_
_atom_site_label
_atom_site_type_symbol
_atom_type_description
_atom_site_fract_x
_atom_site_fract_y
_atom_site_fract_z
_atom_type_partial_charge
C1    C     C_R   0.475448 0.120394 0.311777 0.784365
C2    C     C_R   0.519460 0.879600 0.688206 0.782820
C3    C     C_R   0.457272 0.294001 0.176982 -0.236343
C4    C     C_R   0.477779 0.705875 0.822507 -0.232730
C5    C     C_R   0.410284 0.360746 0.077778 0.076143
C6    C     C_R   0.449188 0.639062 0.920442 0.075322
C7    C     C_R   0.367020 0.321872 0.001214 0.078272
C8    C     C_R   0.476365 0.677973 0.996674 0.077829
C9    C     C_R   0.413628 0.466250 0.051275 -0.094270
C10   C     C_R   0.402706 0.533516 0.946205 -0.097065
C11   C     C_R   0.345537 0.491819 0.871817 0.389833
C12   C     C_R   0.427296 0.507917 0.124882 0.396253
C13   C     C_R   0.331059 0.387284 0.900096 -0.210094
C14   C     C_R   0.460670 0.612503 0.096910 -0.210166
C15   C     C_R   0.750024 0.306309 0.634711 -0.280143
C16   C     C_R   0.250054 0.693741 0.365152 -0.275409
C17   C     C_R   0.705111 0.216975 0.620011 0.581010
C18   C     C_R   0.294941 0.783061 0.379896 0.585676
C19   C     C_R   0.509181 0.280125 0.517574 -0.048208
C20   C     C_R   0.490770 0.719856 0.482444 -0.047323
C21   C     C_R   0.549851 0.372474 0.533128 -0.014085
C22   C     C_R   0.449984 0.627419 0.467058 -0.013145
C23   C     C_R   0.259324 0.999853 0.499849 0.788429
C24   C     C_R   0.740691 0.000148 0.500150 0.790037
C25   C     C_R   0.673691 0.383683 0.592520 0.067936
C26   C     C_R   0.326232 0.616261 0.407549 0.063485
C27   C     C_R   0.474296 0.454284 0.491222 0.097672
C28   C     C_R   0.525399 0.545506 0.509188 0.093298
C29   C     C_R   0.650175 0.551863 0.568260 -0.212536
C30   C     C_R   0.349317 0.447770 0.432496 -0.153274
C31   C     C_R   0.722234 0.472277 0.609288 -0.171799
C32   C     C_R   0.277523 0.527538 0.391046 -0.159018
C33   C     C_3   0.007500 0.923533 0.476234 -0.114654
C34   C     C_3   0.992573 0.076475 0.523768 -0.117274
C35   C     C_3   0.930995 0.013404 0.406866 -0.161490
C36   C     C_3   0.069079 0.986602 0.593135 -0.161709
C37   C     C_3   0.877960 0.000625 0.500247 0.017140
C38   C     C_3   0.122095 0.999380 0.499753 0.018105
C39   C     C_3   0.952275 0.910827 0.569634 -0.185370
C40   C     C_3   0.047801 0.089181 0.430365 -0.185452
C41   C     C_R   0.445174 0.189244 0.203464 -0.068520
C42   C     C_R   0.514109 0.810742 0.796199 -0.067254
C43   C     C_R   0.358453 0.217473 0.026872 -0.169252
C44   C     C_R   0.517278 0.782455 0.971463 -0.172686
C45   C     C_R   0.395118 0.151331 0.127641 -0.182437
C46   C     C_R   0.533824 0.848662 0.871497 -0.181226
Cu1   Cu    Cu3+1 0.465750 0.918270 0.475680 0.945038
Cu2   Cu    Cu3+1 0.534250 0.081730 0.524320 0.942241
H1    H     H_    0.871505 0.024424 0.330662 0.137506
H2    H     H_    0.128612 0.975561 0.669332 0.137562
H3    H     H_    0.580895 0.732476 0.530410 0.141116
H4    H     H_    0.419146 0.267599 0.469454 0.148774
H5    H     H_    0.845406 0.314601 0.680183 0.164820
H6    H     H_    0.154733 0.685489 0.319596 0.161739
H7    H     H_    0.695705 0.617792 0.584095 0.128756
H8    H     H_    0.303505 0.381608 0.417152 0.134683
H9    H     H_    0.015993 0.860817 0.456756 0.174690
H10   H     H_    0.984106 0.139191 0.543256 0.172782
H11   H     H_    0.910138 0.837880 0.626583 0.130490
H12   H     H_    0.090006 0.162109 0.373420 0.129734
H13   H     H_    0.290235 0.357065 0.842237 0.165780
H14   H     H_    0.473415 0.642683 0.154276 0.165925
H15   H     H_    0.473685 0.676842 0.765963 0.200538
H16   H     H_    0.505656 0.323051 0.234346 0.202473
H17   H     H_    0.561724 0.929332 0.853209 0.153389
H18   H     H_    0.384424 0.070745 0.146064 0.151741
H19   H     H_    0.322525 0.186887 0.968992 0.135327
H20   H     H_    0.535387 0.813075 0.028987 0.133974
H21   H     H_    0.817810 0.480448 0.654495 0.147721
H22   H     H_    0.181970 0.519356 0.345825 0.141913
N1    N     N_R   0.585750 0.204560 0.560800 -0.227213
N2    N     N_R   0.414250 0.795440 0.439200 -0.224343
O1    O     O_R   0.454850 0.022100 0.338110 -0.611144
O2    O     O_R   0.545150 0.977900 0.661890 -0.610908
O3    O     O_R   0.512700 0.160150 0.379180 -0.575439
O4    O     O_R   0.487300 0.839850 0.620820 -0.574301
O5    O     O_R   0.287930 0.931000 0.479440 -0.562995
O6    O     O_R   0.712070 0.069000 0.520560 -0.563512
O7    O     O_R   0.345780 0.069050 0.520520 -0.592129
O8    O     O_R   0.654220 0.930950 0.479480 -0.590955
O9    O     O_3   0.211724 0.854650 0.336041 -0.754044
H23   H     H_    0.264889 0.922100 0.316495 0.354309
O10   O     O_3   0.788313 0.145383 0.663824 -0.753997
H24   H     H_    0.735096 0.077940 0.683635 0.355923
O11   O     O_3   0.290801 0.548527 0.773522 -0.740286
H25   H     H_    0.256404 0.604611 0.775006 0.323856
O12   O     O_3   0.396704 0.451063 0.221733 -0.755944
H26   H     H_    0.325813 0.394861 0.218524 0.313717

loop_
_geom_bond_atom_site_label_1
_geom_bond_atom_site_label_2
_ccdc_geom_bond_type
C25   C31   A    
C38   C40   S    
O12   H26   S    
C26   C32   A    
C40   H12   S    
C34   C37   S    
C19   N1    A    
O9    H23   S    
C2    O4    A    
C3    H16   S    
C4    H15   S    
C33   C39   S    
C34   C40   S    
C15   H5    S    
Cu2   O7    S    
C28   C29   A    
C35   C37   S    
C11   O11   S    
Cu1   O4    S    
C20   H3    S    
C15   C25   A    
C14   H14   S    
C18   O9    S    
C42   C46   A    
Cu2   O6    S    
C19   H4    S    
C24   O8    A    
Cu1   Cu2   S    
C35   H1    S    
C8    C14   A    
C7    C43   A    
C9    C10   A    
C2    O2    A    
C21   C27   A    
C22   C28   A    
C27   C30   A    
C18   N2    A    
Cu2   O3    S    
Cu1   O8    S    
C44   C46   A    
C16   C26   A    
C1    O3    A    
Cu2   O2    S    
Cu1   O1    S    
C46   H17   S    
C4    C6    A    
C5    C7    A    
C32   H22   S    
C29   H7    S    
O11   H25   S    
C30   H8    S    
C17   O10   S    
C43   H19   S    
C5    C9    A    
O10   H24   S    
C7    C13   A    
C29   C31   A    
C39   H11   S    
C24   C37   S    
C23   O5    A    
C43   C45   A    
C1    C41   S    
C12   C14   A    
C17   N1    A    
C44   H20   S    
Cu1   O5    S    
Cu2   N1    S    
C45   H18   S    
C36   H2    S    
C24   O6    A    
C15   C17   A    
C21   C25   A    
C3    C41   A    
C33   H9    S    
C12   O12   S    
C19   C21   A    
C36   C39   S    
C8    C44   A    
C20   C22   A    
C3    C5    A    
C6    C10   A    
C6    C8    A    
C23   C38   S    
C33   C38   S    
C1    O1    A    
C36   C38   S    
C35   C40   S    
C37   C39   S    
C30   C32   A    
C11   C13   A    
C4    C42   A    
C2    C42   S    
C33   C35   S    
C34   C36   S    
C9    C12   A    
C16   H6    S    
Cu1   N2    S    
C10   C11   A    
C31   H21   S    
C13   H13   S    
C16   C18   A    
C22   C26   A    
C27   C28   A    
C34   H10   S    
C41   C45   A    
C20   N2    A    
C23   O7    A    
