data_mof_unit_58667.cif
_audit_creation_date              2012-12-11T15:19:34-0500
_audit_creation_method            fapswitch 2.2
_symmetry_space_group_name_H-M    P1
_symmetry_Int_Tables_number       1
_space_group_crystal_system       triclinic
_cell_length_a                    19.939713
_cell_length_b                    6.883113
_cell_length_c                    18.162577
_cell_angle_alpha                 90.152076
_cell_angle_beta                  104.028259
_cell_angle_gamma                 90.105676
_cell_volume                      2418.40465327

loop_
_atom_site_label
_atom_site_type_symbol
_atom_type_description
_atom_site_fract_x
_atom_site_fract_y
_atom_site_fract_z
_atom_type_partial_charge
O1    O     O_R   0.312200 0.620210 0.189560 -0.538114
O2    O     O_R   0.687800 0.379790 0.810440 -0.538195
O3    O     O_R   0.187800 0.120210 0.310440 -0.539595
O4    O     O_R   0.812200 0.879790 0.689560 -0.540571
O5    O     O_R   0.171590 0.286140 0.165000 -0.534701
O6    O     O_R   0.828410 0.713860 0.835000 -0.535306
O7    O     O_R   0.328410 0.786140 0.335000 -0.533894
O8    O     O_R   0.671590 0.213860 0.665000 -0.534404
C1    C     C_R   0.145694 0.459278 0.143767 0.713209
C2    C     C_R   0.854364 0.540741 0.856159 0.711379
C3    C     C_R   0.354328 0.959773 0.356134 0.712977
C4    C     C_R   0.645721 0.040218 0.643803 0.714161
O9    O     O_R   0.310670 0.290220 0.180540 -0.542395
O10   O     O_R   0.689330 0.709780 0.819460 -0.541969
O11   O     O_R   0.189330 0.790220 0.319460 -0.540995
O12   O     O_R   0.810670 0.209780 0.680540 -0.540040
O13   O     O_R   0.327870 0.124170 0.326080 -0.532898
O14   O     O_R   0.672130 0.875830 0.673920 -0.532232
O15   O     O_R   0.172130 0.624170 0.173920 -0.532270
O16   O     O_R   0.827870 0.375830 0.826080 -0.531681
C5    C     C_R   0.332055 0.459343 0.165015 0.703634
C6    C     C_R   0.668007 0.540705 0.835081 0.709152
C7    C     C_R   0.167808 0.959485 0.334836 0.710995
C8    C     C_R   0.832128 0.040550 0.665104 0.703846
O17   O     O_3   0.255480 0.455050 0.297740 -0.364241
O18   O     O_3   0.744520 0.544950 0.702260 -0.364567
O19   O     O_3   0.244520 0.955050 0.202260 -0.365483
O20   O     O_3   0.755480 0.044950 0.797740 -0.365333
V1    V     V_3+5 0.248980 0.178550 0.241140 1.423389
V2    V     V_3+5 0.751020 0.821450 0.758860 1.424005
V3    V     V_3+5 0.251020 0.678550 0.258860 1.426271
V4    V     V_3+5 0.748980 0.321450 0.741140 1.428239
C9    C     C_R   0.931269 0.880113 0.627053 -0.202922
C10   C     C_R   0.069539 0.121995 0.373805 -0.186489
C11   C     C_R   0.567543 0.672527 0.879606 -0.182779
C12   C     C_R   0.433858 0.330310 0.122126 -0.207909
C13   C     C_R   0.881878 0.029513 0.616361 -0.094699
C14   C     C_R   0.118464 0.971346 0.384059 -0.111170
C15   C     C_R   0.619129 0.530828 0.884879 -0.108138
C16   C     C_R   0.381555 0.470152 0.116007 -0.096737
C17   C     C_R   0.880569 0.168040 0.559442 -0.163172
C18   C     C_R   0.120107 0.833822 0.441391 -0.189314
C19   C     C_R   0.623335 0.378696 0.937150 -0.179487
C20   C     C_R   0.377747 0.623451 0.064304 -0.174917
C21   C     C_R   0.927444 0.157118 0.512961 0.085161
C22   C     C_R   0.074444 0.848091 0.489128 0.038747
C23   C     C_R   0.577689 0.369820 0.985050 0.041858
C24   C     C_R   0.424932 0.636609 0.018277 0.093140
C25   C     C_R   0.977876 0.009561 0.524999 -0.005100
C26   C     C_R   0.025057 0.998920 0.478280 -0.019339
C27   C     C_R   0.525557 0.511631 0.979194 -0.024575
C28   C     C_R   0.478299 0.498695 0.025792 -0.001595
C29   C     C_R   0.980504 0.871117 0.583079 0.003558
C30   C     C_R   0.021910 0.136045 0.419641 0.035144
C31   C     C_R   0.519575 0.662759 0.925260 0.041216
C32   C     C_R   0.483605 0.345745 0.078892 -0.002477
C33   C     C_R   0.923591 0.289843 0.453763 -0.280673
C34   C     C_R   0.077170 0.712671 0.547250 -0.270937
C35   C     C_R   0.583250 0.220395 0.038464 -0.267100
C36   C     C_R   0.418335 0.783473 0.963737 -0.279817
C37   C     C_R   0.971153 0.283468 0.407275 0.398331
C38   C     C_R   0.032431 0.726672 0.595818 0.414993
C39   C     C_R   0.538467 0.211077 0.087138 0.409935
C40   C     C_R   0.465633 0.799971 0.917135 0.400902
H1    H     H_    0.931929 0.772966 0.670810 0.146828
H2    H     H_    0.068233 0.226831 0.329079 0.163105
H3    H     H_    0.564278 0.788392 0.838617 0.161453
H4    H     H_    0.436459 0.212051 0.161961 0.146765
H5    H     H_    0.842111 0.282348 0.550404 0.118959
H6    H     H_    0.157757 0.717473 0.449656 0.126919
H7    H     H_    0.663027 0.268933 0.941418 0.123592
H8    H     H_    0.337083 0.730698 0.058933 0.120167
H9    H     H_    0.882368 0.395749 0.443081 0.127036
H10   H     H_    0.114897 0.596544 0.555921 0.144250
H11   H     H_    0.623224 0.111312 0.043396 0.144162
H12   H     H_    0.375044 0.881892 0.956623 0.127646
C41   C     C_1   0.583266 0.026872 0.581547 -0.193530
C42   C     C_1   0.416862 0.973122 0.418286 -0.198268
C43   C     C_1   0.916921 0.528125 0.918332 -0.198885
C44   C     C_1   0.083232 0.471942 0.081474 -0.193449
C45   C     C_1   0.530948 0.010599 0.530085 0.006624
C46   C     C_1   0.469225 0.989407 0.469688 0.004102
C47   C     C_1   0.969262 0.511247 0.969696 0.003507
C48   C     C_1   0.030945 0.488856 0.030040 0.006358
O21   O     O_3   0.964588 0.402173 0.343859 -0.582015
C49   C     C_3   0.948802 0.597703 0.357149 0.084049
H13   H     H_    0.986235 0.691391 0.337253 0.152921
H14   H     H_    0.954502 0.635233 0.418029 0.120801
C50   C     C_3   0.876096 0.646443 0.310481 -0.315403
H15   H     H_    0.873696 0.624523 0.249236 0.205949
H16   H     H_    0.837629 0.547874 0.326069 0.193491
C51   C     C_3   0.857033 0.856159 0.323272 -0.830105
H17   H     H_    0.857149 0.880104 0.383806 0.237646
H18   H     H_    0.804488 0.886714 0.287853 0.236081
H19   H     H_    0.894150 0.957900 0.306843 0.245754
O22   O     O_3   0.038346 0.591637 0.653411 -0.571926
C52   C     C_3   0.074427 0.675184 0.723289 0.067634
H20   H     H_    0.058713 0.595016 0.769441 0.143644
H21   H     H_    0.060738 0.830487 0.729552 0.109586
C53   C     C_3   0.152873 0.654708 0.734579 -0.310333
H22   H     H_    0.166051 0.499319 0.729263 0.200807
H23   H     H_    0.170123 0.738517 0.690318 0.191677
C54   C     C_3   0.191610 0.731031 0.812314 -0.850631
H24   H     H_    0.178648 0.885992 0.818924 0.234503
H25   H     H_    0.248164 0.720071 0.817952 0.236261
H26   H     H_    0.177978 0.644240 0.858101 0.234227
O23   O     O_3   0.547212 0.062716 0.139940 -0.571408
C55   C     C_3   0.581235 0.135441 0.212537 0.072299
H27   H     H_    0.567849 0.038061 0.255561 0.143440
H28   H     H_    0.563467 0.283599 0.224048 0.108810
C56   C     C_3   0.660022 0.134392 0.223567 -0.313966
H29   H     H_    0.677324 0.985660 0.213102 0.201320
H30   H     H_    0.674854 0.235133 0.182514 0.191535
C57   C     C_3   0.696794 0.198960 0.303723 -0.847192
H31   H     H_    0.679225 0.346173 0.315725 0.233188
H32   H     H_    0.753438 0.204756 0.309182 0.236854
H33   H     H_    0.686149 0.094901 0.346162 0.233861
O24   O     O_3   0.456267 0.931475 0.857193 -0.581291
C58   C     C_3   0.434043 0.117218 0.874889 0.087475
H34   H     H_    0.466972 0.226969 0.855710 0.151686
H35   H     H_    0.440557 0.143662 0.936669 0.120082
C59   C     C_3   0.359154 0.150722 0.831101 -0.313966
H36   H     H_    0.356251 0.150069 0.769206 0.204362
H37   H     H_    0.325517 0.031918 0.842793 0.194574
C60   C     C_3   0.331987 0.344087 0.852840 -0.838991
H38   H     H_    0.333045 0.346178 0.914268 0.239448
H39   H     H_    0.277784 0.363497 0.819967 0.237606
H40   H     H_    0.363738 0.466177 0.839868 0.242299

loop_
_geom_bond_atom_site_label_1
_geom_bond_atom_site_label_2
_ccdc_geom_bond_type
C34   C38   A    
O1    C5    A    
C38   O22   S    
O19   V1    S    
O13   V1    S    
O3    C7    A    
C56   H29   S    
O1    V3    S    
C44   C48   T    
O15   V3    S    
C10   H2    S    
C45   C46   S    
C9    H1    S    
O21   C49   S    
C2    C43   S    
O7    C3    A    
C21   C33   A    
C26   C30   A    
O9    V1    S    
C14   C18   A    
O4    C8    A    
C49   H14   S    
C52   H20   S    
C18   H6    S    
C40   O24   S    
C55   H27   S    
O2    V4    S    
C18   C22   A    
C33   H9    S    
C33   C37   A    
O3    V1    S    
O24   C58   S    
C53   H22   S    
C12   C16   A    
C1    O15   A    
C23   C27   A    
C2    O16   A    
O2    C6    A    
C60   H40   S    
O23   C55   S    
O14   V2    S    
C41   C45   T    
C50   H16   S    
C16   C20   A    
O11   C7    A    
O12   C8    A    
C31   C40   A    
O17   V1    S    
C56   C57   S    
O10   V2    S    
C51   H18   S    
C52   H21   S    
C24   C36   A    
O5    V1    S    
C58   H35   S    
C9    C29   A    
O7    V3    S    
O19   V3    S    
C27   C28   A    
O8    V4    S    
O20   V4    S    
C56   H30   S    
C4    C41   S    
C49   H13   S    
C15   C19   A    
C11   C31   A    
C36   H12   S    
C53   C54   S    
C9    C13   A    
C1    C44   S    
C11   C15   A    
O5    C1    A    
C12   C32   A    
C3    C42   S    
C29   C38   A    
C42   C46   T    
C47   C48   S    
C21   C25   A    
O8    C4    A    
O22   C52   S    
C53   H23   S    
C8    C13   S    
C32   C39   A    
O9    C5    A    
C54   H25   S    
C50   C51   S    
O11   V3    S    
C37   O21   S    
O6    V2    S    
C10   C30   A    
C60   H38   S    
C59   H37   S    
C35   H11   S    
C52   C53   S    
C34   H10   S    
C17   H5    S    
O16   V4    S    
C58   C59   S    
C3    O13   A    
C19   H7    S    
C10   C14   A    
O17   V3    S    
C49   C50   S    
O6    C2    A    
C57   H32   S    
C58   H34   S    
C12   H4    S    
C57   H31   S    
O18   V4    S    
C30   C37   A    
O12   V4    S    
C7    C14   S    
C22   C26   A    
C35   C39   A    
C55   C56   S    
C36   C40   A    
O10   C6    A    
C59   C60   S    
O20   V2    S    
C59   H36   S    
C43   C47   T    
C5    C16   S    
C19   C23   A    
C25   C29   A    
C6    C15   S    
C51   H17   S    
C55   H28   S    
C20   H8    S    
C54   H26   S    
C27   C31   A    
C51   H19   S    
C13   C17   A    
O4    V2    S    
C57   H33   S    
C11   H3    S    
C23   C35   A    
C28   C32   A    
C24   C28   A    
C25   C26   A    
C4    O14   A    
C54   H24   S    
C60   H39   S    
C17   C21   A    
C50   H15   S    
C39   O23   S    
C22   C34   A    
C20   C24   A    
O18   V2    S    
