data_mof_unit_26091.cif
_audit_creation_date              2012-12-11T14:44:21-0500
_audit_creation_method            fapswitch 2.2
_symmetry_space_group_name_H-M    P1
_symmetry_Int_Tables_number       1
_space_group_crystal_system       triclinic
_cell_length_a                    24.871398
_cell_length_b                    16.714347
_cell_length_c                    15.609993
_cell_angle_alpha                 90.105495
_cell_angle_beta                  50.212145
_cell_angle_gamma                 90.022888
_cell_volume                      4986.42811894

loop_
_atom_site_label
_atom_site_type_symbol
_atom_type_description
_atom_site_fract_x
_atom_site_fract_y
_atom_site_fract_z
_atom_type_partial_charge
C1    C     C_R   0.352638 0.147695 0.754620 -0.152097
C2    C     C_3   0.753790 0.794001 0.605627 -0.156810
C3    C     C_1   0.528165 0.846790 0.188979 -0.009238
C4    C     C_1   0.043226 0.598050 0.150845 0.003341
C5    C     C_1   0.956775 0.401952 0.849155 0.003339
C6    C     C_1   0.956387 0.597516 0.849768 0.001921
C7    C     C_1   0.043609 0.402481 0.150237 0.001930
C8    C     C_3   0.783895 0.171878 0.574193 -0.159483
C9    C     C_3   0.215897 0.828301 0.426098 -0.159431
C10   C     C_3   0.803074 0.801531 0.394131 -0.161906
C11   C     C_3   0.196992 0.198605 0.605840 -0.161883
C12   C     C_3   0.225942 0.767097 0.574546 -0.145261
C13   C     C_3   0.774259 0.232785 0.425157 -0.145393
C14   C     C_2   0.642148 0.264077 0.147640 -0.196889
C15   C     C_2   0.357854 0.735920 0.852352 -0.196884
C16   C     C_2   0.357755 0.264264 0.852914 -0.196318
C17   C     C_R   0.647358 0.852302 0.245388 -0.152103
C18   C     C_2   0.642244 0.735736 0.147088 -0.196307
C19   C     C_2   0.196308 0.649021 0.014872 -0.189599
C20   C     C_2   0.803690 0.350988 0.985132 -0.189602
C21   C     C_2   0.803419 0.648697 0.985640 -0.189041
C22   C     C_2   0.196578 0.351300 0.014364 -0.189044
C23   C     C_2   0.688807 0.308622 0.142370 -0.118653
C24   C     C_2   0.311193 0.691377 0.857626 -0.118661
C25   C     C_2   0.311648 0.309201 0.857240 -0.119120
C26   C     C_2   0.688347 0.690794 0.142768 -0.119131
C27   C     C_2   0.265357 0.640064 0.953942 -0.113088
C28   C     C_R   0.647310 0.147633 0.245672 -0.151503
C29   C     C_2   0.734641 0.359941 0.046060 -0.113092
C30   C     C_2   0.734434 0.639297 0.046471 -0.113615
C31   C     C_2   0.265563 0.360702 0.953533 -0.113616
C32   C     C_R   0.616616 0.104902 0.590864 -0.124159
C33   C     C_R   0.383382 0.895122 0.409130 -0.124055
C34   C     C_R   0.382499 0.103920 0.410168 -0.133971
C35   C     C_R   0.617503 0.896089 0.589832 -0.133971
C36   C     C_R   0.087245 0.649813 0.591996 -0.128608
C37   C     C_R   0.912763 0.350178 0.408010 -0.128671
C38   C     C_R   0.912335 0.650180 0.409178 -0.142476
C39   C     C_R   0.352693 0.852365 0.754320 -0.151509
C40   C     C_R   0.087657 0.349815 0.590823 -0.142438
C41   C     C_R   0.689948 0.105786 0.406315 -0.147441
C42   C     C_R   0.310047 0.894238 0.593678 -0.147496
C43   C     C_R   0.310060 0.106275 0.594675 -0.136274
C44   C     C_R   0.689943 0.893740 0.405325 -0.136254
C45   C     C_R   0.162067 0.648468 0.406557 -0.136255
C46   C     C_R   0.837940 0.351528 0.593445 -0.136180
C47   C     C_R   0.836560 0.647455 0.594693 -0.123304
C48   C     C_R   0.163431 0.352538 0.405310 -0.123324
C49   C     C_R   0.561412 0.142560 0.237170 0.070130
C50   C     C_R   0.833609 0.611134 0.802046 -0.156052
C51   C     C_R   0.438590 0.857437 0.762825 0.070121
C52   C     C_R   0.438412 0.142496 0.763355 0.071028
C53   C     C_R   0.561585 0.857501 0.236651 0.071014
C54   C     C_R   0.078420 0.607680 0.195844 0.043407
C55   C     C_R   0.921580 0.392323 0.804158 0.043398
C56   C     C_R   0.921442 0.607590 0.804438 0.042907
C57   C     C_R   0.078556 0.392408 0.195564 0.042898
C58   C     C_R   0.383275 0.189161 0.790148 0.086933
C59   C     C_R   0.616721 0.810835 0.209861 0.086931
C60   C     C_R   0.616614 0.189120 0.210346 0.086876
C61   C     C_R   0.166390 0.388864 0.197955 -0.156059
C62   C     C_R   0.383388 0.810877 0.789646 0.086875
C63   C     C_R   0.851669 0.627520 0.867222 0.091302
C64   C     C_R   0.148329 0.372478 0.132780 0.091304
C65   C     C_R   0.148183 0.627581 0.133086 0.091178
C66   C     C_R   0.851815 0.372426 0.866918 0.091187
C67   C     C_R   0.683363 0.122420 0.498349 0.027559
C68   C     C_R   0.316631 0.877625 0.501640 0.027529
C69   C     C_R   0.315891 0.121920 0.503394 0.025788
C70   C     C_R   0.684114 0.878104 0.496606 0.025763
C71   C     C_R   0.136681 0.694227 0.499125 0.020370
C72   C     C_R   0.166336 0.611093 0.198083 -0.156693
C73   C     C_R   0.863337 0.305757 0.500883 0.020337
C74   C     C_R   0.861628 0.693551 0.503097 0.021655
C75   C     C_R   0.138355 0.306436 0.496906 0.021628
C76   C     C_3   0.285117 0.235705 0.434853 -0.146732
C77   C     C_3   0.714905 0.764236 0.564988 -0.146650
C78   C     C_3   0.716011 0.203667 0.601772 -0.165204
C79   C     C_3   0.283922 0.796604 0.398118 -0.165229
C80   C     C_3   0.842625 0.831078 0.434326 -0.158509
C81   C     C_3   0.157344 0.168999 0.565843 -0.158556
C82   C     C_3   0.158028 0.798986 0.603044 -0.162147
C83   C     C_R   0.833663 0.388911 0.801919 -0.156707
C84   C     C_3   0.842039 0.200809 0.397058 -0.162153
C85   C     C_3   0.774675 0.871962 0.537190 -0.153527
C86   C     C_3   0.225229 0.128001 0.463009 -0.153491
C87   C     C_3   0.197391 0.873668 0.529230 -0.153420
C88   C     C_3   0.802468 0.126294 0.471152 -0.153314
C89   C     C_3   0.218581 0.275432 0.537049 -0.138343
C90   C     C_3   0.781505 0.724622 0.462762 -0.138420
C91   C     C_3   0.754931 0.277053 0.527573 -0.131390
C92   C     C_3   0.245207 0.723046 0.472040 -0.131446
C93   C     C_3   0.736458 0.840882 0.496534 0.181619
C94   C     C_3   0.246133 0.205881 0.394410 -0.156840
C95   C     C_3   0.263544 0.159140 0.503468 0.181622
C96   C     C_3   0.264507 0.840439 0.500895 0.181669
C97   C     C_3   0.735489 0.159612 0.499086 0.181679
C98   C     C_3   0.179631 0.245565 0.496891 0.183536
C99   C     C_3   0.820356 0.754430 0.503116 0.183535
C100  C     C_3   0.822311 0.245060 0.499863 0.184167
C101  C     C_3   0.177690 0.754949 0.500151 0.184179
C102  C     C_1   0.527199 0.153856 0.190923 -0.010310
C103  C     C_1   0.472804 0.846138 0.809069 -0.010301
C104  C     C_1   0.471826 0.153199 0.811038 -0.009270
H1    H     H_    0.306571 0.163707 0.765481 0.104137
H2    H     H_    0.229563 0.066218 0.432940 0.109747
H3    H     H_    0.179444 0.936655 0.552840 0.109125
H4    H     H_    0.820304 0.063254 0.447846 0.109114
H5    H     H_    0.215658 0.336851 0.567143 0.119511
H6    H     H_    0.784500 0.663241 0.432508 0.119509
H7    H     H_    0.735806 0.339759 0.550760 0.116719
H8    H     H_    0.264452 0.660399 0.448537 0.116693
H9    H     H_    0.265292 0.209406 0.307863 0.111932
H10   H     H_    0.734570 0.790378 0.692203 0.111913
H11   H     H_    0.789313 0.148266 0.634747 0.115084
H12   H     H_    0.693423 0.836289 0.234535 0.104148
H13   H     H_    0.210312 0.852035 0.365787 0.115077
H14   H     H_    0.822628 0.804895 0.307345 0.107332
H15   H     H_    0.177495 0.195349 0.692600 0.107337
H16   H     H_    0.230986 0.742436 0.635133 0.111394
H17   H     H_    0.769382 0.257323 0.364329 0.111361
H18   H     H_    0.296584 0.705210 0.806964 0.131183
H19   H     H_    0.703417 0.294788 0.193031 0.131187
H20   H     H_    0.702502 0.704523 0.194117 0.132822
H21   H     H_    0.297485 0.295464 0.805905 0.132817
H22   H     H_    0.712801 0.390763 0.013338 0.126900
H23   H     H_    0.693327 0.163569 0.235030 0.103496
H24   H     H_    0.287197 0.609241 0.986663 0.126898
H25   H     H_    0.287192 0.391817 0.986496 0.126973
H26   H     H_    0.712805 0.608183 0.013506 0.126973
H27   H     H_    0.371229 0.722063 0.904758 0.136944
H28   H     H_    0.628773 0.277934 0.095234 0.136944
H29   H     H_    0.629323 0.722009 0.094004 0.136856
H30   H     H_    0.370684 0.278001 0.905985 0.136856
H31   H     H_    0.824714 0.319391 0.018843 0.132054
H32   H     H_    0.175284 0.680620 0.981163 0.132059
H33   H     H_    0.175764 0.319399 0.980425 0.131985
H34   H     H_    0.306677 0.836428 0.764956 0.103502
H35   H     H_    0.824232 0.680597 0.019581 0.131992
H36   H     H_    0.599452 0.097263 0.673508 0.110536
H37   H     H_    0.400553 0.902772 0.326483 0.110487
H38   H     H_    0.399259 0.096662 0.327660 0.117721
H39   H     H_    0.600740 0.903346 0.672342 0.117731
H40   H     H_    0.060792 0.666386 0.677115 0.109949
H41   H     H_    0.939210 0.333600 0.322893 0.109996
H42   H     H_    0.938840 0.667635 0.324371 0.116272
H43   H     H_    0.061153 0.332361 0.675630 0.116269
H44   H     H_    0.737687 0.104705 0.320434 0.093520
H45   H     H_    0.781390 0.608777 0.829018 0.093339
H46   H     H_    0.262306 0.895320 0.679559 0.093559
H47   H     H_    0.262667 0.105117 0.680813 0.087053
H48   H     H_    0.737336 0.894901 0.319187 0.087052
H49   H     H_    0.204607 0.663279 0.320580 0.102428
H50   H     H_    0.795398 0.336720 0.679423 0.102413
H51   H     H_    0.793728 0.661291 0.680960 0.094969
H52   H     H_    0.206266 0.338699 0.319045 0.094993
H53   H     H_    0.338205 0.262680 0.381570 0.121399
H54   H     H_    0.661840 0.737205 0.618134 0.121390
H55   H     H_    0.663634 0.204920 0.685892 0.120717
H56   H     H_    0.218609 0.391220 0.170982 0.093341
H57   H     H_    0.336242 0.795548 0.313904 0.120683
H58   H     H_    0.896004 0.857126 0.381549 0.111743
H59   H     H_    0.103942 0.143006 0.618758 0.111739
H60   H     H_    0.105448 0.799474 0.686855 0.109543
H61   H     H_    0.894678 0.200138 0.313345 0.109553
H62   H     H_    0.218554 0.608803 0.171141 0.093863
H63   H     H_    0.781445 0.391203 0.828862 0.093864
H64   H     H_    0.770264 0.933706 0.567426 0.109715
N1    N     N_R   0.389620 0.081040 0.705440 -0.054218
N2    N     N_R   0.417680 0.920160 0.443370 -0.040112
N3    N     N_R   0.417680 0.079840 0.443370 -0.040120
N4    N     N_R   0.582320 0.920160 0.556630 -0.040123
N5    N     N_R   0.082320 0.579840 0.556630 -0.040535
N6    N     N_R   0.917680 0.420160 0.443370 -0.040537
N7    N     N_R   0.917680 0.579840 0.443370 -0.040210
N8    N     N_R   0.082320 0.420160 0.556630 -0.040213
N9    N     N_R   0.627920 0.078930 0.443400 -0.034730
N10   N     N_R   0.372080 0.921070 0.556600 -0.034735
N11   N     N_R   0.372080 0.078930 0.556600 -0.035019
N12   N     N_R   0.610380 0.918960 0.294560 -0.054219
N13   N     N_R   0.627920 0.921070 0.443400 -0.035027
N14   N     N_R   0.127920 0.578930 0.443400 -0.041360
N15   N     N_R   0.872080 0.421070 0.556600 -0.041367
N16   N     N_R   0.872080 0.578930 0.556600 -0.041330
N17   N     N_R   0.127920 0.421070 0.443400 -0.041332
N18   N     N_R   0.555090 0.077730 0.294590 -0.066176
N19   N     N_R   0.444910 0.922270 0.705410 -0.066175
N20   N     N_R   0.444910 0.077730 0.705410 -0.066417
N21   N     N_R   0.555090 0.922270 0.294590 -0.066420
N22   N     N_R   0.055090 0.577730 0.294590 -0.060790
N23   N     N_R   0.610380 0.081040 0.294560 -0.054075
N24   N     N_R   0.944910 0.422270 0.705410 -0.060790
N25   N     N_R   0.944910 0.577730 0.705410 -0.061105
N26   N     N_R   0.055090 0.422270 0.294590 -0.061101
N27   N     N_1   0.501186 0.163822 0.151347 -0.100297
N28   N     N_1   0.498818 0.836169 0.848642 -0.100289
N29   N     N_1   0.497179 0.162648 0.851786 -0.102816
N30   N     N_1   0.502807 0.837334 0.148242 -0.102815
N31   N     N_1   0.015045 0.591125 0.114371 -0.079988
N32   N     N_1   0.984957 0.408876 0.885627 -0.079983
N33   N     N_1   0.984358 0.590247 0.886529 -0.079890
N34   N     N_R   0.389620 0.918960 0.705440 -0.054074
N35   N     N_1   0.015636 0.409750 0.113479 -0.079885
N36   N     N_R   0.889620 0.581040 0.705440 -0.050110
N37   N     N_R   0.110380 0.418960 0.294560 -0.050107
N38   N     N_R   0.110380 0.581040 0.294560 -0.049810
N39   N     N_R   0.889620 0.418960 0.705440 -0.049809
N40   N     N_R   0.582320 0.079840 0.556630 -0.040101
Ni1   Ni    Ni4+2 0.382970 1.000000 0.629840 0.203231
Ni2   Ni    Ni4+2 0.617030 1.000000 0.370160 0.203233
Ni3   Ni    Ni4+2 0.882970 0.500000 0.629840 0.201602
Ni4   Ni    Ni4+2 0.117030 0.500000 0.370160 0.201601
Ni5   Ni    Ni4+2 0.514540 1.000000 0.629840 0.218350
Ni6   Ni    Ni4+2 0.485460 1.000000 0.370160 0.218345
Ni7   Ni    Ni4+2 0.014540 0.500000 0.629840 0.230854
Ni8   Ni    Ni4+2 0.985460 0.500000 0.370160 0.230849

loop_
_geom_bond_atom_site_label_1
_geom_bond_atom_site_label_2
_ccdc_geom_bond_type
C25   C31   S    
C73   C100  S    
N39   Ni3   S    
C57   C64   A    
N19   Ni5   S    
N40   Ni5   S    
C50   C63   A    
C45   C71   A    
C9    H13   S    
C104  N29   T    
C77   C90   S    
C18   C26   D    
C24   C27   S    
C16   H30   S    
C102  N27   T    
C53   C59   A    
C43   H47   S    
N8    N17   A    
C41   C67   A    
C54   C65   A    
C14   H28   S    
C11   C81   S    
C22   H33   S    
C43   N11   A    
C68   C96   S    
C49   C60   A    
C82   H60   S    
C2    C85   S    
C23   C29   S    
C20   C66   S    
N5    Ni7   S    
C32   H36   S    
N12   N21   A    
C76   C95   S    
N26   Ni8   S    
C88   H4    S    
C15   H27   S    
C81   C98   S    
C94   C98   S    
C51   C103  S    
C82   C87   S    
C89   H5    S    
C3    N30   T    
N36   Ni3   S    
C18   H29   S    
C9    C79   S    
C91   H7    S    
N18   N23   A    
N26   N37   A    
C25   H21   S    
C38   H42   S    
C7    N35   T    
C84   H61   S    
C86   C94   S    
C8    H11   S    
C76   C94   S    
C37   N6    A    
C12   H16   S    
N3    Ni6   S    
C85   C93   S    
N4    N13   A    
N22   N38   A    
C4    N31   T    
C34   H38   S    
C49   N18   A    
C35   C70   A    
C83   N39   A    
C44   C70   A    
C91   C100  S    
C32   N40   A    
C19   C27   D    
C10   C93   S    
N24   Ni7   S    
C88   C97   S    
C28   H23   S    
C76   C89   S    
C48   H52   S    
C39   H34   S    
C11   H15   S    
C36   N5    A    
C43   C69   A    
C29   H22   S    
C13   C91   S    
C42   C68   A    
C35   N4    A    
C81   H59   S    
C48   C75   A    
N3    N11   A    
C86   H2    S    
C51   C62   A    
C26   H20   S    
C79   H57   S    
C33   N2    A    
C24   H18   S    
C94   H9    S    
C12   C92   S    
C45   N14   A    
N25   Ni7   S    
C5    N32   T    
C20   C29   D    
C28   C60   A    
C89   C98   S    
C46   H50   S    
C76   H53   S    
C56   C63   A    
C22   C31   D    
C17   H12   S    
C18   C59   S    
C84   C100  S    
C8    C78   S    
C70   C93   S    
C47   C74   A    
C6    N33   T    
N21   Ni6   S    
C61   H56   S    
C49   C102  S    
C40   N8    A    
C10   C80   S    
C92   H8    S    
C23   H19   S    
C1    N1    A    
N37   Ni4   S    
C33   H37   S    
C19   H32   S    
C30   H26   S    
N15   Ni3   S    
C83   H63   S    
C75   C98   S    
N10   Ni1   S    
N13   Ni2   S    
C8    C88   S    
N9    Ni2   S    
C61   C64   A    
C80   C85   S    
C10   H14   S    
C72   H62   S    
C13   H17   S    
C27   H24   S    
C11   C89   S    
C13   C84   S    
N22   Ni8   S    
N1    Ni1   S    
C87   C96   S    
C78   C97   S    
N14   Ni4   S    
C3    C53   S    
C66   C83   A    
N17   Ni4   S    
C12   C82   S    
C13   C97   S    
C16   C58   S    
N12   Ni2   S    
N25   N36   A    
N19   N34   A    
C80   H58   S    
C79   C92   S    
C52   C58   A    
C92   C101  S    
C17   C59   A    
C32   C67   A    
C11   C95   S    
C17   N12   A    
C61   N37   A    
C15   C24   D    
N2    N10   A    
C2    C99   S    
C26   C30   S    
C80   C99   S    
C78   C91   S    
N24   N39   A    
C45   H49   S    
C103  N28   T    
C90   H6    S    
N34   Ni1   S    
N4    Ni5   S    
C28   N23   A    
C90   C99   S    
C55   C66   A    
N8    Ni7   S    
N16   Ni3   S    
C38   C74   A    
C41   N9    A    
C16   C25   D    
C39   C62   A    
C37   C73   A    
C52   C104  S    
C54   N22   A    
C40   H43   S    
C4    C54   S    
C85   H64   S    
C34   C69   A    
C5    C55   S    
C84   C88   S    
N1    N20   A    
C6    C56   S    
C47   N16   A    
C69   C95   S    
C46   N15   A    
N6    N15   A    
N5    N14   A    
C72   N38   A    
N20   Ni5   S    
C40   C75   A    
C82   C101  S    
C74   C99   S    
N2    Ni6   S    
C50   N36   A    
C14   C23   D    
C65   C72   A    
C14   C60   S    
C21   C30   D    
N11   Ni1   S    
C44   H48   S    
N9    N40   A    
C57   N26   A    
C81   C86   S    
C55   N24   A    
C36   C71   A    
C8    C100  S    
C79   C96   S    
C31   H25   S    
C2    C77   S    
C1    C58   A    
N7    Ni8   S    
C2    H10   S    
C50   H45   S    
C38   N7    A    
C41   H44   S    
C47   H51   S    
C42   N10   A    
N18   Ni6   S    
C77   H54   S    
C77   C93   S    
C15   C62   S    
C19   C65   S    
N6    Ni8   S    
C20   H31   S    
C71   C101  S    
C42   H46   S    
C21   C63   S    
C51   N19   A    
C86   C95   S    
C67   C97   S    
N23   Ni2   S    
C22   C64   S    
C56   N25   A    
N38   Ni4   S    
C78   H55   S    
C48   N17   A    
C87   H3    S    
C10   C90   S    
C9    C101  S    
C39   N34   A    
C35   H39   S    
C21   H35   S    
C12   C96   S    
C52   N20   A    
C37   H41   S    
C36   H40   S    
C53   N21   A    
C44   N13   A    
C7    C57   S    
C46   C73   A    
C9    C87   S    
C34   N3    A    
C33   C68   A    
C1    H1    S    
N7    N16   A    
