data_mof_unit_19977.cif
_audit_creation_date              2012-10-26T19:43:52-0400
_audit_creation_method            fapswitch 2.2
_symmetry_space_group_name_H-M    P1
_symmetry_Int_Tables_number       1
_space_group_crystal_system       triclinic
_cell_length_a                    12.355715
_cell_length_b                    13.012201
_cell_length_c                    13.849821
_cell_angle_alpha                 105.899424
_cell_angle_beta                  73.823977
_cell_angle_gamma                 116.443242
_cell_volume                      1885.4944456

loop_
_atom_site_label
_atom_site_type_symbol
_atom_type_description
_atom_site_fract_x
_atom_site_fract_y
_atom_site_fract_z
_atom_type_partial_charge
C1    C     C_R   0.143855 0.715816 0.511589 0.554841
C2    C     C_R   0.559838 0.022979 0.465508 0.010558
C3    C     C_R   0.602385 0.937500 0.402987 -0.011034
C4    C     C_R   0.984580 0.505024 0.686492 0.561156
C5    C     C_R   0.518979 0.830364 0.361227 -0.038713
C6    C     C_R   0.393773 0.802043 0.390762 -0.069918
C7    C     C_R   0.646519 0.130136 0.506176 0.331352
C8    C     C_R   0.812888 0.066671 0.423776 0.152218
C9    C     C_R   0.223281 0.843044 0.515197 -0.038846
C10   C     C_R   0.621399 0.645556 0.688166 0.184013
C11   C     C_R   0.270913 0.361739 0.354992 0.439507
C12   C     C_1   0.977605 0.511214 0.791983 0.075245
C13   C     C_R   0.339438 0.299034 0.354240 0.266780
C14   C     C_R   0.425321 0.347297 0.418063 -0.063669
C15   C     C_R   0.438763 0.452808 0.484670 -0.034092
C16   C     C_R   0.855817 0.284307 0.488662 0.588923
C17   C     C_R   0.339873 0.489054 0.505304 0.085784
C18   C     C_R   0.541767 0.517324 0.536424 -0.040444
C19   C     C_R   0.532845 0.602802 0.623979 -0.019044
C20   C     C_R   0.437608 0.642351 0.641918 0.250120
C21   C     C_R   0.341841 0.582576 0.585970 -0.033210
C22   C     C_R   0.656033 0.503652 0.502260 0.546705
C23   C     C_R   0.727111 0.958584 0.384699 0.380816
C24   C     C_R   0.730557 0.628649 0.650034 0.061954
C25   C     C_R   0.015651 0.495277 0.313459 0.553729
C26   C     C_1   0.023423 0.489150 0.207694 0.102229
C27   C     C_2   0.035219 0.475267 0.012103 0.189662
C28   C     C_2   0.973321 0.522744 0.985505 0.400618
C29   C     C_1   0.973991 0.516818 0.880568 0.109254
C30   C     C_1   0.029745 0.482759 0.118398 0.084620
C31   C     C_R   0.773131 0.157983 0.475181 -0.038043
C32   C     C_R   0.180022 0.931355 0.573832 0.260745
C33   C     C_R   0.258759 0.048872 0.572911 0.426462
C34   C     C_R   0.382727 0.080508 0.532757 -0.036690
C35   C     C_R   0.431457 0.995687 0.488918 0.005980
C36   C     C_R   0.348331 0.878945 0.464589 -0.012242
Cu1   Cu    Cu3+1 0.899780 0.525060 0.522890 1.182215
Cu2   Cu    Cu3+1 0.100220 0.474940 0.477110 1.107975
F1    F     F_    0.908398 0.578588 0.058191 -0.555383
F2    F     F_    0.678010 0.435980 0.411903 -0.591461
F3    F     F_    0.764812 0.873282 0.327614 -0.549168
F4    F     F_    0.609952 0.205233 0.582966 -0.606887
F5    F     F_    0.217658 0.135086 0.615024 -0.538805
H1    H     H_    0.333463 0.719838 0.354113 0.188254
H2    H     H_    0.245231 0.056490 0.140534 0.391527
H3    H     H_    0.267645 0.453652 0.002660 0.369878
H4    H     H_    0.003264 0.106074 0.250966 0.380728
H5    H     H_    0.978813 0.047626 0.704300 0.403215
H6    H     H_    0.798045 0.660858 0.698179 0.207502
H7    H     H_    0.481222 0.301502 0.414395 0.203081
H8    H     H_    0.272699 0.615949 0.605504 0.212566
H9    H     H_    0.549878 0.766264 0.308054 0.220606
H10   H     H_    0.438455 0.172312 0.534584 0.212851
H11   H     H_    0.396411 0.914892 0.694057 0.390632
H12   H     H_    0.725754 0.858638 0.833595 0.372077
H13   H     H_    0.402950 0.382716 0.085408 0.397614
N1    N     N_R   0.748810 0.563010 0.557590 -0.241079
N2    N     N_R   0.250540 0.437620 0.443020 -0.268310
O1    O     O_R   0.025040 0.682470 0.528790 -0.440922
O2    O     O_2   0.585529 0.866649 0.697924 -0.229669
O3    O     O_3   0.380004 0.834203 0.656848 -0.561885
O4    O     O_2   0.450420 0.626536 0.860431 -0.165214
O5    O     O_2   0.649183 0.639634 0.871787 -0.240293
O6    O     O_3   0.636135 0.828261 0.860397 -0.383180
O7    O     O_2   0.170682 0.325861 0.191924 -0.212102
O8    O     O_2   0.321107 0.523118 0.243801 -0.321277
O9    O     O_3   0.401859 0.364252 0.150557 -0.426427
O10   O     O_2   0.459844 0.177716 0.218838 -0.213570
O11   O     O_2   0.273395 0.070425 0.330174 -0.256757
O12   O     O_R   0.194310 0.640150 0.490130 -0.544238
O13   O     O_3   0.249270 0.134292 0.178379 -0.397426
O14   O     O_2   0.030756 0.284325 0.875349 -0.183427
O15   O     O_2   0.199439 0.468144 0.837961 -0.247972
O16   O     O_3   0.207706 0.375155 0.978412 -0.412358
O17   O     O_2   0.020065 0.150613 0.500957 -0.206038
O18   O     O_2   0.976381 0.966555 0.381511 -0.120854
O19   O     O_3   0.046406 0.153980 0.308738 -0.458056
O20   O     O_2   0.936267 0.852630 0.589009 -0.266359
O21   O     O_2   0.009665 0.813772 0.717300 -0.271238
O22   O     O_3   0.024002 0.021534 0.734661 -0.372907
O23   O     O_R   0.903380 0.524130 0.659910 -0.497634
O24   O     O_R   0.072660 0.481800 0.621240 -0.509938
O25   O     O_R   0.805690 0.359850 0.509870 -0.414195
O26   O     O_R   0.974960 0.317530 0.471210 -0.447514
O27   O     O_R   0.927340 0.518200 0.378760 -0.435212
O28   O     O_R   0.096620 0.475870 0.340090 -0.451537
O29   O     O_2   0.394224 0.783095 0.818564 -0.152459
S1    S     S_3+6 0.452202 0.784742 0.707898 0.080742
S2    S     S_3+6 0.586397 0.682985 0.823183 0.122384
S3    S     S_3+6 0.287532 0.395130 0.233920 0.110135
S4    S     S_3+6 0.331586 0.167266 0.269105 0.125833
S5    S     S_3+6 0.119504 0.399390 0.921552 0.086881
S6    S     S_3+6 0.966749 0.082473 0.406392 0.133170
S7    S     S_3+6 0.033197 0.901307 0.654093 0.104554

loop_
_geom_bond_atom_site_label_1
_geom_bond_atom_site_label_2
_ccdc_geom_bond_type
C2    C35   A    
C15   C18   A    
C32   S7    S    
O29   S1    D    
Cu2   O12   S    
C12   C29   T    
H2    O13   S    
C3    C23   A    
C35   C36   A    
C21   H8    S    
C8    C23   A    
C22   N1    A    
O2    S1    D    
O8    S3    D    
C16   C31   S    
Cu2   O28   S    
Cu1   O27   S    
C28   C29   S    
C18   C19   A    
C1    O1    A    
C5    C6    A    
O14   S5    D    
O4    S2    D    
C16   O26   A    
O10   S4    D    
C34   C35   A    
C7    F4    S    
O16   S5    S    
C9    C32   A    
Cu2   N2    S    
C4    O23   A    
C2    C7    A    
C10   S2    S    
C24   N1    A    
C9    C36   A    
C5    H9    S    
C4    C12   S    
C11   N2    A    
C17   N2    A    
C6    H1    S    
C13   C14   A    
C13   S4    S    
C27   C30   S    
Cu1   O23   S    
O6    S2    S    
O7    S3    D    
C7    C31   A    
C33   F5    S    
C1    C9    S    
O21   S7    D    
C28   F1    S    
C10   C24   A    
C25   C26   S    
C16   O25   A    
C17   C21   A    
Cu1   Cu2   S    
O3    S1    S    
O18   S6    D    
C10   C19   A    
C22   F2    S    
H12   O6    S    
O5    S2    D    
C25   O27   A    
C33   C34   A    
O13   S4    S    
C27   S5    S    
Cu1   O1    S    
C26   C30   T    
H4    O19   S    
O22   S7    S    
H3    O16   S    
O17   S6    D    
C24   H6    S    
C15   C17   A    
Cu2   O26   S    
C18   C22   A    
C8    C31   A    
C8    S6    S    
O15   S5    D    
C3    C5    A    
H11   O3    S    
H13   O9    S    
C1    O12   A    
C23   F3    S    
C32   C33   A    
H5    O22   S    
C19   C20   A    
C2    C3    A    
C11   C13   A    
C11   S3    S    
C14   H7    S    
O20   S7    D    
C20   S1    S    
O19   S6    S    
C25   O28   A    
C6    C36   A    
O9    S3    S    
Cu1   N1    S    
C4    O24   A    
C20   C21   A    
C34   H10   S    
C27   C28   D    
C14   C15   A    
Cu1   O25   S    
O11   S4    D    
Cu2   O24   S    
