data_mof_unit_18280.cif
_audit_creation_date              2012-12-10T20:45:30-0500
_audit_creation_method            fapswitch 2.2
_symmetry_space_group_name_H-M    P1
_symmetry_Int_Tables_number       1
_space_group_crystal_system       triclinic
_cell_length_a                    10.827739
_cell_length_b                    10.777147
_cell_length_c                    9.896313
_cell_angle_alpha                 88.73275
_cell_angle_beta                  90.716303
_cell_angle_gamma                 90.852341
_cell_volume                      1154.32610179

loop_
_atom_site_label
_atom_site_type_symbol
_atom_type_description
_atom_site_fract_x
_atom_site_fract_y
_atom_site_fract_z
_atom_type_partial_charge
C1    C     C_R   0.502390 0.259781 0.500652 0.893680
C2    C     C_R   0.835710 0.600074 0.968090 -0.174786
C3    C     C_R   0.795860 0.487710 0.026805 -0.141486
C4    C     C_R   0.260129 0.505042 0.499061 0.873218
C5    C     C_R   0.800574 0.378457 0.954264 -0.058851
C6    C     C_R   0.846745 0.380604 0.822737 -0.010460
C7    C     C_R   0.887054 0.493052 0.763468 0.134126
C8    C     C_R   0.540378 0.059740 0.616734 0.119872
C9    C     C_R   0.517570 0.127846 0.498491 -0.128026
C10   C     C_R   0.516656 0.066828 0.374167 -0.200036
C11   C     C_R   0.517268 0.938315 0.372311 -0.224728
C12   C     C_R   0.220081 0.720522 0.026817 -0.138126
C13   C     C_R   0.518668 0.871187 0.495136 -0.095581
C14   C     C_R   0.540210 0.932828 0.614974 0.090580
C15   C     C_3   0.476247 0.919553 0.747113 -0.530385
C16   C     C_R   0.502573 0.739786 0.498460 0.867804
C17   C     C_3   0.477000 0.059803 0.749964 -0.205422
C18   C     C_R   0.475660 0.393254 0.073963 0.181341
C19   C     C_R   0.532803 0.603216 0.069748 -0.130773
C20   C     C_R   0.535218 0.602129 0.926291 -0.107415
C21   C     C_R   0.471191 0.394535 0.931250 0.252203
C22   C     C_3   0.348568 0.329749 0.932810 -0.474175
C23   C     C_R   0.932968 0.554934 0.388124 -0.172542
C24   C     C_3   0.359281 0.320641 0.085302 -0.437891
C25   C     C_R   0.740061 0.505397 0.501602 0.874537
C26   C     C_R   0.229972 0.779526 0.150305 -0.111882
C27   C     C_R   0.178781 0.724056 0.265647 -0.136443
C28   C     C_R   0.119095 0.607519 0.259261 0.045017
C29   C     C_R   0.112073 0.544822 0.134533 -0.002252
C30   C     C_R   0.161242 0.604771 0.018777 -0.185578
C31   C     C_2   0.558645 0.108315 0.861496 0.938139
C32   C     C_2   0.062188 0.415180 0.122711 0.862978
C33   C     C_R   0.872753 0.518190 0.506522 -0.088925
C34   C     C_R   0.941017 0.496974 0.627177 -0.016794
C35   C     C_R   0.067482 0.490339 0.620262 -0.245997
C36   C     C_R   0.127779 0.516663 0.498926 -0.082685
C37   C     C_R   0.060616 0.557168 0.383621 0.062136
C38   C     C_R   0.880864 0.602953 0.836491 -0.137468
H1    H     H_    0.258616 0.764264 0.936980 0.138642
H2    H     H_    0.567462 0.682772 0.871050 0.148177
H3    H     H_    0.274596 0.391113 0.894129 0.230893
H4    H     H_    0.347761 0.238189 0.886641 0.199449
H5    H     H_    0.289886 0.371577 0.141268 0.224419
H6    H     H_    0.374655 0.224746 0.124277 0.216134
H7    H     H_    0.185115 0.772291 0.360463 0.118040
H8    H     H_    0.154862 0.562210 0.921242 0.163565
H9    H     H_    0.880831 0.583564 0.298965 0.140437
H10   H     H_    0.118758 0.465789 0.711420 0.177165
H11   H     H_    0.912614 0.690279 0.792077 0.129109
H12   H     H_    0.762214 0.484677 0.129064 0.164914
H13   H     H_    0.832248 0.684604 0.024858 0.137035
H14   H     H_    0.381916 0.878054 0.737752 0.195631
H15   H     H_    0.594464 0.114173 0.061008 0.320980
H16   H     H_    0.559523 0.686812 0.121712 0.147515
H17   H     H_    0.039848 0.265186 0.005639 0.345689
H18   H     H_    0.772686 0.291794 0.002599 0.159830
H19   H     H_    0.853528 0.295109 0.768118 0.153276
H20   H     H_    0.507638 0.117263 0.279186 0.179689
H21   H     H_    0.508387 0.892571 0.276211 0.178994
H22   H     H_    0.536027 0.876438 0.826063 0.202145
H23   H     H_    0.382829 0.098461 0.742742 0.116713
H24   H     H_    0.276097 0.869079 0.156396 0.144558
N1    N     N_R   0.499160 0.499140 0.142800 -0.115101
N2    N     N_R   0.499160 0.499180 0.857150 -0.113319
O1    O     O_R   0.500020 0.316790 0.614690 -0.602823
O2    O     O_R   0.531063 0.078466 0.995847 -0.848549
O3    O     O_2   0.019873 0.358500 0.220350 -0.632668
O4    O     O_R   0.069695 0.354749 0.999697 -0.846350
O5    O     O_R   0.500000 0.316760 0.385350 -0.626652
O6    O     O_R   0.316770 0.500030 0.614670 -0.636659
O7    O     O_R   0.316750 0.499990 0.385330 -0.608933
O8    O     O_R   0.500000 0.683240 0.614650 -0.627247
O9    O     O_R   0.499980 0.683210 0.385310 -0.632993
O10   O     O_R   0.683250 0.500010 0.614670 -0.607270
O11   O     O_R   0.683230 0.499970 0.385330 -0.631084
O12   O     O_2   0.650043 0.171188 0.834475 -0.672773
Zn1   Zn    Zn3+2 0.500010 0.500020 0.653130 0.964171
Zn2   Zn    Zn3+2 0.499990 0.499980 0.346870 0.948330

loop_
_geom_bond_atom_site_label_1
_geom_bond_atom_site_label_2
_ccdc_geom_bond_type
C31   O2    S    
C4    C36   S    
C18   C21   A    
C15   H22   S    
C5    H18   S    
C35   C36   A    
C16   O8    A    
C4    O6    A    
H17   O4    S    
C38   H11   S    
C26   C27   A    
C29   C30   A    
C18   C24   S    
C36   C37   A    
C10   H20   S    
C25   O10   A    
C29   C32   S    
C5    C6    A    
C20   H2    S    
C18   N1    A    
C22   H3    S    
C34   C35   A    
N2    Zn1   S    
C21   N2    A    
C17   H23   S    
C19   C20   A    
C19   N1    A    
C8    C9    A    
C23   C33   A    
O10   Zn1   S    
C1    O1    A    
O9    Zn2   S    
C9    C10   A    
C32   O4    S    
C27   H7    S    
C13   C14   A    
O6    Zn1   S    
C6    H19   S    
O5    Zn2   S    
C11   H21   S    
C35   H10   S    
C3    H12   S    
C23   H9    S    
C16   O9    A    
O1    Zn1   S    
C2    H13   S    
C23   C37   A    
C1    O5    A    
C12   C26   A    
C25   O11   A    
C20   N2    A    
O8    Zn1   S    
C2    C38   A    
C33   C34   A    
C1    C9    S    
C15   H14   S    
H15   O2    S    
C32   O3    D    
C19   H16   S    
C24   H6    S    
C7    C34   S    
C22   C24   S    
C15   C17   S    
C28   C29   A    
C8    C14   A    
C12   C30   A    
C30   H8    S    
C3    C5    A    
C6    C7    A    
C8    C17   S    
C12   H1    S    
C2    C3    A    
C26   H24   S    
C11   C13   A    
C31   O12   D    
C22   H4    S    
C28   C37   S    
C17   C31   S    
C7    C38   A    
O7    Zn2   S    
O11   Zn2   S    
C10   C11   A    
C13   C16   S    
C27   C28   A    
C24   H5    S    
C14   C15   S    
C21   C22   S    
C4    O7    A    
C25   C33   S    
N1    Zn2   S    
