data_mof_unit_30875.cif
_audit_creation_date              2012-12-11T16:12:46-0500
_audit_creation_method            fapswitch 2.2
_symmetry_space_group_name_H-M    P1
_symmetry_Int_Tables_number       1
_space_group_crystal_system       monoclinic
_cell_length_a                    6.942458
_cell_length_b                    21.366609
_cell_length_c                    23.668356
_cell_angle_alpha                 90.0
_cell_angle_beta                  90.00002
_cell_angle_gamma                 90.0
_cell_volume                      3510.88784912

loop_
_atom_site_label
_atom_site_type_symbol
_atom_type_description
_atom_site_fract_x
_atom_site_fract_y
_atom_site_fract_z
_atom_type_partial_charge
O1    O     O_R   0.615270 0.806540 0.192260 -0.538995
O2    O     O_R   0.384730 0.193460 0.807740 -0.538996
O3    O     O_R   0.384730 0.193460 0.692260 -0.538995
O4    O     O_R   0.615270 0.806540 0.307740 -0.538995
O5    O     O_R   0.115270 0.693460 0.307740 -0.538995
O6    O     O_R   0.884730 0.306540 0.692260 -0.538995
O7    O     O_R   0.884730 0.306540 0.807740 -0.538995
O8    O     O_R   0.115270 0.693460 0.192260 -0.538995
O9    O     O_R   0.285500 0.813970 0.307340 -0.532842
O10   O     O_R   0.714500 0.186030 0.692660 -0.532842
O11   O     O_R   0.714500 0.186030 0.807340 -0.532842
O12   O     O_R   0.285500 0.813970 0.192660 -0.532842
O13   O     O_R   0.785500 0.686030 0.192660 -0.532842
O14   O     O_R   0.214500 0.313970 0.807340 -0.532842
O15   O     O_R   0.214500 0.313970 0.692660 -0.532842
O16   O     O_R   0.785500 0.686030 0.307340 -0.532842
C1    C     C_R   0.454298 0.829079 0.326688 0.721271
C2    C     C_R   0.545702 0.170921 0.673312 0.721271
C3    C     C_R   0.545702 0.170921 0.826688 0.721271
C4    C     C_R   0.454298 0.829079 0.173312 0.721271
C5    C     C_R   0.954298 0.670921 0.173312 0.721271
C6    C     C_R   0.045702 0.329079 0.826688 0.721270
C7    C     C_R   0.045702 0.329079 0.673312 0.721271
C8    C     C_R   0.954298 0.670921 0.326688 0.721271
O17   O     O_3   0.448760 0.710460 0.250000 -0.366704
O18   O     O_3   0.551240 0.289540 0.750000 -0.366704
O19   O     O_3   0.948760 0.789540 0.250000 -0.366704
O20   O     O_3   0.051240 0.210460 0.750000 -0.366704
V1    V     V_3+5 0.173900 0.757330 0.250000 1.502641
V2    V     V_3+5 0.826100 0.242670 0.750000 1.502641
V3    V     V_3+5 0.673900 0.742670 0.250000 1.502641
V4    V     V_3+5 0.326100 0.257330 0.750000 1.502641
C9    C     C_3   0.115393 0.524106 0.540491 -0.213027
C10   C     C_3   0.884607 0.475894 0.459509 -0.213029
C11   C     C_3   0.884608 0.475894 0.040491 -0.213026
C12   C     C_3   0.115392 0.524106 0.959509 -0.213026
C13   C     C_3   0.615392 0.975894 0.959509 -0.213024
C14   C     C_3   0.384608 0.024106 0.040491 -0.213023
C15   C     C_3   0.384607 0.024106 0.459509 -0.213028
C16   C     C_3   0.615393 0.975894 0.540491 -0.213029
C17   C     C_3   0.925570 0.553321 0.518582 0.286434
C18   C     C_3   0.074430 0.446679 0.481417 0.286433
C19   C     C_3   0.074430 0.446679 0.018582 0.286433
C20   C     C_3   0.925569 0.553321 0.981418 0.286434
C21   C     C_3   0.425569 0.946679 0.981418 0.286433
C22   C     C_3   0.574430 0.053321 0.018582 0.286434
C23   C     C_3   0.574430 0.053321 0.481417 0.286434
C24   C     C_3   0.425570 0.946679 0.518582 0.286433
C25   C     C_1   0.963759 0.625202 0.371881 -0.142852
C26   C     C_1   0.036241 0.374798 0.628119 -0.142851
C27   C     C_1   0.036242 0.374798 0.871881 -0.142851
C28   C     C_1   0.963758 0.625202 0.128119 -0.142851
C29   C     C_1   0.463758 0.874798 0.128119 -0.142851
C30   C     C_1   0.536242 0.125202 0.871881 -0.142852
C31   C     C_1   0.536241 0.125202 0.628119 -0.142851
C32   C     C_1   0.463759 0.874798 0.371881 -0.142851
C33   C     C_3   0.173168 0.511149 0.478487 0.271444
C34   C     C_3   0.826833 0.488851 0.521513 0.271447
C35   C     C_3   0.826833 0.488851 0.978487 0.271447
C36   C     C_3   0.173167 0.511149 0.021513 0.271446
C37   C     C_3   0.673167 0.988851 0.021513 0.271448
C38   C     C_3   0.326832 0.011149 0.978487 0.271446
C39   C     C_3   0.326833 0.011149 0.521513 0.271443
C40   C     C_3   0.673167 0.988851 0.478487 0.271445
C41   C     C_3   0.984440 0.541000 0.456541 -0.046083
C42   C     C_3   0.015560 0.458999 0.543458 -0.046082
C43   C     C_3   0.015560 0.458999 0.956541 -0.046085
C44   C     C_3   0.984440 0.541000 0.043458 -0.046086
C45   C     C_3   0.484440 0.959000 0.043458 -0.046087
C46   C     C_3   0.515560 0.041000 0.956541 -0.046088
C47   C     C_3   0.515560 0.041001 0.543458 -0.046081
C48   C     C_3   0.484440 0.958999 0.456541 -0.046080
C49   C     C_1   0.972503 0.587211 0.409950 0.131454
C50   C     C_1   0.027497 0.412789 0.590050 0.131458
C51   C     C_1   0.027497 0.412789 0.909950 0.131455
C52   C     C_1   0.972503 0.587211 0.090050 0.131454
C53   C     C_1   0.472503 0.912789 0.090050 0.131455
C54   C     C_1   0.527497 0.087211 0.909950 0.131451
C55   C     C_1   0.527497 0.087211 0.590050 0.131455
C56   C     C_1   0.472503 0.912789 0.409950 0.131459
O21   O     O_3   0.843849 0.609089 0.538076 -0.624069
H1    H     H_    0.818078 0.602102 0.578779 0.318676
O22   O     O_3   0.156151 0.390911 0.461924 -0.624070
H2    H     H_    0.181922 0.397898 0.421220 0.318676
O23   O     O_3   0.156152 0.390911 0.038075 -0.624069
H3    H     H_    0.181923 0.397898 0.078779 0.318675
O24   O     O_3   0.843848 0.609089 0.961925 -0.624069
H4    H     H_    0.818078 0.602102 0.921221 0.318675
O25   O     O_3   0.343848 0.890911 0.961925 -0.624069
H5    H     H_    0.318077 0.897898 0.921221 0.318676
O26   O     O_3   0.656152 0.109089 0.038075 -0.624069
H6    H     H_    0.681923 0.102102 0.078779 0.318676
O27   O     O_3   0.656151 0.109089 0.461924 -0.624069
H7    H     H_    0.681921 0.102102 0.421220 0.318676
O28   O     O_3   0.343849 0.890911 0.538076 -0.624070
H8    H     H_    0.318078 0.897898 0.578779 0.318676
C57   C     C_2   0.244531 0.553640 0.583513 0.540391
H9    H     H_    0.304975 0.599600 0.575546 0.052164
O29   O     O_2   0.282637 0.526365 0.627388 -0.499138
C58   C     C_2   0.755469 0.446360 0.416487 0.540388
H10   H     H_    0.695026 0.400400 0.424453 0.052163
O30   O     O_2   0.717363 0.473635 0.372612 -0.499138
C59   C     C_2   0.755470 0.446359 0.083513 0.540390
H11   H     H_    0.695026 0.400399 0.075546 0.052163
O31   O     O_2   0.717363 0.473635 0.127388 -0.499138
C60   C     C_2   0.244530 0.553640 0.916487 0.540391
H12   H     H_    0.304974 0.599600 0.924454 0.052164
O32   O     O_2   0.282637 0.526365 0.872612 -0.499139
C61   C     C_2   0.744530 0.946359 0.916487 0.540390
H13   H     H_    0.804973 0.900399 0.924454 0.052163
O33   O     O_2   0.782637 0.973635 0.872612 -0.499139
C62   C     C_2   0.255470 0.053641 0.083513 0.540393
H14   H     H_    0.195026 0.099601 0.075546 0.052164
O34   O     O_2   0.217363 0.026365 0.127388 -0.499139
C63   C     C_2   0.255469 0.053640 0.416487 0.540390
H15   H     H_    0.195025 0.099600 0.424454 0.052164
O35   O     O_2   0.217362 0.026365 0.372612 -0.499138
C64   C     C_2   0.744531 0.946360 0.583513 0.540386
H16   H     H_    0.804974 0.900400 0.575547 0.052162
O36   O     O_2   0.782637 0.973635 0.627388 -0.499137
O37   O     O_3   0.643951 0.479197 0.544636 -0.598528
H17   H     H_    0.616957 0.434022 0.539399 0.305733
O38   O     O_3   0.356050 0.520802 0.455364 -0.598530
H18   H     H_    0.383036 0.565979 0.460597 0.305732
O39   O     O_3   0.356050 0.520803 0.044636 -0.598527
H19   H     H_    0.383036 0.565979 0.039403 0.305731
O40   O     O_3   0.643950 0.479197 0.955364 -0.598528
H20   H     H_    0.616962 0.434021 0.960598 0.305732
O41   O     O_3   0.143950 0.020803 0.955364 -0.598528
H21   H     H_    0.116968 0.065979 0.960595 0.305732
O42   O     O_3   0.856050 0.979197 0.044636 -0.598527
H22   H     H_    0.883037 0.934021 0.039402 0.305733
O43   O     O_3   0.856049 0.979198 0.455363 -0.598529
H23   H     H_    0.883045 0.934023 0.460602 0.305734
O44   O     O_3   0.143950 0.020802 0.544636 -0.598530
H24   H     H_    0.116962 0.065978 0.539402 0.305732

loop_
_geom_bond_atom_site_label_1
_geom_bond_atom_site_label_2
_ccdc_geom_bond_type
O17   V3    S    
C16   C64   S    
O24   H4    S    
O18   V4    S    
O27   H7    S    
C24   O28   S    
O12   V1    S    
O19   V1    S    
O38   H18   S    
C45   C53   S    
O28   H8    S    
C10   C18   S    
C62   O34   D    
C57   H9    S    
C12   C43   S    
O44   H24   S    
O23   H3    S    
O16   V3    S    
O11   C3    A    
O8    V1    S    
C11   C35   S    
C36   O39   S    
C16   C47   S    
C27   C51   T    
C17   C34   S    
C11   C59   S    
C61   O33   D    
C21   C45   S    
C46   C54   S    
C60   H12   S    
C20   C35   S    
C35   O40   S    
C63   H15   S    
C42   C50   S    
C21   C38   S    
O1    V3    S    
C41   C49   S    
C10   C41   S    
O3    C2    A    
O2    V4    S    
O1    C4    A    
C64   H16   S    
C35   C43   S    
C34   C42   S    
O11   V2    S    
C63   O35   D    
C10   C58   S    
C15   C48   S    
C20   O24   S    
C11   C19   S    
C13   C61   S    
O9    V1    S    
O15   C7    A    
C14   C45   S    
O16   C8    A    
O7    V2    S    
C13   C46   S    
C38   O41   S    
C24   C48   S    
C18   C33   S    
C47   C55   S    
C62   H14   S    
C57   O29   D    
C9    C42   S    
O21   H1    S    
O5    V1    S    
O17   V1    S    
C14   C22   S    
C22   C37   S    
O19   V3    S    
C19   O23   S    
O15   V4    S    
C18   C42   S    
O14   V4    S    
C23   C40   S    
C7    C26   S    
C17   C41   S    
C22   O26   S    
C12   C36   S    
C12   C60   S    
C24   C39   S    
C39   O44   S    
C29   C53   T    
C33   O38   S    
C31   C55   T    
O10   V2    S    
O22   H2    S    
O20   V4    S    
C17   O21   S    
O12   C4    A    
C58   O30   D    
O8    C5    A    
C23   O27   S    
O13   C5    A    
C59   O31   D    
C1    C32   S    
C23   C47   S    
O37   H17   S    
C19   C36   S    
O4    C1    A    
C2    C31   S    
C3    C30   S    
O9    C1    A    
O6    V2    S    
C39   C47   S    
O18   V2    S    
C15   C63   S    
O43   H23   S    
C25   C49   T    
C12   C20   S    
C43   C51   S    
C13   C21   S    
O42   H22   S    
O26   H6    S    
C21   O25   S    
C15   C23   S    
O41   H21   S    
C37   C45   S    
C8    C25   S    
C16   C24   S    
C40   O43   S    
C34   O37   S    
C9    C33   S    
O2    C3    A    
O13   V3    S    
C18   O22   S    
C33   C41   S    
C4    C29   S    
C28   C52   T    
C32   C56   T    
C13   C37   S    
C38   C46   S    
C44   C52   S    
O7    C6    A    
C15   C39   S    
C16   C40   S    
C9    C17   S    
O14   C6    A    
C26   C50   T    
C48   C56   S    
C61   H13   S    
O39   H19   S    
O5    C8    A    
C60   O32   D    
C11   C44   S    
O10   C2    A    
O6    C7    A    
O20   V2    S    
C58   H10   S    
C9    C57   S    
C40   C48   S    
O3    V4    S    
C64   O36   D    
C22   C46   S    
O4    V3    S    
C20   C44   S    
C37   O42   S    
C36   C44   S    
C19   C43   S    
C59   H11   S    
C10   C34   S    
C30   C54   T    
O25   H5    S    
C14   C62   S    
C5    C28   S    
O40   H20   S    
C6    C27   S    
C14   C38   S    
