data_mof_unit_19006.cif
_audit_creation_date              2013-03-05T16:35:51-0500
_audit_creation_method            fapswitch 2.2
_symmetry_space_group_name_H-M    P1
_symmetry_Int_Tables_number       1
_space_group_crystal_system       triclinic
_cell_length_a                    23.558919
_cell_length_b                    9.100693
_cell_length_c                    7.797653
_cell_angle_alpha                 90.000043
_cell_angle_beta                  89.999916
_cell_angle_gamma                 89.99973
_cell_volume                      1671.83621334

loop_
_atom_site_label
_atom_site_type_symbol
_atom_site_description
_atom_site_fract_x
_atom_site_fract_y
_atom_site_fract_z
_atom_type_partial_charge
O1    O     O_R   0.500000 0.288390 0.642760 -0.577582
O2    O     O_R   0.500000 0.711610 0.357240 -0.577583
O3    O     O_R   0.500000 0.711610 0.642760 -0.577582
O4    O     O_R   0.500000 0.288390 0.357240 -0.577583
H1    H     H_    0.948473 0.129666 0.517518 0.178893
H2    H     H_    0.051527 0.870330 0.517532 0.178893
H3    H     H_    0.948456 0.870317 0.482359 0.178903
H4    H     H_    0.051543 0.129680 0.482337 0.178904
C1    C     C_R   0.500000 0.220055 0.500000 0.840270
C2    C     C_R   0.500000 0.779945 0.500000 0.840270
O5    O     O_R   0.417880 0.500000 0.642820 -0.580335
O6    O     O_R   0.582120 0.500000 0.357180 -0.580334
O7    O     O_R   0.582120 0.500000 0.642820 -0.580335
O8    O     O_R   0.417880 0.500000 0.357180 -0.580334
C3    C     C_R   0.209397 0.500020 0.499971 0.274283
C4    C     C_R   0.790603 0.499976 0.499978 0.274286
C5    C     C_R   0.390924 0.500002 0.500000 0.821183
C6    C     C_R   0.609076 0.499998 0.500000 0.821182
Cu1   Cu    Cu3+1 0.500000 0.500000 0.669080 1.003487
Cu2   Cu    Cu3+1 0.500000 0.500000 0.330920 1.003487
C7    C     C_R   0.299330 0.595323 0.391987 -0.296413
C8    C     C_R   0.700670 0.404679 0.391986 -0.296415
C9    C     C_R   0.299324 0.404709 0.608000 -0.296413
C10   C     C_R   0.700676 0.595287 0.608004 -0.296415
H5    H     H_    0.322528 0.670112 0.309533 0.157364
H6    H     H_    0.677472 0.329892 0.309529 0.157366
H7    H     H_    0.322516 0.329917 0.690464 0.157361
H8    H     H_    0.677483 0.670077 0.690471 0.157363
C11   C     C_R   0.328917 0.500012 0.499997 -0.083545
C12   C     C_R   0.671083 0.499988 0.499997 -0.083546
C13   C     C_R   0.881119 0.628836 0.471341 0.566754
C14   C     C_R   0.118882 0.371160 0.471328 0.566752
C15   C     C_R   0.881125 0.371130 0.528560 0.566745
C16   C     C_R   0.118876 0.628866 0.528556 0.566741
N1    N     N_R   0.852095 0.499980 0.499957 -0.455055
N2    N     N_R   0.147905 0.500016 0.499949 -0.455057
C17   C     C_R   0.940374 0.366842 0.512672 -0.023759
C18   C     C_R   0.059626 0.633154 0.512673 -0.023758
C19   C     C_R   0.940368 0.633138 0.487207 -0.023758
C20   C     C_R   0.059632 0.366858 0.487197 -0.023759
C21   C     C_R   0.970133 0.499994 0.499936 -0.024110
C22   C     C_R   0.029868 0.500002 0.499934 -0.024109
C23   C     C_R   0.970523 0.233674 0.509883 -0.162384
C24   C     C_R   0.029478 0.766322 0.509893 -0.162385
C25   C     C_R   0.970511 0.766314 0.489990 -0.162383
C26   C     C_R   0.029489 0.233682 0.489975 -0.162385
C27   C     C_1   0.500000 0.065367 0.500000 -0.174978
C28   C     C_1   0.500000 0.934633 0.500000 -0.174978
C29   C     C_R   0.239949 0.597725 0.391766 0.261714
C30   C     C_R   0.760051 0.402273 0.391770 0.261707
C31   C     C_R   0.239942 0.402316 0.608196 0.261725
C32   C     C_R   0.760058 0.597679 0.608203 0.261725
N3    N     N_1   0.500000 0.500000 0.076820 -0.047390
N4    N     N_1   0.500000 0.500000 0.923180 -0.047389
O9    O     O_2   0.852960 0.752093 0.426529 -0.522891
O10   O     O_2   0.147040 0.247905 0.426510 -0.522888
O11   O     O_2   0.852973 0.247867 0.573387 -0.522889
O12   O     O_2   0.147028 0.752128 0.573384 -0.522889
N5    N     N_2   0.211369 0.703931 0.289008 -0.379354
H9    H     H_    0.233827 0.800072 0.271086 0.268847
C33   C     C_3   0.187693 0.648984 0.130945 -0.675000
H10   H     H_    0.160221 0.734619 0.072705 0.249172
H11   H     H_    0.161289 0.549994 0.154801 0.233326
H12   H     H_    0.222462 0.623277 0.039674 0.224585
N6    N     N_2   0.788632 0.296064 0.289017 -0.379356
H13   H     H_    0.766175 0.199920 0.271105 0.268850
C34   C     C_3   0.812307 0.351002 0.130951 -0.675007
H14   H     H_    0.839781 0.265368 0.072719 0.249174
H15   H     H_    0.838708 0.449998 0.154796 0.233326
H16   H     H_    0.777537 0.376696 0.039677 0.224585
N7    N     N_2   0.211355 0.296117 0.710944 -0.379369
H17   H     H_    0.233812 0.199981 0.728901 0.268848
C35   C     C_3   0.187659 0.351075 0.868973 -0.675020
H18   H     H_    0.160170 0.265457 0.927170 0.249175
H19   H     H_    0.161270 0.450085 0.845090 0.233328
H20   H     H_    0.222417 0.376754 0.960292 0.224591
N8    N     N_2   0.788645 0.703872 0.710958 -0.379366
H21   H     H_    0.766188 0.800010 0.728912 0.268849
C36   C     C_3   0.812332 0.648907 0.868993 -0.675025
H22   H     H_    0.839816 0.734527 0.927216 0.249174
H23   H     H_    0.838727 0.549905 0.845110 0.233333
H24   H     H_    0.777570 0.623213 0.960293 0.224589

loop_
_geom_bond_atom_site_label_1
_geom_bond_atom_site_label_2
_geom_bond_distance
_ccdc_geom_bond_type
C10   C32   1.399141 A    
C5    C11   1.460825 S    
C21   C22   1.407292 A    
Cu1   Cu2   2.636855 S    
C7    C29   1.399138 A    
C19   C21   1.403485 A    
N8    H21   1.031979 S    
C20   C26   1.404884 A    
O5    Cu1   1.945467 S    
O7    C6    1.282005 A    
C9    C11   1.395549 A    
C4    C30   1.421485 A    
C18   C22   1.403487 A    
C4    N1    1.448683 S    
C35   H18   1.110164 S    
C33   H11   1.110469 S    
N6    C34   1.442304 S    
O3    Cu1   1.936703 S    
C6    C12   1.460825 S    
C9    H7    1.084127 S    
C8    C30   1.399139 A    
C20   C22   1.403486 A    
H1    C23   1.081367 S    
N5    H9    1.031990 S    
H3    C25   1.081368 S    
H2    C24   1.081367 S    
C35   H19   1.110454 S    
O8    C5    1.282001 A    
C31   N7    1.424637 S    
C30   N6    1.424634 S    
C10   C12   1.395543 A    
N8    C36   1.442297 S    
O1    Cu1   1.936704 S    
N5    C33   1.442314 S    
O7    Cu1   1.945464 S    
O2    Cu2   1.936703 S    
C34   H14   1.110167 S    
O8    Cu2   1.945467 S    
O1    C1    1.275127 A    
C4    C32   1.421488 A    
C36   H23   1.110462 S    
N3    N4    1.198032 T    
C7    C11   1.395552 A    
C15   C17   1.401884 A    
C34   H15   1.110468 S    
C17   C23   1.404884 A    
C33   H12   1.110053 S    
C18   C24   1.404883 A    
C9    C31   1.399141 A    
C27   C28   1.189773 T    
O6    Cu2   1.945465 S    
Cu1   N4    1.981383 S    
C1    C27   1.407768 S    
C3    C31   1.421493 A    
C2    C28   1.407768 S    
C35   H20   1.110039 S    
C13   N1    1.375687 A    
C32   N8    1.424633 S    
O2    C2    1.275127 A    
C14   N2    1.375689 A    
C3    N2    1.448680 S    
C14   C20   1.401882 A    
C24   C25   1.397825 A    
N7    C35   1.442294 S    
C7    H5    1.084127 S    
O5    C5    1.282003 A    
C15   O11   1.349236 S    
C8    C12   1.395547 A    
C16   C18   1.401883 A    
C10   H8    1.084123 S    
Cu2   N3    1.981383 S    
C36   H24   1.110059 S    
C29   N5    1.424639 S    
C19   C25   1.404883 A    
C34   H16   1.110047 S    
N7    H17   1.031976 S    
O3    C2    1.275127 A    
C15   N1    1.375687 A    
C13   C19   1.401883 A    
C16   N2    1.375689 A    
C3    C29   1.421489 A    
C17   C21   1.403486 A    
C33   H10   1.110172 S    
C23   C26   1.397824 A    
H4    C26   1.081369 S    
C36   H22   1.110179 S    
O4    Cu2   1.936704 S    
N6    H13   1.031990 S    
C8    H6    1.084124 S    
O6    C6    1.282002 A    
C16   O12   1.349239 S    
C13   O9    1.349235 S    
O4    C1    1.275127 A    
C14   O10   1.349238 S    
