data_mof_unit_45341.cif
_audit_creation_date              2012-12-10T20:38:21-0500
_audit_creation_method            fapswitch 2.2
_symmetry_space_group_name_H-M    P1
_symmetry_Int_Tables_number       1
_space_group_crystal_system       triclinic
_cell_length_a                    9.874972
_cell_length_b                    10.673384
_cell_length_c                    16.667305
_cell_angle_alpha                 90.242351
_cell_angle_beta                  84.781123
_cell_angle_gamma                 90.271807
_cell_volume                      1749.40848051

loop_
_atom_site_label
_atom_site_type_symbol
_atom_type_description
_atom_site_fract_x
_atom_site_fract_y
_atom_site_fract_z
_atom_type_partial_charge
C1    C     C_R   0.499784 0.739856 0.501779 0.926586
C2    C     C_R   0.343719 0.552762 0.781323 -0.302043
C3    C     C_R   0.435230 0.675281 0.161982 -0.228632
C4    C     C_R   0.424199 0.623167 0.238162 -0.260298
C5    C     C_R   0.652542 0.538796 0.213705 0.607385
C6    C     C_R   0.662746 0.590381 0.136780 -0.199495
C7    C     C_R   0.552457 0.655017 0.110000 -0.003291
C8    C     C_2   0.446478 0.622582 0.987926 -0.313736
C9    C     C_2   0.549129 0.675009 0.023809 0.590805
C10   C     C_R   0.531219 0.551981 0.263962 -0.163852
C11   C     C_R   0.389073 0.935446 0.479680 0.089830
C12   C     C_R   0.480768 0.501039 0.653631 0.892824
C13   C     C_R   0.496220 0.871788 0.509310 -0.243486
C14   C     C_R   0.592072 0.937046 0.550856 0.607994
C15   C     C_R   0.592406 0.066763 0.549577 -0.300617
C16   C     C_R   0.495362 0.128750 0.508303 -0.189891
C17   C     C_R   0.387872 0.062984 0.479710 0.104872
C18   C     C_3   0.332186 0.068518 0.399349 -0.460358
C19   C     C_3   0.333447 0.926304 0.399487 -0.432011
C20   C     C_R   0.918194 0.526487 0.568813 0.098499
C21   C     C_R   0.937999 0.462020 0.434131 -0.083991
C22   C     C_R   0.081817 0.461760 0.434177 -0.110480
C23   C     C_R   0.499453 0.260250 0.500749 0.920003
C24   C     C_R   0.060576 0.527636 0.568688 0.131796
C25   C     C_3   0.057671 0.646575 0.616576 0.313784
C26   C     C_3   0.903720 0.644535 0.616340 -0.478795
C27   C     C_R   0.519292 0.507277 0.346792 0.897181
C28   C     C_R   0.468843 0.519439 0.740647 -0.097377
C29   C     C_R   0.585481 0.515543 0.782310 -0.221515
C30   C     C_R   0.578422 0.550103 0.862671 -0.139044
C31   C     C_R   0.455293 0.592351 0.902073 0.104334
C32   C     C_R   0.336611 0.592073 0.861589 0.545540
H1    H     H_    0.682496 0.486389 0.752769 0.166352
H2    H     H_    0.753106 0.573073 0.096412 0.192996
H3    H     H_    0.670006 0.118009 0.578209 0.190430
H4    H     H_    0.227965 0.108377 0.403514 0.210054
H5    H     H_    0.405037 0.110445 0.352000 0.203835
H6    H     H_    0.229986 0.883939 0.403932 0.233533
H7    H     H_    0.407055 0.885084 0.352261 0.195343
H8    H     H_    0.892103 0.433193 0.380519 0.199351
H9    H     H_    0.143671 0.432542 0.380575 0.154458
H10   H     H_    0.094278 0.632785 0.677030 0.055801
H11   H     H_    0.331747 0.639195 0.276962 0.189803
H12   H     H_    0.850138 0.629904 0.677113 0.171441
H13   H     H_    0.863621 0.721615 0.581105 0.294753
H14   H     H_    0.349672 0.725898 0.141953 0.164569
H15   H     H_    0.252056 0.551104 0.750702 0.160836
H16   H     H_    0.357515 0.587039 0.024171 0.166053
H17   H     H_    0.669082 0.541340 0.894086 0.202816
N1    N     N_R   0.857140 0.500860 0.500530 -0.095676
N2    N     N_R   0.142780 0.500820 0.500530 -0.085290
O1    O     O_R   0.385310 0.683210 0.499990 -0.573258
O2    O     O_R   0.614650 0.683240 0.500000 -0.575546
O3    O     O_R   0.371780 0.500000 0.615800 -0.629385
O4    O     O_R   0.601120 0.500040 0.615800 -0.613005
O5    O     O_R   0.385350 0.316760 0.500000 -0.618709
O6    O     O_R   0.614690 0.316790 0.500010 -0.619174
O7    O     O_R   0.398880 0.499960 0.384200 -0.641539
O8    O     O_R   0.628220 0.500000 0.384200 -0.572009
Zn1   Zn    Zn3+2 0.346870 0.499980 0.499990 0.973255
Zn2   Zn    Zn3+2 0.653130 0.500020 0.500010 0.994966
F1    F     F_    0.686239 0.876593 0.590302 -0.684538
O9    O     O_3   0.117648 0.747336 0.571363 -0.551770
C33   C     C_3   0.128643 0.851436 0.622806 -0.262907
H18   H     H_    0.211329 0.836433 0.662757 0.147768
H19   H     H_    0.031069 0.871882 0.659349 0.172873
H20   H     H_    0.154767 0.935376 0.585587 0.192231
F2    F     F_    0.758734 0.472658 0.237640 -0.675990
F3    F     F_    0.661208 0.722302 0.980493 -0.667099
O10   O     O_3   0.212796 0.623715 0.901939 -0.611930
C34   C     C_3   0.175975 0.743880 0.876880 -0.287490
H21   H     H_    0.154744 0.743666 0.812469 0.143043
H22   H     H_    0.255550 0.814904 0.887483 0.166066
H23   H     H_    0.081150 0.772253 0.913059 0.220171

loop_
_geom_bond_atom_site_label_1
_geom_bond_atom_site_label_2
_ccdc_geom_bond_type
C10   C27   S    
C25   H10   S    
C34   H23   S    
C2    C28   A    
C8    H16   S    
O6    Zn2   S    
C29   C30   A    
O3    Zn1   S    
C19   H6    S    
C13   C14   A    
C2    H15   S    
C3    H14   S    
C31   C32   A    
C30   C31   A    
C16   C17   A    
C33   H18   S    
C24   N2    A    
C17   C18   S    
C3    C4    A    
C26   H12   S    
C23   O5    A    
C27   O8    A    
C21   C22   A    
O5    Zn1   S    
C11   C13   A    
C11   C19   S    
C6    C7    A    
C21   H8    S    
C19   H7    S    
C12   C28   S    
C5    F2    S    
O4    Zn2   S    
C2    C32   A    
C15   H3    S    
C21   N1    A    
C4    H11   S    
C30   H17   S    
C9    F3    S    
C16   C23   S    
C3    C7    A    
C32   O10   S    
C5    C6    A    
C1    O1    A    
C12   O3    A    
C22   N2    A    
C12   O4    A    
C1    C13   S    
O7    Zn1   S    
C15   C16   A    
C14   F1    S    
C33   H20   S    
C29   H1    S    
C5    C10   A    
O10   C34   S    
C34   H21   S    
C24   C25   S    
O2    Zn2   S    
C23   O6    A    
C18   C19   S    
C25   O9    S    
O8    Zn2   S    
C34   H22   S    
C7    C9    S    
N1    Zn2   S    
C1    O2    A    
C14   C15   A    
C28   C29   A    
C20   N1    A    
N2    Zn1   S    
O1    Zn1   S    
C26   H13   S    
C25   C26   S    
O9    C33   S    
C8    C31   S    
C18   H4    S    
C20   C24   A    
C11   C17   A    
C22   H9    S    
C6    H2    S    
C4    C10   A    
C18   H5    S    
C8    C9    D    
C20   C26   S    
C27   O7    A    
C33   H19   S    
