data_mof_unit_16480.cif
_audit_creation_date              2012-12-10T17:50:39-0500
_audit_creation_method            fapswitch 2.2
_symmetry_space_group_name_H-M    P1
_symmetry_Int_Tables_number       1
_space_group_crystal_system       triclinic
_cell_length_a                    15.714533
_cell_length_b                    10.631923
_cell_length_c                    9.933039
_cell_angle_alpha                 89.919015
_cell_angle_beta                  90.006337
_cell_angle_gamma                 91.649712
_cell_volume                      1658.87996082

loop_
_atom_site_label
_atom_site_type_symbol
_atom_type_description
_atom_site_fract_x
_atom_site_fract_y
_atom_site_fract_z
_atom_type_partial_charge
C1    C     C_R   0.502173 0.260762 0.500113 0.846619
C2    C     C_R   0.711464 0.074174 0.684962 -0.138105
C3    C     C_R   0.711543 0.943304 0.684778 -0.141475
C4    C     C_R   0.338060 0.499474 0.499997 0.885099
C5    C     C_R   0.644923 0.874869 0.624215 -0.189086
C6    C     C_R   0.576210 0.937208 0.563914 0.095066
C7    C     C_R   0.576086 0.069093 0.564182 0.097475
C8    C     C_R   0.508000 0.128678 0.499938 -0.085234
C9    C     C_R   0.443796 0.061931 0.432273 -0.215414
C10   C     C_R   0.443936 0.933412 0.432005 -0.199237
C11   C     C_R   0.508268 0.871989 0.499406 -0.097236
C12   C     C_3   0.082724 0.494102 0.503260 0.190151
C13   C     C_R   0.388591 0.334880 0.140009 -0.150205
C14   C     C_R   0.333741 0.253467 0.070026 -0.201217
C15   C     C_R   0.333720 0.253465 0.930675 -0.135589
C16   C     C_R   0.502463 0.739405 0.499879 0.864933
C17   C     C_R   0.388610 0.334792 0.860421 -0.122161
C18   C     C_R   0.445175 0.418564 0.927861 0.156340
C19   C     C_R   0.445176 0.418616 0.072333 0.170652
C20   C     C_R   0.552447 0.577924 0.071304 -0.107724
C21   C     C_R   0.552427 0.577899 0.928327 -0.107414
C22   C     C_R   0.661949 0.500184 0.500062 0.877903
C23   C     C_3   0.972773 0.566110 0.605600 -0.237793
C24   C     C_3   0.968717 0.375658 0.517779 -0.242491
C25   C     C_3   0.026542 0.423024 0.400614 -0.181434
C26   C     C_1   0.249072 0.497457 0.500266 -0.157375
C27   C     C_1   0.750883 0.498390 0.500436 -0.193687
C28   C     C_3   0.026173 0.447529 0.619054 0.055255
C29   C     C_2   0.054227 0.394123 0.750876 0.358362
C30   C     C_3   0.917045 0.494983 0.502574 0.199630
C31   C     C_3   0.030511 0.613045 0.488274 -0.181804
C32   C     C_3   0.972898 0.542079 0.385442 -0.137727
C33   C     C_1   0.173711 0.495627 0.501343 -0.008976
C34   C     C_1   0.826184 0.496615 0.501354 -0.072811
C35   C     C_R   0.644727 0.137076 0.624684 -0.173793
H1    H     H_    0.050412 0.364765 0.316790 0.143146
H2    H     H_    0.595278 0.641681 0.874623 0.144167
H3    H     H_    0.941510 0.278821 0.530463 0.136863
H4    H     H_    0.948823 0.580978 0.289377 0.133572
H5    H     H_    0.057598 0.709978 0.476012 0.139718
H6    H     H_    0.948903 0.624129 0.689639 0.134994
H7    H     H_    0.392549 0.109605 0.382069 0.138498
H8    H     H_    0.648320 0.238709 0.624279 0.152671
H9    H     H_    0.763693 0.127186 0.730731 0.132684
H10   H     H_    0.006892 0.364585 0.824702 0.052216
H11   H     H_    0.763817 0.894644 0.730440 0.132332
H12   H     H_    0.648661 0.773497 0.623362 0.141218
H13   H     H_    0.392767 0.881442 0.381687 0.153206
H14   H     H_    0.595328 0.641700 0.124740 0.147496
H15   H     H_    0.384645 0.329476 0.246766 0.198268
H16   H     H_    0.290926 0.190051 0.124457 0.146489
H17   H     H_    0.290852 0.190092 0.876468 0.163180
H18   H     H_    0.384750 0.329259 0.753651 0.202745
N1    N     N_R   0.499210 0.498800 0.142780 -0.120445
N2    N     N_R   0.499180 0.498720 0.857170 -0.120761
O1    O     O_R   0.500000 0.316780 0.614690 -0.643797
O2    O     O_R   0.499990 0.316750 0.385360 -0.629933
O3    O     O_R   0.376780 0.500000 0.614650 -0.613283
O4    O     O_R   0.376770 0.499980 0.385310 -0.636398
O5    O     O_R   0.500010 0.683250 0.614640 -0.614406
O6    O     O_R   0.500000 0.683220 0.385310 -0.612002
O7    O     O_R   0.623230 0.500020 0.614690 -0.628216
O8    O     O_R   0.623220 0.500000 0.385350 -0.605522
O9    O     O_2   0.129676 0.383502 0.776013 -0.569756
Zn1   Zn    Zn3+2 0.500010 0.500020 0.653130 0.939537
Zn2   Zn    Zn3+2 0.499990 0.499980 0.346870 0.942022

loop_
_geom_bond_atom_site_label_1
_geom_bond_atom_site_label_2
_ccdc_geom_bond_type
C2    C35   A    
C4    C26   S    
C6    C7    A    
N1    Zn2   S    
C1    O2    A    
C22   O7    A    
C1    C8    S    
C35   H8    S    
C9    C10   A    
C12   C25   S    
O3    Zn1   S    
C24   H3    S    
C31   C32   S    
C23   H6    S    
O2    Zn2   S    
C10   C11   A    
C25   C32   S    
C17   C18   A    
C12   C33   S    
C29   O9    D    
C21   N2    A    
C7    C8    A    
C12   C31   S    
C27   C34   T    
C15   H17   S    
C24   C25   S    
C30   C32   S    
C5    H12   S    
C9    H7    S    
C20   H14   S    
C18   N2    A    
C12   C28   S    
C31   H5    S    
C4    O4    A    
C28   C29   S    
N2    Zn1   S    
C1    O1    A    
O5    Zn1   S    
C2    C3    A    
C22   C27   S    
O4    Zn2   S    
C10   H13   S    
C5    C6    A    
C13   C14   A    
C24   C30   S    
O8    Zn2   S    
C11   C16   S    
C16   O6    A    
C30   C34   S    
C25   H1    S    
O1    Zn1   S    
C23   C30   S    
C17   H18   S    
C13   H15   S    
C21   H2    S    
C20   C21   A    
C19   N1    A    
C14   H16   S    
C20   N1    A    
C18   C19   A    
C16   O5    A    
C32   H4    S    
C4    O3    A    
C6    C11   A    
C15   C17   A    
C13   C19   A    
C14   C15   A    
C3    H11   S    
O7    Zn1   S    
C22   O8    A    
C23   C28   S    
C7    C35   A    
O6    Zn2   S    
C2    H9    S    
C24   C28   S    
C26   C33   T    
C29   H10   S    
C8    C9    A    
C3    C5    A    
C23   C31   S    
