data_mof_unit_54617.cif
_audit_creation_date              2012-12-11T14:21:14-0500
_audit_creation_method            fapswitch 2.2
_symmetry_space_group_name_H-M    P1
_symmetry_Int_Tables_number       1
_space_group_crystal_system       triclinic
_cell_length_a                    21.958097
_cell_length_b                    7.196745
_cell_length_c                    14.928557
_cell_angle_alpha                 89.994498
_cell_angle_beta                  107.12895
_cell_angle_gamma                 89.997381
_cell_volume                      2254.47241211

loop_
_atom_site_label
_atom_site_type_symbol
_atom_type_description
_atom_site_fract_x
_atom_site_fract_y
_atom_site_fract_z
_atom_type_partial_charge
O1    O     O_R   0.584770 0.505770 0.002090 -0.539788
O2    O     O_R   0.415230 0.005770 0.997910 -0.539859
O3    O     O_R   0.467060 0.173340 0.861950 -0.542152
O4    O     O_R   0.532940 0.673340 0.138050 -0.542184
C1    C     C_R   0.454505 0.344216 0.825436 0.679450
C2    C     C_R   0.545479 0.844193 0.174577 0.679352
O5    O     O_R   0.587510 0.175890 0.993210 -0.540239
O6    O     O_R   0.412490 0.675890 0.006790 -0.540230
O7    O     O_R   0.536540 0.008150 0.130100 -0.536133
O8    O     O_R   0.463460 0.508150 0.869900 -0.536122
C3    C     C_R   0.613027 0.344916 0.997653 0.734539
C4    C     C_R   0.386972 0.844921 0.002344 0.734519
O9    O     O_3   0.483140 0.340040 0.044760 -0.377198
O10   O     O_3   0.516860 0.840040 0.955240 -0.377145
V1    V     V_3+5 0.503130 0.064190 0.991700 1.387387
V2    V     V_3+5 0.496870 0.564190 0.008300 1.387407
C5    C     C_2   0.213839 0.727235 0.002411 -0.129395
C6    C     C_2   0.786164 0.227245 0.997577 -0.129371
C7    C     C_2   0.180311 0.886704 0.996105 -0.308136
C8    C     C_2   0.819688 0.386713 0.003894 -0.308183
H1    H     H_    0.190631 0.596104 0.007558 0.138509
H2    H     H_    0.809374 0.096119 0.992420 0.138547
H3    H     H_    0.201969 0.019279 0.989777 0.127364
H4    H     H_    0.798028 0.519284 0.010233 0.127390
C9    C     C_2   0.281700 0.714313 0.002094 -0.143795
C10   C     C_2   0.718303 0.214310 0.997895 -0.143857
C11   C     C_2   0.319866 0.861396 0.003128 -0.307122
C12   C     C_2   0.680133 0.361389 0.996863 -0.307148
H5    H     H_    0.300761 0.575158 0.001732 0.135161
H6    H     H_    0.699247 0.075153 0.998254 0.135218
H7    H     H_    0.302061 0.001398 0.004256 0.130965
H8    H     H_    0.697933 0.501391 0.995735 0.131020
C13   C     C_R   0.925994 0.887841 0.723923 -0.026253
C14   C     C_R   0.074007 0.387649 0.276055 -0.026034
C15   C     C_R   0.572229 0.846142 0.277581 -0.055357
C16   C     C_R   0.427712 0.346346 0.722456 -0.055224
C17   C     C_R   0.933989 0.925751 0.567036 -0.167294
C18   C     C_R   0.065878 0.422915 0.433005 -0.167283
C19   C     C_R   0.962699 0.921958 0.663588 -0.174442
C20   C     C_R   0.037198 0.419866 0.336436 -0.174603
C21   C     C_R   0.860367 0.858086 0.687818 -0.214047
C22   C     C_R   0.139692 0.358991 0.312113 -0.214002
C23   C     C_R   0.829927 0.862712 0.590151 0.082768
C24   C     C_R   0.170086 0.362681 0.409796 0.082817
C25   C     C_R   0.868015 0.898420 0.529903 0.141573
C26   C     C_R   0.131905 0.396572 0.470106 0.141591
C27   C     C_R   0.762939 0.835956 0.550480 0.065094
C28   C     C_R   0.237106 0.336575 0.449434 0.065069
C29   C     C_R   0.734354 0.867965 0.452765 0.054821
C30   C     C_R   0.265608 0.367638 0.547238 0.054828
C31   C     C_R   0.774502 0.887515 0.395073 -0.215011
C32   C     C_R   0.225407 0.385534 0.604949 -0.214948
C33   C     C_R   0.840077 0.904521 0.433063 -0.198476
C34   C     C_R   0.159805 0.401753 0.566969 -0.198485
C35   C     C_R   0.724126 0.768821 0.603856 -0.190314
C36   C     C_R   0.276040 0.270865 0.395925 -0.190266
C37   C     C_R   0.660209 0.728380 0.561864 -0.194921
C38   C     C_R   0.339994 0.230777 0.437881 -0.194934
C39   C     C_R   0.631587 0.767672 0.467321 0.120965
C40   C     C_R   0.368521 0.269174 0.532545 0.120869
C41   C     C_R   0.666753 0.857180 0.413901 0.051054
C42   C     C_R   0.333214 0.357476 0.586118 0.051283
C43   C     C_R   0.568466 0.713739 0.425032 -0.185247
C44   C     C_R   0.431685 0.215554 0.574793 -0.185067
C45   C     C_R   0.540810 0.741508 0.329620 -0.202777
C46   C     C_R   0.459265 0.242610 0.670279 -0.202734
C47   C     C_R   0.632493 0.925829 0.323188 0.056424
C48   C     C_R   0.367349 0.425597 0.676977 0.056312
H9    H     H_    0.869090 0.923578 0.386256 0.123754
H10   H     H_    0.130740 0.419429 0.613801 0.123704
H11   H     H_    0.494197 0.682782 0.296175 0.126050
H12   H     H_    0.505943 0.184209 0.703653 0.125856
H13   H     H_    0.633023 0.664745 0.603697 0.123208
H14   H     H_    0.367286 0.168149 0.395927 0.123173
H15   H     H_    0.963276 0.952410 0.521309 0.117925
H16   H     H_    0.036515 0.448088 0.478776 0.117917
H17   H     H_    0.013467 0.946621 0.691347 0.106985
H18   H     H_    0.986370 0.443554 0.308707 0.106912
H19   H     H_    0.834060 0.840283 0.737904 0.095988
H20   H     H_    0.166059 0.342582 0.262013 0.095881
H21   H     H_    0.755605 0.884422 0.319462 0.126110
H22   H     H_    0.244294 0.381667 0.680554 0.126082
H23   H     H_    0.742805 0.732672 0.676889 0.123045
H24   H     H_    0.257438 0.235480 0.322787 0.123012
H25   H     H_    0.541904 0.639419 0.464469 0.124600
H26   H     H_    0.458358 0.142091 0.535234 0.124584
O11   O     O_R   0.036450 0.233070 0.130130 -0.538016
O12   O     O_R   0.963550 0.733070 0.869870 -0.538038
O13   O     O_R   0.912470 0.560570 0.006790 -0.545688
O14   O     O_R   0.087530 0.060570 0.993210 -0.545688
C49   C     C_R   0.886968 0.391894 0.002632 0.730737
C50   C     C_R   0.113032 0.891889 0.997367 0.730782
O15   O     O_R   0.032920 0.562940 0.138050 -0.538786
O16   O     O_R   0.967080 0.062940 0.861950 -0.538798
O17   O     O_R   0.084790 0.730500 0.002090 -0.536875
O18   O     O_R   0.915210 0.230500 0.997910 -0.536868
C51   C     C_R   0.044991 0.394521 0.174580 0.685096
C52   C     C_R   0.954999 0.894549 0.825414 0.685074
O19   O     O_3   0.016820 0.396170 0.955260 -0.378178
O20   O     O_3   0.983180 0.896170 0.044740 -0.378152
V3    V     V_3+5 0.996880 0.672090 0.008300 1.412987
V4    V     V_3+5 0.003120 0.172090 0.991700 1.412972
C53   C     C_3   0.653159 0.102434 0.283461 -0.385746
C54   C     C_3   0.611183 0.267788 0.291677 -0.656284
H27   H     H_    0.559933 0.239987 0.257740 0.234908
H28   H     H_    0.617862 0.300208 0.366745 0.214942
H29   H     H_    0.625110 0.391829 0.257986 0.207138
H30   H     H_    0.701924 0.146744 0.322470 0.189453
H31   H     H_    0.652492 0.081026 0.209535 0.178744
C55   C     C_3   0.346418 0.601388 0.717056 -0.385893
C56   C     C_3   0.388035 0.767679 0.708925 -0.655751
H32   H     H_    0.439372 0.740387 0.742427 0.235027
H33   H     H_    0.381038 0.801051 0.633878 0.214918
H34   H     H_    0.374059 0.890967 0.743103 0.206647
H35   H     H_    0.297534 0.645101 0.678288 0.189407
H36   H     H_    0.347253 0.579246 0.791005 0.178626

loop_
_geom_bond_atom_site_label_1
_geom_bond_atom_site_label_2
_ccdc_geom_bond_type
C43   C45   A    
C22   H20   S    
C17   C25   A    
O18   V4    S    
C56   H32   S    
C14   C22   A    
O2    C4    A    
C2    O7    A    
C54   H28   S    
O12   V3    S    
C47   C53   S    
C27   C29   A    
C18   H16   S    
O5    C3    A    
C13   C19   A    
C14   C20   A    
C19   H17   S    
C16   C46   A    
C37   C39   A    
C15   C45   A    
C38   C40   A    
C1    C16   S    
C14   C51   S    
C2    C15   S    
C40   C42   A    
C13   C52   S    
C37   H13   S    
C55   C56   S    
O14   V4    S    
C7    C50   S    
C49   O18   A    
C46   H12   S    
C8    H4    S    
C24   C26   A    
C29   C31   A    
C6    C10   S    
C30   C32   A    
C53   H30   S    
O13   C49   A    
C31   H21   S    
C28   C30   A    
C53   H31   S    
C17   H15   S    
C33   H9    S    
O6    V2    S    
C43   H25   S    
C21   C23   A    
C22   C24   A    
C44   H26   S    
C54   H27   S    
C32   C34   A    
C36   H24   S    
C9    H5    S    
C8    C49   S    
C39   C41   A    
C29   C41   A    
C4    C11   S    
C11   H7    S    
C12   H8    S    
O4    C2    A    
O15   V3    S    
C45   H11   S    
C50   O17   A    
C5    H1    S    
C31   C33   A    
C44   C46   A    
O4    V2    S    
C7    H3    S    
O11   V4    S    
C41   C47   A    
O15   C51   A    
O14   C50   A    
C34   H10   S    
C15   C47   A    
O6    C4    A    
C26   C34   A    
C56   H33   S    
O1    V2    S    
C48   C55   S    
C32   H22   S    
O2    V1    S    
C23   C25   A    
C10   H6    S    
C35   C37   A    
C30   C42   A    
C20   H18   S    
C35   H23   S    
C55   H36   S    
O3    V1    S    
C38   H14   S    
C27   C35   A    
C28   C36   A    
O13   V3    S    
C6    H2    S    
C10   C12   D    
O3    C1    A    
C21   H19   S    
C16   C48   A    
C9    C11   D    
C39   C43   A    
C42   C48   A    
C40   C44   A    
C13   C21   A    
O7    V1    S    
C5    C9    S    
C1    O8    A    
C17   C19   A    
O8    V2    S    
C18   C20   A    
C3    C12   S    
O5    V1    S    
O20   V3    S    
C5    C7    D    
C36   C38   A    
C56   H34   S    
C6    C8    D    
C18   C26   A    
C25   C33   A    
O17   V3    S    
O19   V4    S    
O16   V4    S    
O9    V2    S    
C53   C54   S    
O16   C52   A    
O10   V1    S    
O1    C3    A    
C23   C27   A    
C55   H35   S    
C54   H29   S    
O12   C52   A    
C24   C28   A    
O11   C51   A    
