data_mof_unit_54723.cif
_audit_creation_date              2013-03-05T16:05:41-0500
_audit_creation_method            fapswitch 2.2
_symmetry_space_group_name_H-M    P1
_symmetry_Int_Tables_number       1
_space_group_crystal_system       triclinic
_cell_length_a                    10.672135
_cell_length_b                    14.868567
_cell_length_c                    15.469883
_cell_angle_alpha                 81.265446
_cell_angle_beta                  89.544637
_cell_angle_gamma                 104.02326
_cell_volume                      2351.40867553

loop_
_atom_site_label
_atom_site_type_symbol
_atom_site_description
_atom_site_fract_x
_atom_site_fract_y
_atom_site_fract_z
_atom_type_partial_charge
O1    O     O_R   0.462770 0.383110 0.605620 -0.518283
O2    O     O_R   0.510160 0.531900 0.639510 -0.642909
C1    C     C_R   0.479399 0.440496 0.662922 0.892489
O3    O     O_R   0.661510 0.425600 0.483070 -0.639922
O4    O     O_R   0.708900 0.574390 0.516960 -0.625671
C2    C     C_R   0.741618 0.499862 0.501320 0.871713
Zn1   Zn    Zn3+2 0.468350 0.400660 0.477370 0.996623
Zn2   Zn    Zn3+2 0.531650 0.599340 0.522630 0.959215
O5    O     O_R   0.489840 0.468100 0.360490 -0.634980
O6    O     O_R   0.537230 0.616890 0.394380 -0.576447
O7    O     O_R   0.291100 0.425610 0.483040 -0.591363
O8    O     O_R   0.338490 0.574400 0.516930 -0.612942
C3    C     C_R   0.517520 0.559036 0.337673 0.867218
C4    C     C_R   0.257670 0.499823 0.500187 0.870296
C5    C     C_3   0.895543 0.414946 0.568820 -0.488920
H1    H     H_    0.834308 0.347829 0.554061 0.196260
H2    H     H_    0.861224 0.420730 0.635502 0.148449
C6    C     C_3   0.040708 0.416327 0.569342 0.300400
H3    H     H_    0.072120 0.434447 0.634373 0.087348
H4    H     H_    0.869756 0.428580 0.386908 0.176490
H5    H     H_    0.087475 0.435220 0.380047 0.142691
C7    C     C_3   0.925473 0.493789 0.409136 -0.405042
C8    C     C_3   0.957018 0.590881 0.531721 -0.447855
C9    C     C_3   0.877526 0.499661 0.502684 0.057243
H6    H     H_    0.938800 0.652602 0.487861 0.223968
H7    H     H_    0.925404 0.595058 0.599514 0.127056
C10   C     C_3   0.120745 0.500398 0.500687 -0.032713
C11   C     C_3   0.070116 0.496004 0.407400 -0.394938
C12   C     C_3   0.101437 0.594486 0.528370 0.345382
H8    H     H_    0.137280 0.598289 0.595791 0.040270
H9    H     H_    0.909465 0.553982 0.361974 0.182940
H10   H     H_    0.123677 0.558647 0.361206 0.225127
C13   C     C_R   0.448187 0.404475 0.757015 -0.188169
C14   C     C_R   0.518751 0.596083 0.244657 -0.089365
C15   C     C_R   0.329423 0.292776 0.878680 -0.279249
C16   C     C_R   0.379881 0.311397 0.792153 0.411991
C17   C     C_R   0.475159 0.472234 0.812324 -0.316828
C18   C     C_R   0.421087 0.455367 0.897311 0.100139
C19   C     C_R   0.348212 0.363711 0.930738 0.098897
C20   C     C_R   0.443325 0.526351 0.951131 0.083543
C21   C     C_R   0.408163 0.500480 0.041515 0.075823
C22   C     C_R   0.327791 0.410075 0.071693 -0.224020
C23   C     C_R   0.297780 0.343114 0.016717 -0.189734
C24   C     C_R   0.501285 0.621828 0.918155 -0.233930
C25   C     C_R   0.541454 0.686663 0.974265 -0.214162
C26   C     C_R   0.527567 0.657853 0.064460 0.136110
C27   C     C_R   0.459112 0.564757 0.098836 0.097701
C28   C     C_R   0.586019 0.719749 0.120751 -0.148254
C29   C     C_R   0.583563 0.688307 0.210422 -0.083739
C30   C     C_R   0.454812 0.536070 0.189360 -0.261698
H11   H     H_    0.238462 0.273887 0.042581 0.152507
H12   H     H_    0.408310 0.465087 0.218150 0.154146
H13   H     H_    0.635397 0.734806 0.252540 0.234398
H14   H     H_    0.589503 0.758458 0.946925 0.171238
H15   H     H_    0.276006 0.222378 0.906234 0.190710
H16   H     H_    0.540426 0.538884 0.787625 0.168587
H17   H     H_    0.285459 0.389269 0.137414 0.136839
H18   H     H_    0.516146 0.648670 0.849065 0.157459
H19   H     H_    0.638519 0.790979 0.095050 0.171477
N1    N     N_R   0.573860 0.731700 0.552730 -0.133786
N2    N     N_R   0.426060 0.268290 0.447230 -0.089929
C31   C     C_R   0.683563 0.835660 0.646632 0.381547
C32   C     C_R   0.643708 0.745809 0.624251 -0.129324
C33   C     C_R   0.543353 0.802532 0.498770 -0.024821
C34   C     C_R   0.580391 0.895144 0.516211 -0.053244
C35   C     C_R   0.645609 0.909799 0.594534 0.058912
C36   C     C_R   0.543004 0.970961 0.463707 -0.059703
C37   C     C_R   0.549901 0.054778 0.499637 0.040710
C38   C     C_R   0.617670 0.067486 0.576645 -0.181143
C39   C     C_R   0.668214 0.997419 0.621328 -0.150390
C40   C     C_R   0.494344 0.966305 0.378498 0.336863
C41   C     C_R   0.418818 0.026628 0.344904 -0.253935
C42   C     C_R   0.411714 0.102973 0.384942 0.081312
C43   C     C_R   0.486071 0.122124 0.458347 -0.032917
C44   C     C_R   0.339863 0.165048 0.347631 -0.271373
C45   C     C_R   0.348116 0.248048 0.380434 0.010852
C46   C     C_R   0.493456 0.208784 0.486548 0.073349
H20   H     H_    0.719040 0.010786 0.680211 0.194590
H21   H     H_    0.557240 0.233773 0.535758 0.147672
H22   H     H_    0.298674 0.299008 0.349407 0.105403
H23   H     H_    0.374512 0.018746 0.282744 0.198873
H24   H     H_    0.667600 0.686623 0.664090 0.145847
H25   H     H_    0.485826 0.783768 0.444934 0.205532
H26   H     H_    0.632197 0.130517 0.605315 0.170550
H27   H     H_    0.282309 0.151365 0.291488 0.147154
O9    O     O_3   0.165357 0.673968 0.466512 -0.609861
C47   C     C_3   0.221950 0.752963 0.506684 0.150701
H28   H     H_    0.284552 0.805092 0.455555 0.175475
H29   H     H_    0.284759 0.734962 0.560364 0.132449
C48   C     C_3   0.122250 0.800562 0.539459 -0.463442
H30   H     H_    0.056397 0.814026 0.486411 0.245336
H31   H     H_    0.064693 0.754241 0.596330 0.207468
C49   C     C_3   0.188180 0.893675 0.568325 -0.872696
H32   H     H_    0.255239 0.882328 0.621149 0.273623
H33   H     H_    0.114025 0.925449 0.593476 0.262603
H34   H     H_    0.243162 0.943361 0.512147 0.271342
S1    S     S_3+6 0.362617 0.215189 0.734503 0.022025
O10   O     O_2   0.493316 0.213658 0.699087 -0.313431
O11   O     O_2   0.307201 0.123792 0.793799 -0.306481
O12   O     O_3   0.264440 0.225953 0.651322 -0.514847
H35   H     H_    0.179006 0.220011 0.680141 0.363013
O13   O     O_3   0.746379 0.850149 0.723511 -0.654189
C50   C     C_3   0.861891 0.818897 0.726525 0.068123
H36   H     H_    0.942776 0.879227 0.735626 0.180753
H37   H     H_    0.887658 0.794737 0.665406 0.119246
C51   C     C_3   0.852822 0.740891 0.804938 -0.334406
H38   H     H_    0.840009 0.768705 0.866313 0.237253
H39   H     H_    0.767606 0.682057 0.800156 0.208288
C52   C     C_3   0.974151 0.703499 0.809249 -0.936284
H40   H     H_    0.985299 0.671337 0.750262 0.246723
H41   H     H_    0.966082 0.649004 0.868064 0.271748
H42   H     H_    0.061180 0.761121 0.813606 0.278128
S2    S     S_3+6 0.552398 0.907482 0.301281 -0.024599
O14   O     O_2   0.449395 0.821854 0.289451 -0.305270
O15   O     O_2   0.581387 0.971147 0.214470 -0.285707
O16   O     O_3   0.688335 0.876717 0.333846 -0.583304
H43   H     H_    0.751680 0.936801 0.337659 0.358817
O17   O     O_3   0.067715 0.326754 0.569662 -0.617653
C53   C     C_3   0.025493 0.281240 0.497135 0.160608
H44   H     H_    0.109439 0.290326 0.451153 0.162090
H45   H     H_    0.949678 0.307257 0.460260 0.121013
C54   C     C_3   0.973234 0.176191 0.529417 -0.354588
H46   H     H_    0.050978 0.146880 0.561004 0.254136
H47   H     H_    0.892955 0.165691 0.578921 0.222401
C55   C     C_3   0.924107 0.123129 0.454392 -0.956065
H48   H     H_    0.842867 0.148694 0.423600 0.268445
H49   H     H_    0.888933 0.047038 0.479953 0.276128
H50   H     H_    0.003273 0.132678 0.404222 0.264678

loop_
_geom_bond_atom_site_label_1
_geom_bond_atom_site_label_2
_geom_bond_distance
_ccdc_geom_bond_type
C5    C6    1.544478 S    
C47   H28   1.107777 S    
C49   H32   1.111019 S    
C39   H20   1.083550 S    
C21   C22   1.415910 A    
C15   C16   1.400751 A    
S1    O10   1.501100 D    
C35   C39   1.393031 A    
C25   C26   1.391677 A    
Zn1   O7    2.017656 S    
C12   H8    1.118537 S    
C48   C49   1.527038 S    
N1    C32   1.353386 A    
C8    C12   1.529347 S    
C17   C18   1.393589 A    
C52   H41   1.110325 S    
O4    C2    1.294605 A    
O7    C4    1.301309 A    
C29   H13   1.079685 S    
C10   C12   1.582144 S    
C51   H38   1.111661 S    
C1    C13   1.478397 S    
C37   C43   1.420548 A    
C5    H1    1.109325 S    
C13   C16   1.420735 A    
O16   H43   0.991236 S    
C40   S2    1.773103 S    
C5    H2    1.114376 S    
C6    H3    1.113982 S    
C42   C43   1.415391 A    
C8    H7    1.114389 S    
O5    C3    1.303775 A    
O17   C53   1.417994 S    
Zn1   N2    2.036243 S    
C3    C14   1.459334 S    
C17   H16   1.076783 S    
C44   H27   1.083780 S    
N2    C46   1.349827 A    
C37   C38   1.412022 A    
C34   C36   1.426431 A    
C43   C46   1.406726 A    
C55   H50   1.110991 S    
C30   H12   1.076315 S    
C8    C9    1.547436 S    
C16   S1    1.771416 S    
C4    C10   1.463348 S    
C6    O17   1.428602 S    
C41   H23   1.084713 S    
S2    O16   1.682528 S    
C53   H45   1.105304 S    
C49   H33   1.110419 S    
C7    C11   1.535942 S    
C42   C44   1.400434 A    
C38   C39   1.383353 A    
O3    Zn1   2.009262 S    
C22   H17   1.078383 S    
S1    O11   1.503737 D    
C27   C30   1.397583 A    
C46   H21   1.073555 S    
N2    C45   1.355386 A    
C26   C28   1.402921 A    
C14   C30   1.392701 A    
C7    H9    1.113664 S    
C31   C35   1.407313 A    
C32   H24   1.079716 S    
C15   H15   1.083395 S    
C36   C37   1.426198 A    
C11   H10   1.112783 S    
O3    C2    1.292599 A    
C52   H42   1.110905 S    
C24   H18   1.078831 S    
O9    C47   1.419291 S    
C19   C23   1.391985 A    
C13   C17   1.398261 A    
O1    C1    1.305432 A    
C15   C19   1.399719 A    
C44   C45   1.387982 A    
C33   H25   1.069610 S    
C31   C32   1.397497 A    
C48   H31   1.108165 S    
Zn2   O8    2.009262 S    
C2    C9    1.451474 S    
C21   C27   1.417237 A    
C50   H37   1.116045 S    
C12   O9    1.425877 S    
C20   C21   1.414974 A    
H5    C11   1.107349 S    
H4    C7    1.112196 S    
C25   H14   1.084208 S    
C49   H34   1.110024 S    
C47   H29   1.113032 S    
C55   H48   1.111026 S    
C7    C9    1.553068 S    
C22   C23   1.387121 A    
C54   H47   1.110548 S    
C10   C11   1.550076 S    
S1    O12   1.679110 S    
C24   C25   1.387913 A    
C28   H19   1.083819 S    
S2    O14   1.502837 D    
C53   C54   1.528582 S    
Zn1   O5    1.912768 S    
C26   C27   1.418707 A    
C5    C9    1.549002 S    
C14   C29   1.397552 A    
O1    Zn1   1.959924 S    
O2    Zn2   1.912768 S    
C6    C10   1.576415 S    
C45   H22   1.081780 S    
O8    C4    1.291461 A    
C41   C42   1.390127 A    
O6    C3    1.303144 A    
O4    Zn2   2.017655 S    
C53   H44   1.108545 S    
N1    C33   1.347396 A    
C33   C34   1.405686 A    
C54   C55   1.526990 S    
O2    C1    1.310862 A    
C40   C41   1.392722 A    
C38   H26   1.075164 S    
C52   H40   1.110807 S    
Zn2   N1    2.035876 S    
C18   C20   1.418494 A    
C23   H11   1.084168 S    
C48   H30   1.111253 S    
C18   C19   1.412580 A    
C51   H39   1.110389 S    
C28   C29   1.392882 A    
O12   H35   0.990152 S    
C50   C51   1.530514 S    
C36   C40   1.425917 A    
C8    H6    1.113458 S    
O13   C50   1.417652 S    
C20   C24   1.416902 A    
Zn2   O6    1.959924 S    
C34   C35   1.421303 A    
C47   C48   1.534753 S    
C50   H36   1.111134 S    
C55   H49   1.110501 S    
S2    O15   1.503549 D    
C54   H46   1.110916 S    
C31   O13   1.389514 S    
C51   C52   1.526158 S    
