data_mof_unit_36807.cif
_audit_creation_date              2012-12-10T18:32:00-0500
_audit_creation_method            fapswitch 2.2
_symmetry_space_group_name_H-M    P1
_symmetry_Int_Tables_number       1
_space_group_crystal_system       triclinic
_cell_length_a                    10.636723
_cell_length_b                    14.984209
_cell_length_c                    15.458527
_cell_angle_alpha                 82.575468
_cell_angle_beta                  89.529024
_cell_angle_gamma                 104.232706
_cell_volume                      2366.12449358

loop_
_atom_site_label
_atom_site_type_symbol
_atom_type_description
_atom_site_fract_x
_atom_site_fract_y
_atom_site_fract_z
_atom_type_partial_charge
C1    C     C_R   0.478023 0.441992 0.662210 0.861195
C2    C     C_R   0.402681 0.445455 0.898370 0.092132
C3    C     C_R   0.367850 0.349270 0.930268 0.172145
C4    C     C_R   0.742140 0.500649 0.500088 0.828670
C5    C     C_R   0.405187 0.511983 0.955892 0.068562
C6    C     C_R   0.397870 0.482139 0.046544 0.067361
C7    C     C_R   0.356229 0.385808 0.076893 -0.228974
C8    C     C_R   0.338936 0.320483 0.019067 -0.230535
C9    C     C_R   0.417724 0.607347 0.926080 -0.234401
C10   C     C_R   0.439038 0.672773 0.983922 -0.238607
C11   C     C_R   0.453931 0.645446 0.072040 0.176948
C12   C     C_3   0.121250 0.500203 0.500012 0.176774
C13   C     C_R   0.435202 0.549827 0.103509 0.092134
C14   C     C_R   0.490381 0.712397 0.128892 -0.204673
C15   C     C_R   0.513006 0.685262 0.215961 -0.201494
C16   C     C_R   0.514849 0.557863 0.337846 0.863978
C17   C     C_R   0.464213 0.524902 0.189554 -0.269468
C18   C     C_R   0.691603 0.842767 0.637645 -0.316316
C19   C     C_R   0.660564 0.753613 0.615086 0.010089
C20   C     C_R   0.514787 0.793644 0.510296 -0.064986
C21   C     C_R   0.542108 0.885632 0.529881 -0.001813
C22   C     C_R   0.632640 0.909146 0.595237 0.179905
C23   C     C_3   0.067769 0.484693 0.408869 -0.406331
C24   C     C_R   0.483426 0.954250 0.487281 0.088607
C25   C     C_R   0.516155 0.045718 0.511373 0.111178
C26   C     C_R   0.607153 0.065675 0.576859 -0.235896
C27   C     C_R   0.663923 0.998549 0.617750 -0.216875
C28   C     C_R   0.257864 0.499718 0.499948 0.824183
C29   C     C_R   0.393586 0.934460 0.421329 -0.281299
C30   C     C_R   0.337511 0.001652 0.379905 -0.150281
C31   C     C_R   0.367747 0.091395 0.402458 0.120898
C32   C     C_R   0.457133 0.114300 0.468882 -0.077355
C33   C     C_R   0.309675 0.158675 0.359231 0.344320
C34   C     C_3   0.103935 0.595380 0.521661 -0.380686
C35   C     C_R   0.341382 0.247875 0.383547 -0.120293
C36   C     C_R   0.483576 0.205686 0.489765 -0.084326
C37   C     C_3   0.899911 0.422789 0.570061 -0.402981
C38   C     C_3   0.044048 0.422027 0.569793 -0.397502
C39   C     C_3   0.923675 0.485609 0.408925 -0.391317
C40   C     C_3   0.961345 0.595986 0.521850 -0.395742
C41   C     C_3   0.878954 0.501436 0.500269 0.177138
C42   C     C_R   0.444364 0.407557 0.754410 -0.064575
C43   C     C_R   0.501358 0.591161 0.246117 -0.065133
C44   C     C_R   0.365831 0.283401 0.873115 -0.203715
C45   C     C_R   0.403269 0.312451 0.785256 -0.201287
C46   C     C_R   0.444317 0.472741 0.811119 -0.267776
H1    H     H_    0.841110 0.353976 0.556433 0.177619
H2    H     H_    0.400791 0.260847 0.741862 0.158238
H3    H     H_    0.481802 0.545315 0.786882 0.161978
H4    H     H_    0.868029 0.433406 0.635925 0.156103
H5    H     H_    0.334084 0.359317 0.145093 0.144053
H6    H     H_    0.408855 0.632842 0.858396 0.149375
H7    H     H_    0.502680 0.785570 0.105788 0.138078
H8    H     H_    0.733231 0.016945 0.667539 0.143981
H9    H     H_    0.548918 0.230054 0.539114 0.137242
H10   H     H_    0.299008 0.301588 0.351817 0.127660
H11   H     H_    0.269545 0.982504 0.329614 0.197612
H12   H     H_    0.158899 0.653102 0.472483 0.173296
H13   H     H_    0.760989 0.859705 0.687655 0.143546
H14   H     H_    0.705326 0.701444 0.647176 0.129997
H15   H     H_    0.447622 0.768425 0.462182 0.125367
H16   H     H_    0.082499 0.432270 0.635531 0.160310
H17   H     H_    0.637803 0.132837 0.598367 0.134371
H18   H     H_    0.364093 0.867420 0.399402 0.137379
H19   H     H_    0.054261 0.353045 0.555805 0.182678
H20   H     H_    0.865411 0.418311 0.391470 0.185344
H21   H     H_    0.078424 0.416927 0.391730 0.178670
H22   H     H_    0.947722 0.653781 0.472722 0.181723
H23   H     H_    0.909022 0.541678 0.358272 0.158324
H24   H     H_    0.930929 0.609138 0.587199 0.173867
H25   H     H_    0.142126 0.608549 0.586954 0.180530
H26   H     H_    0.193621 0.191912 0.270842 0.324679
H27   H     H_    0.123413 0.540259 0.358137 0.159677
H28   H     H_    0.308761 0.247230 0.044430 0.158348
H29   H     H_    0.462281 0.453603 0.212900 0.163124
H30   H     H_    0.539611 0.737536 0.259330 0.159121
H31   H     H_    0.449746 0.745362 0.958946 0.146697
H32   H     H_    0.337270 0.209673 0.896641 0.137917
N1    N     N_R   0.573860 0.731700 0.552730 -0.099716
N2    N     N_R   0.426060 0.268290 0.447230 -0.110662
O1    O     O_R   0.462770 0.383110 0.605620 -0.615436
O2    O     O_R   0.510160 0.531900 0.639510 -0.621687
O3    O     O_R   0.661510 0.425600 0.483070 -0.622364
O4    O     O_R   0.708900 0.574390 0.516960 -0.625447
O5    O     O_R   0.489840 0.468100 0.360490 -0.617007
O6    O     O_R   0.537230 0.616890 0.394380 -0.616200
O7    O     O_R   0.291100 0.425610 0.483040 -0.621043
O8    O     O_R   0.338490 0.574400 0.516930 -0.630029
O9    O     O_3   0.223743 0.136243 0.294167 -0.791173
Zn1   Zn    Zn3+2 0.468350 0.400660 0.477370 0.932723
Zn2   Zn    Zn3+2 0.531650 0.599340 0.522630 0.929558

loop_
_geom_bond_atom_site_label_1
_geom_bond_atom_site_label_2
_ccdc_geom_bond_type
C37   H4    S    
N2    Zn1   S    
C27   H8    S    
C7    C8    A    
C39   C41   S    
C2    C46   A    
C12   C23   S    
C26   C27   A    
C29   C30   A    
C40   H24   S    
C12   C28   S    
C37   C41   S    
C34   C40   S    
C32   C36   A    
O6    Zn2   S    
C5    C6    A    
C11   C14   A    
C4    C41   S    
C1    O1    A    
C30   H11   S    
C35   N2    A    
C18   C19   A    
C42   C46   A    
C23   H21   S    
C20   H15   S    
C24   C29   A    
C28   O8    A    
C31   C33   A    
O4    Zn2   S    
C37   H1    S    
C9    C10   A    
N1    Zn2   S    
C25   C32   A    
C15   H30   S    
C29   H18   S    
C21   C22   A    
C16   O6    A    
C9    H6    S    
C23   H27   S    
C10   H31   S    
C3    C44   A    
C24   C25   A    
C3    C8    A    
C36   N2    A    
C25   C26   A    
O2    Zn2   S    
C42   C45   A    
C26   H17   S    
C17   C43   A    
C5    C9    A    
C37   C38   S    
C33   O9    S    
C18   H13   S    
C31   C32   A    
C4    O4    A    
O8    Zn2   S    
C28   O7    A    
C8    H28   S    
C39   H23   S    
C19   N1    A    
C16   C43   S    
O1    Zn1   S    
C40   C41   S    
C22   C27   A    
C16   O5    A    
C39   H20   S    
C46   H3    S    
O7    Zn1   S    
C2    C5    A    
C12   C34   S    
C44   C45   A    
C34   H12   S    
C45   H2    S    
O3    Zn1   S    
C20   N1    A    
C35   H10   S    
C18   C22   A    
O5    Zn1   S    
C6    C7    A    
C19   H14   S    
C13   C17   A    
C44   H32   S    
C2    C3    A    
C1    O2    A    
C15   C43   A    
C36   H9    S    
C6    C13   A    
H26   O9    S    
C11   C13   A    
C30   C31   A    
C4    O3    A    
C23   C39   S    
C33   C35   A    
C12   C38   S    
C10   C11   A    
C7    H5    S    
C1    C42   S    
C14   H7    S    
C20   C21   A    
C40   H22   S    
C21   C24   A    
C17   H29   S    
C14   C15   A    
C38   H19   S    
C34   H25   S    
C38   H16   S    
