data_mof_unit_38451.cif
_audit_creation_date              2012-12-11T14:06:41-0500
_audit_creation_method            fapswitch 2.2
_symmetry_space_group_name_H-M    P1
_symmetry_Int_Tables_number       1
_space_group_crystal_system       triclinic
_cell_length_a                    6.938216
_cell_length_b                    17.362489
_cell_length_c                    23.97267
_cell_angle_alpha                 103.920552
_cell_angle_beta                  90.539906
_cell_angle_gamma                 90.099313
_cell_volume                      2802.89647862

loop_
_atom_site_label
_atom_site_type_symbol
_atom_type_description
_atom_site_fract_x
_atom_site_fract_y
_atom_site_fract_z
_atom_type_partial_charge
O1    O     O_R   0.494290 0.391990 0.999150 -0.550156
O2    O     O_R   0.827170 0.534410 0.082350 -0.542856
O3    O     O_R   0.994360 0.608010 0.000850 -0.509385
C1    C     C_R   0.658803 0.550355 0.106101 0.728319
O4    O     O_R   0.824210 0.388010 0.004470 -0.542872
O5    O     O_R   0.991370 0.460560 0.922410 -0.528318
C2    C     C_R   0.654773 0.354630 0.999618 0.738826
O6    O     O_R   0.497270 0.539440 0.077590 -0.538376
O7    O     O_3   0.659770 0.523970 0.973170 -0.341842
V1    V     V_3+5 0.935840 0.495550 0.004980 1.545786
O8    O     O_R   0.320910 0.465590 0.917650 -0.524049
C3    C     C_R   0.151407 0.448459 0.893875 0.768125
O9    O     O_R   0.323870 0.611990 0.995530 -0.535510
C4    C     C_R   0.154182 0.645252 0.999841 0.798776
V2    V     V_3+5 0.435470 0.504450 0.995020 1.560038
O10   O     O_3   0.161670 0.476030 0.026830 -0.385066
C5    C     C_2   0.140619 0.732277 0.008063 -0.099641
C6    C     C_2   0.975841 0.767501 0.994296 0.164516
C7    C     C_R   0.098283 0.229258 0.628197 0.676237
N1    N     N_R   0.058901 0.307577 0.649859 -0.563187
C8    C     C_R   0.988146 0.353625 0.615640 0.687544
C9    C     C_R   0.952652 0.321241 0.555942 -0.116116
C10   C     C_R   0.993711 0.239573 0.532991 -0.067228
C11   C     C_R   0.052460 0.191642 0.570335 -0.111519
C12   C     C_R   0.876888 0.367023 0.518815 0.171863
C13   C     C_R   0.866918 0.334453 0.458676 0.178891
C14   C     C_R   0.921579 0.253987 0.435223 -0.115900
C15   C     C_R   0.976641 0.205728 0.472932 -0.063190
C16   C     C_R   0.018338 0.123796 0.450435 -0.094790
C17   C     C_R   0.048352 0.074106 0.489279 0.179455
C18   C     C_R   0.059859 0.108015 0.549166 0.225132
C19   C     C_R   0.922790 0.219281 0.375145 0.682258
N2    N     N_R   0.978290 0.142626 0.354163 -0.563659
C20   C     C_R   0.025199 0.094830 0.389707 0.690151
O11   O     O_2   0.189101 0.189481 0.662440 -0.449604
O12   O     O_2   0.959708 0.430971 0.639799 -0.455680
O13   O     O_2   0.873685 0.261168 0.336812 -0.460669
O14   O     O_2   0.083998 0.020655 0.365618 -0.455788
C21   C     C_R   0.835000 0.069850 0.262373 -0.060351
H1    H     H_    0.715623 0.052948 0.285697 0.177477
C22   C     C_R   0.829781 0.050309 0.202406 -0.185407
H2    H     H_    0.707529 0.016588 0.180869 0.170622
C23   C     C_R   0.978400 0.073924 0.170469 -0.135214
C24   C     C_R   0.137063 0.117778 0.200734 0.097276
C25   C     C_R   0.142922 0.135814 0.261672 0.192972
C26   C     C_R   0.989559 0.112987 0.292420 0.284777
C27   C     C_R   0.246539 0.391045 0.730997 0.206255
C28   C     C_R   0.268921 0.427708 0.790296 0.093542
C29   C     C_R   0.136722 0.410309 0.830656 -0.319853
C30   C     C_R   0.983444 0.355884 0.809837 0.333593
C31   C     C_R   0.952461 0.325731 0.750793 0.414785
C32   C     C_R   0.086100 0.341914 0.710909 0.093252
C33   C     C_R   0.514118 0.907889 0.609563 0.668685
N3    N     N_R   0.500138 0.856217 0.644485 -0.571263
C34   C     C_R   0.491393 0.776391 0.621753 0.659104
C35   C     C_R   0.465446 0.745676 0.562159 -0.126412
C36   C     C_R   0.500407 0.796331 0.525166 -0.069424
C37   C     C_R   0.524141 0.879308 0.548492 -0.104950
C38   C     C_R   0.399526 0.667174 0.538945 0.173574
C39   C     C_R   0.402675 0.634912 0.478894 0.176168
C40   C     C_R   0.474890 0.681366 0.441892 -0.114889
C41   C     C_R   0.513163 0.763457 0.465109 -0.069150
C42   C     C_R   0.564997 0.812517 0.428254 -0.101169
C43   C     C_R   0.566383 0.896285 0.449961 0.225353
C44   C     C_R   0.548789 0.929807 0.509904 0.182965
C45   C     C_R   0.505905 0.649891 0.382190 0.692054
N4    N     N_R   0.574597 0.696757 0.348383 -0.552887
C46   C     C_R   0.611559 0.775497 0.370530 0.703172
O15   O     O_2   0.520958 0.985907 0.634555 -0.443815
O16   O     O_2   0.513720 0.727297 0.657128 -0.455749
O17   O     O_2   0.474901 0.572621 0.357744 -0.459943
O18   O     O_2   0.700575 0.816332 0.337005 -0.460377
C47   C     C_R   0.473327 0.677272 0.246540 0.205411
C48   C     C_R   0.494677 0.639904 0.188442 -0.223021
H3    H     H_    0.391721 0.653379 0.157910 0.176068
C49   C     C_R   0.646172 0.586557 0.169209 -0.222017
C50   C     C_R   0.780218 0.571297 0.210501 0.311106
C51   C     C_R   0.760674 0.610610 0.269010 0.228584
C52   C     C_R   0.604883 0.662352 0.287649 0.184521
C53   C     C_R   0.318212 0.868990 0.735320 0.431478
C54   C     C_R   0.313909 0.885820 0.795607 0.355199
C55   C     C_R   0.466138 0.929384 0.829098 -0.428619
C56   C     C_R   0.626916 0.951738 0.799815 0.332607
C57   C     C_R   0.642733 0.925148 0.739834 0.455348
C58   C     C_R   0.486151 0.885209 0.706598 -0.019253
C59   C     C_2   0.646063 0.267882 0.992677 -0.018192
C60   C     C_2   0.478150 0.230425 0.999536 -0.333139
H4    H     H_    0.347715 0.265134 0.010167 0.152862
O19   O     O_R   0.618210 0.960470 0.922400 -0.530184
O20   O     O_R   0.291310 0.111960 0.995450 -0.529704
O21   O     O_R   0.124210 0.039530 0.077580 -0.525957
C61   C     C_R   0.462219 0.144605 0.997263 0.812461
O22   O     O_R   0.288310 0.965490 0.917650 -0.524341
O23   O     O_R   0.121180 0.892010 0.999220 -0.538971
C62   C     C_R   0.456773 0.952552 0.893583 0.738900
O24   O     O_R   0.621230 0.107990 0.000760 -0.527294
O25   O     O_3   0.455770 0.976060 0.026840 -0.360506
V3    V     V_3+5 0.179680 0.004440 0.995020 1.576947
O26   O     O_R   0.791670 0.888040 0.004570 -0.540354
C63   C     C_R   0.961756 0.854915 0.001300 0.685553
O27   O     O_R   0.794680 0.034510 0.082370 -0.536885
C64   C     C_R   0.964935 0.049755 0.106262 0.759424
V4    V     V_3+5 0.680070 0.995560 0.005010 1.549943
O28   O     O_3   0.953840 0.023940 0.973160 -0.348230
I1    I     I_    0.380488 0.795014 0.054810 -0.360113
I2    I     I_    0.379527 0.198840 0.309861 -0.218472
I3    I     I_    0.455770 0.406421 0.669775 -0.168047
I4    I     I_    0.496203 0.513128 0.816439 -0.189230
O29   O     O_3   0.859411 0.329988 0.846183 -0.584831
H5    H     H_    0.935153 0.322966 0.879786 0.301296
O30   O     O_3   0.791796 0.278149 0.734121 -0.568777
H6    H     H_    0.773778 0.267030 0.691973 0.322541
I5    I     I_    0.255323 0.602846 0.593459 -0.071030
I6    I     I_    0.280538 0.517952 0.447353 -0.121194
I7    I     I_    0.560071 0.974368 0.391663 -0.176891
I8    I     I_    0.556784 0.057848 0.538258 -0.251319
I9    I     I_    0.237637 0.755964 0.269543 -0.208166
O31   O     O_3   0.823554 0.719613 0.968775 -0.618106
H7    H     H_    0.723886 0.752515 0.955953 0.311530
O32   O     O_3   0.928171 0.517374 0.196024 -0.600443
H8    H     H_    0.889223 0.476141 0.161571 0.303163
I10   I     I_    0.967280 0.589294 0.329396 -0.133907
O33   O     O_3   0.157595 0.832625 0.705773 -0.567355
H9    H     H_    0.160247 0.838736 0.665788 0.307170
O34   O     O_3   0.157132 0.858134 0.820085 -0.567499
H10   H     H_    0.202537 0.841106 0.854512 0.294430
O35   O     O_3   0.773711 0.999452 0.828381 -0.561168
H11   H     H_    0.715691 0.040785 0.859442 0.311429
O36   O     O_3   0.813349 0.941064 0.715457 -0.551281
H12   H     H_    0.821453 0.907982 0.675745 0.326237
I11   I     I_    0.908450 0.208752 0.962090 -0.337574
I12   I     I_    0.758591 0.484476 0.551333 -0.116244
I13   I     I_    0.767047 0.411526 0.405474 -0.054608
I14   I     I_    0.059942 0.946075 0.461125 -0.251298
I15   I     I_    0.051295 0.030348 0.607703 -0.145201
I16   I     I_    0.360010 0.164913 0.157019 -0.300082

loop_
_geom_bond_atom_site_label_1
_geom_bond_atom_site_label_2
_ccdc_geom_bond_type
C24   I16   S    
O26   V4    S    
C60   H4    S    
O27   C64   A    
C22   H2    S    
C39   I6    S    
O30   H6    S    
C1    O6    A    
C50   O32   S    
C33   O15   S    
C53   C58   A    
C3    C29   S    
O33   H9    S    
C21   C22   A    
C8    O12   S    
C33   N3    A    
O32   H8    S    
C13   C14   A    
C41   C42   A    
C48   C49   A    
C56   C57   A    
C15   C16   A    
O5    C3    A    
C17   C18   A    
C59   I11   S    
C2    C59   S    
O23   V3    S    
V2    O10   S    
O25   V3    S    
C57   O36   S    
C61   O24   A    
C35   C36   A    
C47   C48   A    
O31   H7    S    
N3    C34   A    
O8    V2    S    
C40   C45   A    
C45   O17   S    
C17   I14   S    
C9    C12   A    
C10   C11   A    
O1    V2    S    
O9    C4    A    
O7    V1    S    
C6    O31   S    
C38   I5    S    
C45   N4    A    
C38   C39   A    
O22   C62   A    
C43   I7    S    
O1    C2    A    
C8    C9    A    
O19   V4    S    
N2    C26   S    
C22   C23   A    
C4    C5    S    
C6    C63   S    
C54   C55   A    
C47   I9    S    
C48   H3    S    
C31   C32   A    
C27   C28   A    
C36   C41   A    
N4    C52   S    
C49   C50   A    
C18   I15   S    
C21   H1    S    
O4    C2    A    
C59   C60   D    
C30   C31   A    
C12   C13   A    
C50   C51   A    
C16   C20   A    
C30   O29   S    
N4    C46   A    
C39   C40   A    
O19   C62   A    
O2    C1    A    
C23   C24   A    
C16   C17   A    
C5    I1    S    
C37   C44   A    
O20   C61   A    
O26   C63   A    
O23   C63   A    
C46   O18   S    
N1    C8    A    
C34   C35   A    
C5    C6    D    
C47   C52   A    
C19   O13   S    
C57   C58   A    
O25   V4    S    
O3    C4    A    
C21   C26   A    
C28   C29   A    
C55   C56   A    
O6    V2    S    
C27   I3    S    
O9    V2    S    
O34   H10   S    
C44   I8    S    
C10   C15   A    
O21   C64   A    
O35   H11   S    
O2    V1    S    
V4    O28   S    
C25   I2    S    
O36   H12   S    
C42   C46   A    
C31   O30   S    
C55   C62   S    
C54   O34   S    
C14   C19   A    
C20   O14   S    
C24   C25   A    
C56   O35   S    
C53   C54   A    
O5    V1    S    
N3    C58   S    
C33   C37   A    
C27   C32   A    
C35   C38   A    
C19   N2    A    
C7    N1    A    
C7    C11   A    
O7    V2    S    
C11   C18   A    
O4    V1    S    
N1    C32   S    
O3    V1    S    
C7    O11   S    
O29   H5    S    
C43   C44   A    
C51   C52   A    
C36   C37   A    
C28   I4    S    
V3    O28   S    
N2    C20   A    
O21   V3    S    
C40   C41   A    
C51   I10   S    
C23   C64   S    
C34   O16   S    
C42   C43   A    
C25   C26   A    
C1    C49   S    
O27   V4    S    
C29   C30   A    
O24   V4    S    
C14   C15   A    
C13   I13   S    
C9    C10   A    
V1    O10   S    
C60   C61   S    
C12   I12   S    
O22   V3    S    
O20   V3    S    
O8    C3    A    
C53   O33   S    
