data_mof_unit_45969.cif
_audit_creation_date              2012-12-10T16:51:14-0500
_audit_creation_method            fapswitch 2.2
_symmetry_space_group_name_H-M    P1
_symmetry_Int_Tables_number       1
_space_group_crystal_system       triclinic
_cell_length_a                    27.826736
_cell_length_b                    8.650629
_cell_length_c                    7.423604
_cell_angle_alpha                 103.291387
_cell_angle_beta                  94.035019
_cell_angle_gamma                 92.473572
_cell_volume                      1731.5788601

loop_
_atom_site_label
_atom_site_type_symbol
_atom_type_description
_atom_site_fract_x
_atom_site_fract_y
_atom_site_fract_z
_atom_type_partial_charge
C1    C     C_R   0.498572 0.199447 0.452861 0.879630
C2    C     C_R   0.501398 0.800543 0.547136 0.887519
C3    C     C_R   0.101870 0.489831 0.530550 -0.061911
C4    C     C_R   0.898414 0.491123 0.538967 -0.065665
C5    C     C_R   0.125144 0.346182 0.475844 -0.077533
C6    C     C_R   0.875725 0.631784 0.619917 -0.081120
C7    C     C_R   0.096827 0.200519 0.411167 0.141724
C8    C     C_R   0.904972 0.772846 0.705889 0.141173
C9    C     C_R   0.129461 0.636120 0.573344 -0.005545
C10   C     C_R   0.869908 0.352291 0.448326 -0.007482
C11   C     C_R   0.354406 0.490351 0.506671 -0.118280
C12   C     C_R   0.645477 0.498700 0.492109 -0.095370
C13   C     C_R   0.971670 0.345000 0.471021 0.062316
C14   C     C_R   0.028811 0.633081 0.606781 0.063012
C15   C     C_R   0.978155 0.630367 0.621820 -0.011633
C16   C     C_R   0.022914 0.343355 0.480160 -0.009174
C17   C     C_R   0.949539 0.488800 0.544802 0.073285
C18   C     C_R   0.051070 0.488498 0.539685 0.072177
C19   C     C_R   0.941597 0.208593 0.384197 -0.236733
C20   C     C_R   0.057924 0.776953 0.650832 -0.236523
C21   C     C_R   0.891868 0.212821 0.372274 -0.154661
C22   C     C_R   0.107178 0.777906 0.634757 -0.165910
C23   C     C_R   0.407477 0.495556 0.502207 0.809953
C24   C     C_R   0.592488 0.501345 0.497457 0.829090
C25   C     C_R   0.046779 0.201386 0.424850 -0.208075
C26   C     C_R   0.955366 0.766320 0.710142 -0.201841
C27   C     C_2   0.497903 0.031280 0.426376 -0.376161
C28   C     C_2   0.502225 0.968728 0.573591 -0.380168
C29   C     C_R   0.176241 0.355288 0.487878 0.491250
C30   C     C_R   0.824430 0.624015 0.610245 0.498369
C31   C     C_R   0.178890 0.638061 0.549581 0.535883
C32   C     C_R   0.819709 0.356031 0.431589 0.540000
C33   C     C_R   0.282828 0.590770 0.650469 -0.154575
C34   C     C_R   0.720708 0.399947 0.591123 -0.152493
C35   C     C_R   0.332951 0.593485 0.651957 0.089062
C36   C     C_R   0.670731 0.399861 0.589153 0.081619
C37   C     C_R   0.324397 0.387266 0.360618 0.082455
C38   C     C_R   0.671183 0.593738 0.391985 0.068529
C39   C     C_R   0.274278 0.410784 0.344284 0.198418
C40   C     C_R   0.722048 0.582500 0.385246 0.169399
C41   C     C_R   0.253207 0.502187 0.498885 0.242228
C42   C     C_R   0.746394 0.490600 0.493649 0.266804
Cu1   Cu    Cu3+1 0.505380 0.517380 0.684380 0.936250
Cu2   Cu    Cu3+1 0.494620 0.482620 0.315620 0.936102
H1    H     H_    0.462884 0.375316 0.947727 0.223232
H2    H     H_    0.536544 0.626308 0.052348 0.218576
H3    H     H_    0.740445 0.328894 0.670340 0.163714
H4    H     H_    0.266327 0.660878 0.767671 0.174890
H5    H     H_    0.870607 0.105329 0.301505 0.185295
H6    H     H_    0.127822 0.891256 0.671697 0.184602
H7    H     H_    0.955124 0.097076 0.316916 0.138291
H8    H     H_    0.043596 0.892537 0.690583 0.141306
H9    H     H_    0.026859 0.088392 0.393703 0.154554
H10   H     H_    0.977011 0.868273 0.788187 0.156072
H11   H     H_    0.493809 0.958751 0.284925 0.180962
H12   H     H_    0.506377 0.041257 0.715033 0.180721
N1    N     N_R   0.201558 0.498685 0.509257 -0.447924
N2    N     N_R   0.798171 0.490601 0.510513 -0.448042
N3    N     N_2   0.486510 0.456430 0.038510 -0.218942
N4    N     N_2   0.513490 0.543570 0.961490 -0.218833
O1    O     O_R   0.503500 0.286120 0.619780 -0.582007
O2    O     O_R   0.496500 0.713880 0.380220 -0.577388
O3    O     O_R   0.494410 0.256780 0.308360 -0.590387
O4    O     O_R   0.505590 0.743220 0.691640 -0.587946
O5    O     O_R   0.434810 0.514700 0.655690 -0.581319
O6    O     O_R   0.565190 0.485300 0.344310 -0.590951
O7    O     O_R   0.425720 0.485350 0.344280 -0.591714
O8    O     O_R   0.574280 0.514650 0.655720 -0.580310
O9    O     O_2   0.200796 0.223379 0.481369 -0.566514
O10   O     O_2   0.800343 0.747286 0.698007 -0.584660
O11   O     O_2   0.792411 0.226163 0.336455 -0.554861
O12   O     O_2   0.204105 0.778264 0.566596 -0.548037
C43   C     C_3   0.343577 0.238768 0.239441 -0.424851
C44   C     C_3   0.327246 0.089948 0.302452 -0.793740
H13   H     H_    0.341424 0.099374 0.448541 0.255231
H14   H     H_    0.287320 0.073363 0.292866 0.280149
H15   H     H_    0.341516 0.983366 0.213503 0.233507
H16   H     H_    0.331702 0.225410 0.090762 0.214736
H17   H     H_    0.383335 0.240295 0.246172 0.221625
C45   C     C_3   0.644992 0.714313 0.305424 -0.402749
C46   C     C_3   0.632426 0.857365 0.453846 -0.810611
H18   H     H_    0.665974 0.919744 0.531667 0.264539
H19   H     H_    0.613046 0.941490 0.386551 0.239445
H20   H     H_    0.608892 0.820701 0.553020 0.239827
H21   H     H_    0.666058 0.761440 0.207301 0.217725
H22   H     H_    0.612279 0.658333 0.218422 0.209039
C47   C     C_3   0.244262 0.347294 0.159853 -0.367371
C48   C     C_3   0.257967 0.439405 0.016647 -0.848672
H23   H     H_    0.250583 0.566765 0.065865 0.254775
H24   H     H_    0.296682 0.431283 0.991191 0.255096
H25   H     H_    0.236015 0.390054 0.883321 0.271292
H26   H     H_    0.248336 0.218463 0.105558 0.220731
H27   H     H_    0.205182 0.360328 0.172322 0.208189
C49   C     C_3   0.750515 0.662918 0.260156 -0.372292
C50   C     C_3   0.740889 0.574018 0.056793 -0.830753
H28   H     H_    0.753415 0.451507 0.037647 0.262552
H29   H     H_    0.701977 0.566109 0.009637 0.252375
H30   H     H_    0.761029 0.637002 0.968516 0.284100
H31   H     H_    0.742691 0.790128 0.280299 0.222818
H32   H     H_    0.789977 0.665447 0.293006 0.213459
C51   C     C_3   0.119231 0.048364 0.312678 -0.314330
C52   C     C_3   0.084283 0.915963 0.194124 -0.883578
H33   H     H_    0.062134 0.859687 0.283043 0.258530
H34   H     H_    0.060552 0.963412 0.095445 0.252254
H35   H     H_    0.105215 0.821865 0.112318 0.262714
H36   H     H_    0.144489 0.080137 0.215444 0.223301
H37   H     H_    0.140106 0.998432 0.416264 0.257441
C53   C     C_3   0.882898 0.930949 0.786632 -0.315111
C54   C     C_3   0.917566 0.079133 0.851901 -0.894052
H38   H     H_    0.941761 0.069187 0.973539 0.248578
H39   H     H_    0.939169 0.097381 0.737430 0.263541
H40   H     H_    0.896449 0.185578 0.895363 0.264464
H41   H     H_    0.857451 0.958001 0.677321 0.244044
H42   H     H_    0.862891 0.918131 0.907277 0.240712
C55   C     C_3   0.645354 0.292750 0.692074 -0.808112
H43   H     H_    0.670220 0.210107 0.738934 0.226056
H44   H     H_    0.630832 0.365165 0.817657 0.249169
H45   H     H_    0.615514 0.219419 0.600266 0.228001
C56   C     C_3   0.362239 0.706838 0.810923 -0.797770
H46   H     H_    0.339056 0.788060 0.900112 0.216536
H47   H     H_    0.381747 0.639175 0.900227 0.248347
H48   H     H_    0.388297 0.782059 0.756539 0.231320

loop_
_geom_bond_atom_site_label_1
_geom_bond_atom_site_label_2
_ccdc_geom_bond_type
C51   H37   S    
C47   C48   S    
C51   C52   S    
C8    C26   A    
C43   C44   S    
C14   C18   A    
C35   C56   S    
C50   H28   S    
C34   C42   A    
C39   C47   S    
C42   N2    S    
C21   H5    S    
C46   H18   S    
C28   H12   S    
C50   H30   S    
C39   C41   A    
C44   H14   S    
C52   H35   S    
C19   C21   A    
C25   H9    S    
C54   H39   S    
C27   H11   S    
C9    C22   A    
Cu2   N3    S    
C53   H42   S    
C55   H43   S    
C1    O3    A    
C51   H36   S    
C53   C54   S    
C3    C18   A    
C23   O7    A    
C11   C37   A    
C45   H22   S    
C30   O10   S    
C30   N2    A    
Cu2   O6    S    
Cu1   O8    S    
C55   H44   S    
C44   H15   S    
C43   H16   S    
C32   N2    A    
C12   C36   A    
C29   O9    S    
C24   O6    A    
C22   H6    S    
C40   C42   A    
N3    N4    D    
Cu2   O3    S    
C47   H26   S    
C49   C50   S    
C26   H10   S    
C46   H19   S    
C2    O4    A    
Cu1   O4    S    
C32   O11   S    
C5    C29   A    
C56   H47   S    
C10   C21   A    
C44   H13   S    
C13   C19   A    
C14   C20   A    
C4    C6    A    
C54   H40   S    
C40   C49   S    
C5    C7    A    
C9    C31   A    
C15   C26   A    
C6    C8    A    
Cu2   O2    S    
C53   H41   S    
Cu1   Cu2   S    
C45   H21   S    
C3    C9    A    
C19   H7    S    
C48   H25   S    
C49   H32   S    
Cu1   O5    S    
C55   H45   S    
C43   H17   S    
C52   H34   S    
Cu1   N4    S    
C4    C17   A    
C31   O12   S    
C6    C30   A    
C29   N1    A    
C4    C10   A    
C46   H20   S    
Cu1   O1    S    
C56   H48   S    
C16   C25   A    
C15   C17   A    
C37   C43   S    
H1    N3    S    
C48   H24   S    
H2    N4    S    
C20   C22   A    
C45   C46   S    
C3    C5    A    
C1    O1    A    
C56   H46   S    
C50   H29   S    
C12   C24   S    
C7    C25   A    
C13   C17   A    
C20   H8    S    
C33   C41   A    
C23   O5    A    
C11   C35   A    
C41   N1    S    
C37   C39   A    
C54   H38   S    
C38   C40   A    
C31   N1    A    
C38   C45   S    
C49   H31   S    
C47   H27   S    
C11   C23   S    
C33   C35   A    
C34   C36   A    
C12   C38   A    
C52   H33   S    
C24   O8    A    
C10   C32   A    
C48   H23   S    
C16   C18   A    
C7    C51   S    
C13   C16   A    
C27   C28   D    
C1    C27   S    
C33   H4    S    
C14   C15   A    
C8    C53   S    
Cu2   O7    S    
C2    C28   S    
C34   H3    S    
C36   C55   S    
C2    O2    A    
