data_mof_unit_52688.cif
_audit_creation_date              2012-12-10T20:34:52-0500
_audit_creation_method            fapswitch 2.2
_symmetry_space_group_name_H-M    P1
_symmetry_Int_Tables_number       1
_space_group_crystal_system       triclinic
_cell_length_a                    10.634108
_cell_length_b                    10.670053
_cell_length_c                    9.859603
_cell_angle_alpha                 89.997898
_cell_angle_beta                  89.870526
_cell_angle_gamma                 90.004723
_cell_volume                      1118.7317431

loop_
_atom_site_label
_atom_site_type_symbol
_atom_type_description
_atom_site_fract_x
_atom_site_fract_y
_atom_site_fract_z
_atom_type_partial_charge
C1    C     C_R   0.503837 0.259961 0.500057 0.926690
C2    C     C_3   0.878678 0.498116 0.500844 0.133294
C3    C     C_3   0.928318 0.618508 0.431222 -0.405590
C4    C     C_3   0.927010 0.380962 0.423732 -0.415536
C5    C     C_R   0.520307 0.063873 0.623375 0.128590
C6    C     C_R   0.523638 0.128588 0.500866 -0.086931
C7    C     C_R   0.550966 0.064831 0.379949 -0.210596
C8    C     C_R   0.551127 0.935222 0.379944 -0.218088
C9    C     C_R   0.523845 0.871406 0.500834 -0.097798
C10   C     C_R   0.520401 0.936095 0.623351 0.122207
C11   C     C_3   0.427762 0.928812 0.737408 -0.467953
C12   C     C_R   0.257671 0.499123 0.500315 0.897523
C13   C     C_3   0.427648 0.070884 0.737434 -0.467633
C14   C     C_R   0.438258 0.408199 0.071524 0.219105
C15   C     C_R   0.570256 0.583665 0.071816 -0.136297
C16   C     C_R   0.570264 0.583678 0.927775 -0.140068
C17   C     C_R   0.438012 0.408382 0.928883 0.216436
C18   C     C_3   0.300408 0.382186 0.924382 -0.519771
C19   C     C_3   0.301016 0.380994 0.078198 -0.502996
C20   C     C_R   0.503907 0.740037 0.500003 0.875019
C21   C     C_R   0.742344 0.499327 0.500138 0.833746
C22   C     C_3   0.070752 0.492175 0.649046 -0.384954
C23   C     C_3   0.928109 0.493497 0.648960 -0.380342
C24   C     C_3   0.072594 0.618863 0.433176 -0.465762
C25   C     C_3   0.071745 0.381826 0.420096 0.102016
C26   C     C_3   0.121243 0.497097 0.501052 0.109862
H1    H     H_    0.105315 0.574333 0.707933 0.169366
H2    H     H_    0.890712 0.380277 0.317886 0.164292
H3    H     H_    0.108508 0.626531 0.327311 0.180135
H4    H     H_    0.895076 0.623262 0.324325 0.180366
H5    H     H_    0.563541 0.113972 0.284724 0.166978
H6    H     H_    0.563844 0.886111 0.284726 0.164223
H7    H     H_    0.336289 0.887361 0.706231 0.210246
H8    H     H_    0.336122 0.112093 0.706286 0.236773
H9    H     H_    0.469482 0.112002 0.830600 0.196512
H10   H     H_    0.625010 0.652767 0.126081 0.140281
H11   H     H_    0.104026 0.405919 0.701150 0.210916
H12   H     H_    0.625013 0.652788 0.873240 0.143643
H13   H     H_    0.246076 0.461895 0.882018 0.213085
H14   H     H_    0.279173 0.289249 0.879076 0.209011
H15   H     H_    0.246068 0.459223 0.123409 0.211506
H16   H     H_    0.281450 0.287026 0.122120 0.218695
H17   H     H_    0.892776 0.407986 0.701581 0.188724
H18   H     H_    0.894485 0.576633 0.707060 0.176563
H19   H     H_    0.892189 0.703113 0.484751 0.171617
H20   H     H_    0.102418 0.389810 0.312477 0.135017
H21   H     H_    0.891211 0.294685 0.474143 0.196695
N1    N     N_R   0.499150 0.499140 0.142800 -0.107223
N2    N     N_R   0.499150 0.499180 0.857150 -0.106049
O1    O     O_R   0.500020 0.316790 0.614690 -0.614642
O2    O     O_R   0.500000 0.316760 0.385350 -0.616130
O3    O     O_R   0.314800 0.500000 0.614670 -0.620765
O4    O     O_R   0.314790 0.499960 0.385330 -0.624997
O5    O     O_R   0.500000 0.683240 0.614650 -0.621860
O6    O     O_R   0.499980 0.683210 0.385310 -0.624690
O7    O     O_R   0.685210 0.500040 0.614670 -0.632219
O8    O     O_R   0.685200 0.500000 0.385330 -0.630631
Zn1   Zn    Zn3+2 0.500010 0.500020 0.653130 0.940983
Zn2   Zn    Zn3+2 0.499990 0.499980 0.346870 0.943178
H22   H     H_    0.469745 0.887728 0.830522 0.199929
H23   H     H_    0.106771 0.702461 0.489819 0.183819
Br1   Br    Br    0.139261 0.222437 0.485885 -0.617520

loop_
_geom_bond_atom_site_label_1
_geom_bond_atom_site_label_2
_ccdc_geom_bond_type
C13   H8    S    
C3    H4    S    
C2    C4    S    
C18   H13   S    
C21   O8    A    
C6    C7    A    
O6    Zn2   S    
C21   O7    A    
C1    O2    A    
C1    O1    A    
C9    C20   S    
C5    C13   S    
C12   O4    A    
C19   H16   S    
C22   H1    S    
C2    C21   S    
C17   C18   S    
O4    Zn2   S    
C23   H17   S    
C5    C10   A    
C11   C13   S    
C14   C17   A    
C19   H15   S    
C3    C24   S    
C24   H23   S    
O3    Zn1   S    
C15   N1    A    
C20   O6    A    
C14   C19   S    
C4    H2    S    
O7    Zn1   S    
C2    C3    S    
C25   Br1   S    
O5    Zn1   S    
C5    C6    A    
C24   C26   S    
O8    Zn2   S    
C7    H5    S    
C10   C11   S    
N2    Zn1   S    
C22   C26   S    
C15   C16   A    
O1    Zn1   S    
C4    C25   S    
C15   H10   S    
C11   H7    S    
O2    Zn2   S    
C16   N2    A    
N1    Zn2   S    
C20   O5    A    
C7    C8    A    
C9    C10   A    
C12   C26   S    
C2    C23   S    
C18   H14   S    
C22   C23   S    
C18   C19   S    
C14   N1    A    
C1    C6    S    
C12   O3    A    
C25   C26   S    
C24   H3    S    
C22   H11   S    
C25   H20   S    
C3    H19   S    
C13   H9    S    
C17   N2    A    
C23   H18   S    
C11   H22   S    
C16   H12   S    
C8    C9    A    
C4    H21   S    
C8    H6    S    
