data_mof_unit_66027.cif
_audit_creation_date              2012-12-10T20:56:45-0500
_audit_creation_method            fapswitch 2.2
_symmetry_space_group_name_H-M    P1
_symmetry_Int_Tables_number       1
_space_group_crystal_system       triclinic
_cell_length_a                    26.366118
_cell_length_b                    33.025287
_cell_length_c                    21.157909
_cell_angle_alpha                 89.999925
_cell_angle_beta                  128.69229
_cell_angle_gamma                 90.0
_cell_volume                      14379.5909607

loop_
_atom_site_label
_atom_site_type_symbol
_atom_type_description
_atom_site_fract_x
_atom_site_fract_y
_atom_site_fract_z
_atom_type_partial_charge
C1    C     C_R   0.500000 0.145581 0.500000 0.497980
C2    C     C_R   0.656554 0.616810 0.517729 -0.132791
C3    C     C_R   0.640897 0.749593 0.499488 0.534464
C4    C     C_R   0.140897 0.750407 0.499488 0.534463
C5    C     C_R   0.859103 0.249593 0.500512 0.534463
C6    C     C_R   0.859103 0.750407 0.500512 0.534463
C7    C     C_R   0.140897 0.249593 0.499488 0.534464
C8    C     C_R   0.395534 0.250050 0.291111 0.501487
C9    C     C_R   0.604466 0.749950 0.708889 0.501487
C10   C     C_R   0.604466 0.250050 0.708889 0.501487
C11   C     C_R   0.395534 0.749950 0.291111 0.501487
C12   C     C_R   0.895534 0.750050 0.291111 0.501487
C13   C     C_R   0.656557 0.383191 0.517732 -0.132792
C14   C     C_R   0.104466 0.249950 0.708889 0.501487
C15   C     C_R   0.104466 0.750050 0.708889 0.501487
C16   C     C_R   0.895534 0.249950 0.291111 0.501487
C17   C     C_1   0.649582 0.250084 0.799022 0.007564
C18   C     C_1   0.350417 0.749915 0.200978 0.007563
C19   C     C_1   0.350417 0.250084 0.200978 0.007563
C20   C     C_1   0.649582 0.749915 0.799022 0.007563
C21   C     C_1   0.149583 0.750084 0.799022 0.007564
C22   C     C_1   0.850417 0.249916 0.200978 0.007563
C23   C     C_1   0.850417 0.750085 0.200978 0.007563
C24   C     C_R   0.343446 0.616809 0.482272 -0.132792
C25   C     C_1   0.149583 0.249915 0.799022 0.007563
C26   C     C_1   0.687034 0.250070 0.873943 -0.013753
C27   C     C_1   0.312966 0.749930 0.126057 -0.013754
C28   C     C_1   0.312965 0.250070 0.126057 -0.013754
C29   C     C_1   0.687034 0.749930 0.873943 -0.013754
C30   C     C_1   0.187035 0.750070 0.873943 -0.013754
C31   C     C_1   0.812966 0.249930 0.126057 -0.013754
C32   C     C_1   0.812965 0.750070 0.126057 -0.013754
C33   C     C_1   0.187035 0.249930 0.873943 -0.013754
C34   C     C_1   0.731292 0.250023 0.962540 0.022436
C35   C     C_R   0.843446 0.883190 0.482272 -0.132791
C36   C     C_1   0.268708 0.749977 0.037459 0.022436
C37   C     C_1   0.268708 0.250023 0.037459 0.022435
C38   C     C_1   0.731292 0.749977 0.962540 0.022435
C39   C     C_1   0.231292 0.750023 0.962540 0.022436
C40   C     C_1   0.768708 0.249977 0.037459 0.022436
C41   C     C_1   0.768708 0.750023 0.037459 0.022435
C42   C     C_1   0.231292 0.249977 0.962540 0.022435
C43   C     C_1   0.500000 0.399524 0.500000 -0.028621
C44   C     C_1   0.500000 0.600476 0.500000 -0.028621
C45   C     C_1   1.000000 0.899524 0.500000 -0.028621
C46   C     C_R   0.156554 0.116809 0.517728 -0.132791
C47   C     C_1   0.000000 0.100476 0.500000 -0.028621
C48   C     C_1   0.500000 0.436977 0.500000 -0.054433
C49   C     C_1   0.500000 0.563023 0.500000 -0.054433
C50   C     C_1   1.000000 0.936977 0.500000 -0.054433
C51   C     C_1   0.000000 0.063023 0.500000 -0.054433
C52   C     C_2   0.373549 0.341990 0.598752 0.220163
C53   C     C_2   0.626451 0.658010 0.401248 0.220164
C54   C     C_2   0.626455 0.341992 0.401250 0.220164
C55   C     C_2   0.373548 0.658010 0.598753 0.220164
C56   C     C_2   0.873549 0.841990 0.598752 0.220164
C57   C     C_R   0.156555 0.883191 0.517728 -0.132792
C58   C     C_2   0.126451 0.158010 0.401248 0.220165
C59   C     C_2   0.126453 0.841991 0.401248 0.220164
C60   C     C_2   0.873547 0.158009 0.598751 0.220165
C61   C     C_2   0.210238 0.378387 0.256249 0.239720
C62   C     C_2   0.789762 0.621614 0.743752 0.239719
C63   C     C_2   0.789761 0.378383 0.743756 0.239720
C64   C     C_2   0.210240 0.621614 0.256249 0.239719
C65   C     C_2   0.710238 0.878387 0.256248 0.239720
C66   C     C_2   0.289761 0.121613 0.743751 0.239720
C67   C     C_2   0.289760 0.878385 0.743752 0.239720
C68   C     C_R   0.843444 0.116809 0.482270 -0.132791
C69   C     C_2   0.710238 0.121615 0.256246 0.239720
C70   C     C_R   0.330394 0.349242 0.509984 0.046525
C71   C     C_R   0.669606 0.650758 0.490016 0.046525
C72   C     C_R   0.669609 0.349242 0.490019 0.046524
C73   C     C_R   0.500000 0.854419 0.500000 0.497981
C74   C     C_R   0.330393 0.650758 0.509984 0.046524
C75   C     C_R   0.830394 0.849242 0.509984 0.046525
C76   C     C_R   0.169606 0.150758 0.490016 0.046525
C77   C     C_R   0.169607 0.849242 0.490016 0.046524
C78   C     C_R   0.830392 0.150758 0.509982 0.046524
C79   C     C_R   0.277116 0.323832 0.452564 0.029098
C80   C     C_R   0.722884 0.676168 0.547436 0.029098
C81   C     C_R   0.722885 0.323831 0.547438 0.029098
C82   C     C_R   0.277116 0.676168 0.452564 0.029098
C83   C     C_R   0.777115 0.823832 0.452564 0.029098
C84   C     C_R   0.000000 0.645581 0.500000 0.497980
C85   C     C_R   0.222884 0.176168 0.547436 0.029098
C86   C     C_R   0.222884 0.823832 0.547436 0.029098
C87   C     C_R   0.777115 0.176169 0.452563 0.029098
C88   C     C_R   0.237619 0.333784 0.369931 -0.068677
C89   C     C_R   0.762381 0.666216 0.630070 -0.068677
C90   C     C_R   0.762381 0.333782 0.630072 -0.068676
C91   C     C_R   0.237620 0.666216 0.369930 -0.068676
C92   C     C_R   0.737619 0.833784 0.369930 -0.068677
C93   C     C_R   0.262381 0.166216 0.630069 -0.068677
C94   C     C_R   0.262380 0.833783 0.630070 -0.068676
C95   C     C_R   0.000000 0.354419 0.500000 0.497981
C96   C     C_R   0.737619 0.166217 0.369929 -0.068676
C97   C     C_R   0.250993 0.367997 0.343191 0.030213
C98   C     C_R   0.749007 0.632003 0.656810 0.030213
C99   C     C_R   0.749007 0.367995 0.656813 0.030213
C100  C     C_R   0.250994 0.632003 0.343191 0.030213
C101  C     C_R   0.750993 0.867997 0.343190 0.030213
C102  C     C_R   0.249006 0.132003 0.656809 0.030213
C103  C     C_R   0.249006 0.867996 0.656810 0.030213
C104  C     C_R   0.750993 0.132004 0.343188 0.030213
C105  C     C_R   0.304313 0.392433 0.399904 -0.128581
C106  C     C_1   0.500000 0.481270 0.500000 -0.010566
C107  C     C_R   0.695687 0.607567 0.600097 -0.128581
C108  C     C_R   0.695689 0.392432 0.600101 -0.128581
C109  C     C_R   0.304313 0.607567 0.399904 -0.128581
C110  C     C_R   0.804312 0.892433 0.399903 -0.128581
C111  C     C_R   0.195687 0.107567 0.600096 -0.128581
C112  C     C_R   0.195687 0.892433 0.600097 -0.128581
C113  C     C_R   0.804311 0.107567 0.399901 -0.128581
C114  C     C_R   0.209774 0.283930 0.474265 -0.105890
C115  C     C_R   0.790226 0.716069 0.525735 -0.105889
C116  C     C_R   0.790226 0.283930 0.525736 -0.105888
C117  C     C_1   0.500000 0.518730 0.500000 -0.010566
C118  C     C_R   0.209774 0.716069 0.474265 -0.105889
C119  C     C_R   0.709774 0.783930 0.474265 -0.105889
C120  C     C_R   0.290226 0.216069 0.525735 -0.105889
C121  C     C_R   0.290226 0.783931 0.525735 -0.105888
C122  C     C_R   0.709774 0.216070 0.474264 -0.105889
C123  C     C_R   0.196344 0.249041 0.499114 0.058736
C124  C     C_R   0.803656 0.750959 0.500886 0.058736
C125  C     C_R   0.803656 0.249041 0.500886 0.058736
C126  C     C_R   0.196344 0.750959 0.499114 0.058736
C127  C     C_R   0.696344 0.749041 0.499114 0.058736
C128  C     C_1   0.000000 0.981270 0.500000 -0.010566
C129  C     C_R   0.303656 0.250959 0.500886 0.058736
C130  C     C_R   0.303656 0.749041 0.500886 0.058736
C131  C     C_R   0.696344 0.250959 0.499114 0.058736
C132  C     C_R   0.236567 0.214537 0.524198 0.021496
C133  C     C_R   0.763433 0.785463 0.475802 0.021496
C134  C     C_R   0.763433 0.214537 0.475801 0.021496
C135  C     C_R   0.236567 0.785463 0.524198 0.021497
C136  C     C_R   0.736567 0.714537 0.524198 0.021496
C137  C     C_R   0.263433 0.285463 0.475802 0.021497
C138  C     C_R   0.263433 0.714537 0.475802 0.021497
C139  C     C_1   0.000000 0.018730 0.500000 -0.010566
C140  C     C_R   0.736567 0.285462 0.524199 0.021497
C141  C     C_R   0.500000 0.354473 0.500000 0.487623
C142  C     C_R   0.500000 0.645527 0.500000 0.487623
C143  C     C_R   1.000000 0.854472 0.500000 0.487623
C144  C     C_R   0.000000 0.145527 0.500000 0.487623
C145  C     C_1   0.500000 0.100505 0.500000 -0.000655
C146  C     C_1   0.500000 0.899495 0.500000 -0.000654
C147  C     C_1   0.000000 0.600505 0.500000 -0.000655
C148  C     C_1   0.000000 0.399495 0.500000 -0.000654
C149  C     C_1   0.500000 0.063039 0.500000 -0.024384
C150  C     C_R   0.343446 0.383190 0.482272 -0.132791
C151  C     C_1   0.500000 0.936961 0.500000 -0.024384
C152  C     C_1   0.000000 0.563039 0.500000 -0.024384
C153  C     C_1   0.000000 0.436961 0.500000 -0.024384
C154  C     C_1   0.500000 0.018732 0.500000 0.011134
C155  C     C_1   0.500000 0.981267 0.500000 0.011134
C156  C     C_1   0.000000 0.518733 0.500000 0.011134
C157  C     C_1   0.000000 0.481267 0.500000 0.011134
C158  C     C_R   0.640897 0.250407 0.499488 0.534463
C159  C     C_R   0.359103 0.749593 0.500512 0.534463
C160  C     C_R   0.359103 0.250407 0.500512 0.534463
H1    H     H_    0.315691 0.418837 0.380466 0.103647
H2    H     H_    0.615867 0.597152 0.475289 0.099614
H3    H     H_    0.615871 0.402849 0.475293 0.099614
H4    H     H_    0.384132 0.597152 0.524713 0.099614
H5    H     H_    0.884133 0.902848 0.524711 0.099614
H6    H     H_    0.115867 0.097152 0.475288 0.099614
H7    H     H_    0.115868 0.902849 0.475288 0.099614
H8    H     H_    0.884131 0.097152 0.524709 0.099614
H9    H     H_    0.197149 0.314240 0.326362 0.166972
H10   H     H_    0.802851 0.685761 0.673639 0.166972
H11   H     H_    0.802850 0.314237 0.673641 0.166972
H12   H     H_    0.684309 0.581163 0.619535 0.103647
H13   H     H_    0.197150 0.685761 0.326361 0.166972
H14   H     H_    0.697149 0.814239 0.326361 0.166972
H15   H     H_    0.302851 0.185760 0.673639 0.166972
H16   H     H_    0.302849 0.814238 0.673639 0.166972
H17   H     H_    0.697149 0.185762 0.326360 0.166971
H18   H     H_    0.179311 0.310536 0.455535 0.133557
H19   H     H_    0.820689 0.689464 0.544465 0.133557
H20   H     H_    0.820689 0.310536 0.544466 0.133557
H21   H     H_    0.179311 0.689464 0.455535 0.133557
H22   H     H_    0.679311 0.810536 0.455535 0.133557
H23   H     H_    0.684311 0.418836 0.619539 0.103647
H24   H     H_    0.320689 0.189463 0.544464 0.133557
H25   H     H_    0.320689 0.810536 0.544465 0.133557
H26   H     H_    0.679311 0.189464 0.455534 0.133557
H27   H     H_    0.417720 0.359655 0.638353 0.100914
H28   H     H_    0.582280 0.640344 0.361648 0.100914
H29   H     H_    0.582285 0.359659 0.361650 0.100915
H30   H     H_    0.417718 0.640343 0.638353 0.100914
H31   H     H_    0.917720 0.859656 0.638352 0.100914
H32   H     H_    0.082280 0.140344 0.361647 0.100914
H33   H     H_    0.082283 0.859657 0.361647 0.100915
H34   H     H_    0.315691 0.581163 0.380467 0.103647
H35   H     H_    0.917717 0.140343 0.638351 0.100914
H36   H     H_    0.221657 0.404894 0.236902 0.106267
H37   H     H_    0.778343 0.595107 0.763099 0.106267
H38   H     H_    0.778343 0.404890 0.763104 0.106266
H39   H     H_    0.221658 0.595107 0.236901 0.106267
H40   H     H_    0.721657 0.904893 0.236901 0.106266
H41   H     H_    0.278343 0.095106 0.763098 0.106266
H42   H     H_    0.278341 0.904892 0.763100 0.106266
H43   H     H_    0.721657 0.095108 0.236898 0.106266
H44   H     H_    0.815691 0.918837 0.380465 0.103647
H45   H     H_    0.184309 0.081163 0.619534 0.103647
H46   H     H_    0.184309 0.918837 0.619534 0.103647
H47   H     H_    0.815689 0.081163 0.380463 0.103647
H48   H     H_    0.384133 0.402848 0.524712 0.099614
O1    O     O_3   0.500000 0.250010 0.500000 -0.409304
O2    O     O_R   0.008350 0.334000 0.455930 -0.526205
O3    O     O_R   0.008350 0.666000 0.455930 -0.526204
O4    O     O_R   0.991650 0.334000 0.544070 -0.526205
O5    O     O_R   0.552380 0.334020 0.544040 -0.528090
O6    O     O_R   0.447620 0.665980 0.455960 -0.528089
O7    O     O_R   0.447620 0.334020 0.455960 -0.528090
O8    O     O_R   0.552380 0.665980 0.544040 -0.528090
O9    O     O_R   0.052380 0.834020 0.544040 -0.528089
O10   O     O_R   0.947620 0.165980 0.455960 -0.528089
O11   O     O_R   0.947620 0.834020 0.455960 -0.528090
O12   O     O_3   0.500000 0.749990 0.500000 -0.409305
O13   O     O_R   0.052380 0.165980 0.544040 -0.528090
O14   O     O_R   0.593780 0.227990 0.455960 -0.533415
O15   O     O_R   0.406220 0.772010 0.544040 -0.533415
O16   O     O_R   0.406220 0.227990 0.544040 -0.533415
O17   O     O_R   0.593780 0.772010 0.455960 -0.533414
O18   O     O_R   0.093780 0.727990 0.455960 -0.533414
O19   O     O_R   0.906220 0.272010 0.544040 -0.533415
O20   O     O_R   0.906220 0.727990 0.544040 -0.533415
O21   O     O_R   0.093780 0.272010 0.455960 -0.533414
O22   O     O_R   0.362170 0.272040 0.455960 -0.534089
O23   O     O_3   0.000000 0.750010 0.500000 -0.409304
O24   O     O_R   0.637830 0.727960 0.544040 -0.534089
O25   O     O_R   0.637830 0.272040 0.544040 -0.534089
O26   O     O_R   0.362170 0.727960 0.455960 -0.534089
O27   O     O_R   0.862170 0.772040 0.455960 -0.534089
O28   O     O_R   0.137830 0.227960 0.544040 -0.534089
O29   O     O_R   0.137830 0.772040 0.544040 -0.534089
O30   O     O_R   0.862170 0.227960 0.455960 -0.534088
O31   O     O_R   0.446360 0.228000 0.332000 -0.520936
O32   O     O_R   0.553640 0.772000 0.668000 -0.520937
O33   O     O_R   0.553640 0.228000 0.668000 -0.520937
O34   O     O_3   0.000000 0.249990 0.500000 -0.409304
O35   O     O_R   0.446360 0.772000 0.332000 -0.520936
O36   O     O_R   0.946360 0.728000 0.332000 -0.520936
O37   O     O_R   0.053640 0.272000 0.668000 -0.520937
O38   O     O_R   0.053640 0.728000 0.668000 -0.520937
O39   O     O_R   0.946360 0.272000 0.332000 -0.520936
O40   O     O_R   0.385640 0.272040 0.331990 -0.523884
O41   O     O_R   0.614360 0.727960 0.668010 -0.523884
O42   O     O_R   0.614360 0.272040 0.668010 -0.523884
O43   O     O_R   0.385640 0.727960 0.331990 -0.523884
O44   O     O_R   0.885640 0.772040 0.331990 -0.523884
O45   O     O_R   0.491650 0.166000 0.544070 -0.526204
O46   O     O_R   0.114360 0.227960 0.668010 -0.523884
O47   O     O_R   0.114360 0.772040 0.668010 -0.523884
O48   O     O_R   0.885640 0.227960 0.331990 -0.523884
O49   O     O_2   0.360208 0.317251 0.629195 -0.499185
O50   O     O_2   0.639793 0.682749 0.370806 -0.499185
O51   O     O_2   0.639795 0.317252 0.370808 -0.499186
O52   O     O_2   0.360207 0.682749 0.629195 -0.499185
O53   O     O_2   0.860207 0.817251 0.629194 -0.499185
O54   O     O_2   0.139792 0.182749 0.370805 -0.499185
O55   O     O_2   0.139794 0.817251 0.370806 -0.499185
O56   O     O_R   0.508350 0.834000 0.455930 -0.526205
O57   O     O_2   0.860206 0.182748 0.629193 -0.499186
O58   O     O_2   0.163546 0.357592 0.205201 -0.477804
O59   O     O_2   0.836454 0.642408 0.794800 -0.477804
O60   O     O_2   0.836452 0.357588 0.794803 -0.477804
O61   O     O_2   0.163548 0.642409 0.205201 -0.477804
O62   O     O_2   0.663546 0.857592 0.205200 -0.477804
O63   O     O_2   0.336454 0.142408 0.794799 -0.477804
O64   O     O_2   0.336451 0.857590 0.794800 -0.477804
O65   O     O_2   0.663547 0.142410 0.205198 -0.477804
O66   O     O_R   0.508350 0.166000 0.455930 -0.526204
O67   O     O_R   0.491650 0.834000 0.544070 -0.526204
O68   O     O_R   0.991650 0.666000 0.544070 -0.526204
Zn1   Zn    Zn3+2 0.574840 0.281480 0.562930 0.963766
Zn2   Zn    Zn3+2 0.488090 0.781450 0.562930 0.972274
Zn3   Zn    Zn3+2 0.488090 0.218550 0.562930 0.972274
Zn4   Zn    Zn3+2 0.511910 0.781450 0.437070 0.972275
Zn5   Zn    Zn3+2 0.011910 0.718550 0.437070 0.972275
Zn6   Zn    Zn3+2 0.988090 0.281450 0.562930 0.972274
Zn7   Zn    Zn3+2 0.988090 0.718550 0.562930 0.972274
Zn8   Zn    Zn3+2 0.011910 0.281450 0.437070 0.972275
Zn9   Zn    Zn3+2 0.425160 0.718520 0.437070 0.963765
Zn10  Zn    Zn3+2 0.425160 0.281480 0.437070 0.963765
Zn11  Zn    Zn3+2 0.574840 0.718520 0.562930 0.963765
Zn12  Zn    Zn3+2 0.074840 0.781480 0.562930 0.963766
Zn13  Zn    Zn3+2 0.925160 0.218520 0.437070 0.963765
Zn14  Zn    Zn3+2 0.925160 0.781480 0.437070 0.963765
Zn15  Zn    Zn3+2 0.074840 0.218520 0.562930 0.963766
Zn16  Zn    Zn3+2 0.511910 0.218550 0.437070 0.972275

loop_
_geom_bond_atom_site_label_1
_geom_bond_atom_site_label_2
_ccdc_geom_bond_type
C44   C49   T    
C78   C87   A    
C81   C140  S    
O40   Zn10  S    
C6    O27   A    
C11   C18   S    
C16   O39   A    
C54   H29   S    
C123  C132  A    
C11   O35   A    
O33   Zn3   S    
C1    C145  S    
C70   C150  A    
O27   Zn14  S    
C65   C101  S    
C60   O57   D    
C24   C74   A    
C141  O7    A    
C46   C76   A    
C84   O3    A    
C58   C76   S    
O15   Zn2   S    
C15   O47   A    
C80   C136  S    
C59   H33   S    
C105  C150  A    
C12   C23   S    
C60   C78   S    
O36   Zn5   S    
C119  C133  A    
C124  C133  A    
O12   Zn11  S    
C34   C40   T    
C17   C26   T    
C113  H47   S    
C59   O55   D    
C156  C157  T    
C128  C139  T    
C73   O67   A    
C89   H10   S    
C8    O31   A    
C158  O25   A    
C119  C127  A    
C3    C127  S    
C69   C104  S    
C57   C112  A    
C115  C136  A    
O13   Zn15  S    
C10   C17   S    
C150  H48   S    
O14   Zn16  S    
C2    C107  A    
C37   C42   T    
C31   C40   S    
C91   H13   S    
C110  H44   S    
C55   O52   D    
C114  C137  A    
C80   C89   A    
C66   C102  S    
C122  C134  A    
O23   Zn14  S    
C63   C99   S    
C66   O63   D    
O45   Zn3   S    
O56   Zn4   S    
C62   C98   S    
C55   C74   S    
O4    Zn6   S    
C26   C34   S    
C48   C106  S    
O31   Zn16  S    
C152  C156  S    
C114  H18   S    
C6    O20   A    
C29   C38   S    
O12   Zn4   S    
C32   C41   S    
O44   Zn14  S    
C131  C140  A    
C52   H27   S    
C6    C124  S    
C96   H17   S    
C86   C94   A    
C43   C48   T    
C121  C130  A    
C84   O68   A    
C72   C81   A    
C73   O56   A    
C68   C113  A    
C20   C29   T    
C14   O37   A    
C97   C105  A    
C24   C109  A    
C81   C90   A    
C56   H31   S    
C100  C109  A    
C158  O14   A    
C56   C75   S    
C46   C111  A    
C58   O54   D    
C153  C157  S    
C54   O51   D    
C66   H41   S    
C87   C134  S    
C59   C77   S    
C102  C111  A    
C24   H4    S    
C10   O33   A    
C85   C93   A    
C74   C82   A    
C13   C108  A    
O34   Zn8   S    
C79   C88   A    
O30   Zn13  S    
C1    O45   A    
C13   H3    S    
C107  H12   S    
C68   C78   A    
O6    Zn9   S    
O5    Zn1   S    
C112  H46   S    
C8    C19   S    
C83   C133  S    
C5    O30   A    
C95   C148  S    
C67   C103  S    
C120  C129  A    
C55   H30   S    
C57   C77   A    
C109  H34   S    
O67   Zn2   S    
C71   C80   A    
C127  C136  A    
C142  O6    A    
C38   C41   T    
C67   O64   D    
C22   C31   T    
C141  O5    A    
O34   Zn13  S    
C47   C51   T    
O21   Zn8   S    
C92   H14   S    
C101  C110  A    
O1    Zn3   S    
O16   Zn3   S    
C121  H25   S    
O47   Zn12  S    
C93   H15   S    
C11   O43   A    
C98   C107  A    
C104  C113  A    
O12   Zn9   S    
C10   O42   A    
C119  H22   S    
C90   H11   S    
C131  C158  S    
C9    O41   A    
C149  C154  S    
O42   Zn1   S    
C144  O10   A    
O39   Zn8   S    
C99   C108  A    
C62   O59   D    
C143  O9    A    
C65   H40   S    
C120  H24   S    
C9    C20   S    
C14   O46   A    
C15   O38   A    
C64   C100  S    
C4    O29   A    
C35   C75   A    
C87   C96   A    
O22   Zn10  S    
C9    O32   A    
C52   C70   S    
C154  C155  T    
C54   C72   S    
O38   Zn7   S    
C76   C85   A    
C111  H45   S    
C121  C135  A    
C19   C28   T    
O48   Zn13  S    
C61   H36   S    
C144  O13   A    
O29   Zn12  S    
C35   C110  A    
C2    C71   A    
C92   C101  A    
C122  C131  A    
O3    Zn5   S    
C114  C123  A    
C68   H8    S    
O20   Zn7   S    
C44   C142  S    
C159  O26   A    
C79   C137  S    
C13   C72   A    
C77   C86   A    
C69   H43   S    
C3    O24   A    
C151  C155  S    
C116  C125  A    
C96   C104  A    
C106  C117  T    
C58   H32   S    
C91   C100  A    
O1    Zn16  S    
C49   C117  S    
O23   Zn12  S    
C43   C141  S    
C50   C128  S    
C148  C153  T    
C33   C42   S    
O24   Zn11  S    
O46   Zn15  S    
C53   C71   S    
O19   Zn6   S    
C90   C99   A    
C115  C124  A    
O25   Zn1   S    
O9    Zn12  S    
C45   C143  S    
C7    O21   A    
C84   C147  S    
O23   Zn7   S    
C3    O17   A    
C7    O28   A    
O32   Zn2   S    
C16   C22   S    
C53   O50   D    
C46   H6    S    
C108  H23   S    
C160  O16   A    
C70   C79   A    
C120  C132  A    
C95   O2    A    
O23   Zn5   S    
C36   C39   T    
C61   C97   S    
C18   C27   T    
C88   H9    S    
C62   H37   S    
C7    C123  S    
C1    O66   A    
O35   Zn4   S    
C94   C103  A    
O8    Zn11  S    
C63   H38   S    
O11   Zn14  S    
C51   C139  S    
C57   H7    S    
O68   Zn7   S    
C118  C126  A    
C27   C36   S    
O26   Zn9   S    
C69   O65   D    
C21   C30   T    
C73   C146  S    
C12   O44   A    
O7    Zn10  S    
C4    C126  S    
C89   C98   A    
O2    Zn8   S    
C23   C32   T    
O43   Zn9   S    
C116  H20   S    
C147  C152  T    
C88   C97   A    
C142  O8    A    
C85   C132  S    
C125  C134  A    
C82   C138  S    
O12   Zn2   S    
C16   O48   A    
C75   C83   A    
O34   Zn15  S    
C28   C37   S    
C126  C135  A    
C159  O15   A    
C52   O49   D    
C47   C144  S    
C35   H5    S    
O17   Zn4   S    
C12   O36   A    
C30   C39   S    
C56   O53   D    
C160  O22   A    
O1    Zn1   S    
C14   C25   S    
C65   O62   D    
C63   O60   D    
O28   Zn15  S    
C115  H19   S    
C61   O58   D    
O18   Zn5   S    
C53   H28   S    
C122  H26   S    
C64   O61   D    
C82   C91   A    
O10   Zn13  S    
C143  O11   A    
C146  C151  T    
C5    O19   A    
C86   C135  S    
C15   C21   S    
C129  C137  A    
C8    O40   A    
C93   C102  A    
C83   C92   A    
C25   C33   T    
O41   Zn11  S    
C64   H39   S    
C5    C125  S    
O37   Zn6   S    
C67   H42   S    
C130  C159  S    
C105  H1    S    
C45   C50   T    
C118  H21   S    
C95   O4    A    
C118  C138  A    
C103  C112  A    
O66   Zn16  S    
C4    O18   A    
O34   Zn6   S    
C129  C160  S    
C145  C149  T    
O1    Zn10  S    
C60   H35   S    
C94   H16   S    
C2    H2    S    
C116  C140  A    
C130  C138  A    
