data_mof_unit_30460.cif
_audit_creation_date              2012-12-11T15:20:08-0500
_audit_creation_method            fapswitch 2.2
_symmetry_space_group_name_H-M    P1
_symmetry_Int_Tables_number       1
_space_group_crystal_system       triclinic
_cell_length_a                    16.634361
_cell_length_b                    16.637415
_cell_length_c                    43.12264
_cell_angle_alpha                 89.945974
_cell_angle_beta                  90.016454
_cell_angle_gamma                 119.968656
_cell_volume                      10338.6735853

loop_
_atom_site_label
_atom_site_type_symbol
_atom_type_description
_atom_site_fract_x
_atom_site_fract_y
_atom_site_fract_z
_atom_type_partial_charge
C1    C     C_R   0.583827 0.425816 0.794569 0.539297
C2    C     C_R   0.841874 0.416135 0.705493 0.534461
C3    C     C_R   0.574015 0.157752 0.794525 0.537075
C4    C     C_R   0.583964 0.425795 0.705454 0.535632
C5    C     C_R   0.841923 0.416058 0.794633 0.538530
C6    C     C_R   0.574212 0.158073 0.705506 0.534957
C7    C     C_R   0.425772 0.583924 0.294543 0.535652
C8    C     C_R   0.415488 0.841372 0.205288 0.541028
C9    C     C_R   0.158049 0.574181 0.294492 0.535662
C10   C     C_R   0.426007 0.584382 0.205350 0.538845
C11   C     C_R   0.416101 0.841831 0.294512 0.535915
C12   C     C_R   0.158123 0.574032 0.205443 0.538361
C13   C     C_R   0.022393 0.572303 0.134765 -0.078259
C14   C     C_R   0.474473 0.994514 0.365200 -0.081112
C15   C     C_R   0.480587 0.603359 0.120555 -0.076086
C16   C     C_R   0.003013 0.477745 0.364644 -0.076757
C17   C     C_R   0.392969 0.871502 0.120361 -0.093172
C18   C     C_R   0.378129 0.513688 0.377941 -0.062925
C19   C     C_R   0.477839 0.003245 0.635364 -0.077215
C20   C     C_R   0.888710 0.511773 0.875681 -0.082725
C21   C     C_R   0.513873 0.378249 0.622069 -0.063074
C22   C     C_R   0.463362 0.000971 0.863759 -0.075431
C23   C     C_R   0.994888 0.474901 0.634830 -0.081587
C24   C     C_R   0.540539 0.533325 0.865234 -0.077894
C25   C     C_R   0.050492 0.579571 0.165783 -0.153608
C26   C     C_R   0.452052 0.964026 0.334550 -0.142108
C27   C     C_R   0.472933 0.626063 0.150959 -0.139579
C28   C     C_R   0.034661 0.486691 0.334102 -0.145836
C29   C     C_R   0.371342 0.844475 0.151089 -0.140539
C30   C     C_R   0.366986 0.533881 0.347514 -0.143268
C31   C     C_R   0.486759 0.034811 0.665906 -0.146897
C32   C     C_R   0.854716 0.490800 0.845501 -0.146450
C33   C     C_R   0.534007 0.367081 0.652498 -0.143394
C34   C     C_R   0.475700 0.036563 0.833625 -0.141409
C35   C     C_R   0.964288 0.452364 0.665478 -0.143477
C36   C     C_R   0.563027 0.522719 0.834809 -0.148459
C37   C     C_R   0.170038 0.544841 0.150394 -0.104256
C38   C     C_R   0.460176 0.826512 0.347587 -0.109642
C39   C     C_R   0.413255 0.466069 0.166439 -0.111729
C40   C     C_R   0.171035 0.632544 0.347605 -0.115798
C41   C     C_R   0.533018 0.941489 0.165266 -0.117852
C42   C     C_R   0.515137 0.548818 0.333735 -0.102777
C43   C     C_R   0.632703 0.171133 0.652376 -0.115670
C44   C     C_R   0.960566 0.434424 0.834179 -0.104264
C45   C     C_R   0.549078 0.515267 0.666224 -0.103724
C46   C     C_R   0.634212 0.151370 0.846275 -0.107065
C47   C     C_R   0.826657 0.460268 0.652422 -0.109681
C48   C     C_R   0.517191 0.362755 0.846037 -0.109861
C49   C     C_R   0.144494 0.540687 0.119470 0.201624
C50   C     C_R   0.478999 0.854653 0.378393 0.236299
C51   C     C_R   0.423879 0.443373 0.135904 0.230540
C52   C     C_R   0.141728 0.622340 0.378310 0.211567
C53   C     C_R   0.554730 0.971558 0.134373 0.228006
C54   C     C_R   0.525172 0.525211 0.364139 0.222930
C55   C     C_R   0.622523 0.141913 0.621669 0.211581
C56   C     C_R   0.997095 0.458198 0.864237 0.226102
C57   C     C_R   0.525533 0.525332 0.635817 0.222814
C58   C     C_R   0.621171 0.118462 0.876646 0.220126
C59   C     C_R   0.854913 0.479211 0.621622 0.235999
C60   C     C_R   0.498074 0.373992 0.876660 0.209731
C61   C     C_R   0.068769 0.552073 0.111508 0.245872
C62   C     C_R   0.486894 0.939678 0.387440 0.248815
C63   C     C_R   0.456742 0.512404 0.112634 0.252562
C64   C     C_R   0.056676 0.544730 0.387052 0.241512
C65   C     C_R   0.484254 0.935340 0.111624 0.241661
C66   C     C_R   0.457416 0.510123 0.386710 0.249455
C67   C     C_R   0.544876 0.056926 0.612937 0.241641
C68   C     C_R   0.958662 0.494088 0.885596 0.246199
C69   C     C_R   0.510388 0.457558 0.613272 0.249701
C70   C     C_R   0.535403 0.042459 0.885642 0.247116
C71   C     C_R   0.940044 0.487259 0.612586 0.248801
C72   C     C_R   0.509344 0.459613 0.886522 0.244858
C73   C     C_R   0.888438 0.449532 0.824777 -0.023807
C74   C     C_R   0.564552 0.118757 0.674488 -0.017797
C75   C     C_R   0.551628 0.437270 0.825098 -0.022464
C76   C     C_R   0.880162 0.445390 0.674338 -0.016078
C77   C     C_R   0.561293 0.112149 0.824768 -0.021266
C78   C     C_R   0.553588 0.436246 0.674587 -0.018943
C79   C     C_R   0.445259 0.880019 0.325674 -0.016097
C80   C     C_R   0.123143 0.563697 0.173699 -0.012741
C81   C     C_R   0.436157 0.553441 0.325402 -0.018970
C82   C     C_R   0.441009 0.878764 0.173748 -0.019152
C83   C     C_R   0.118672 0.564452 0.325510 -0.018100
C84   C     C_R   0.438857 0.557761 0.174093 -0.020522
C85   C     C_R   0.044228 0.610028 0.030003 0.042007
C86   C     C_R   0.581028 0.989744 0.467779 0.049054
C87   C     C_R   0.395560 0.433226 0.030831 0.035221
C88   C     C_R   0.003756 0.587730 0.467086 0.048605
C89   C     C_R   0.559507 0.948764 0.029415 0.036740
C90   C     C_R   0.410577 0.417854 0.467432 0.043025
C91   C     C_R   0.587801 0.003928 0.532890 0.048482
C92   C     C_R   0.025994 0.595920 0.964899 0.036528
C93   C     C_R   0.417937 0.410623 0.532606 0.043062
C94   C     C_R   0.563478 0.966849 0.964318 0.043469
C95   C     C_R   0.989952 0.581213 0.532205 0.049264
C96   C     C_R   0.408035 0.429899 0.965674 0.041354
C97   C     C_R   0.057738 0.617976 0.062258 0.429430
C98   C     C_R   0.576710 0.980719 0.435406 0.456600
C99   C     C_R   0.388558 0.437932 0.063158 0.468867
C100  C     C_R   0.013001 0.592204 0.434719 0.465268
C101  C     C_R   0.554318 0.935994 0.061713 0.448012
C102  C     C_R   0.406225 0.422143 0.435007 0.427160
C103  C     C_R   0.592376 0.013313 0.565252 0.465089
C104  C     C_R   0.016325 0.588705 0.932469 0.424545
C105  C     C_R   0.422290 0.406335 0.565032 0.427094
C106  C     C_R   0.567106 0.978054 0.931961 0.454419
C107  C     C_R   0.981073 0.577000 0.564583 0.456489
C108  C     C_R   0.414772 0.426893 0.933265 0.461282
C109  C     C_R   0.000941 0.454347 0.066290 0.464040
C110  C     C_R   0.427021 0.969311 0.434941 0.449094
C111  C     C_R   0.552777 0.542045 0.066842 0.426652
C112  C     C_R   0.026972 0.455381 0.434630 0.429239
C113  C     C_R   0.455130 0.001870 0.065815 0.433461
C114  C     C_R   0.543842 0.572162 0.434716 0.477785
C115  C     C_R   0.455487 0.027208 0.565386 0.429161
C116  C     C_R   0.961257 0.425288 0.935271 0.470140
C117  C     C_R   0.572374 0.543877 0.565207 0.477881
C118  C     C_R   0.457999 0.032329 0.934584 0.448042
C119  C     C_R   0.969692 0.427350 0.565117 0.449186
C120  C     C_R   0.578787 0.533193 0.935679 0.434051
C121  C     C_R   0.993186 0.444124 0.033577 0.022617
C122  C     C_R   0.432108 0.986570 0.467336 0.016819
C123  C     C_R   0.561858 0.546117 0.034065 0.011220
C124  C     C_R   0.008991 0.443087 0.466993 0.016483
C125  C     C_R   0.449739 0.006078 0.033073 0.011218
C126  C     C_R   0.555874 0.566868 0.467108 0.016411
C127  C     C_R   0.443101 0.009098 0.533037 0.016438
C128  C     C_R   0.976470 0.430670 0.967773 0.014962
C129  C     C_R   0.567003 0.555862 0.532813 0.016331
C130  C     C_R   0.449325 0.018629 0.967192 0.018131
C131  C     C_R   0.986792 0.432322 0.532709 0.016926
C132  C     C_R   0.574087 0.543289 0.968212 0.018551
C133  C     C_R   0.013776 0.523175 0.015469 -0.041273
C134  C     C_R   0.508319 0.992507 0.483898 -0.042439
C135  C     C_R   0.482277 0.488660 0.016116 -0.046483
C136  C     C_R   0.001962 0.512944 0.483381 -0.041981
C137  C     C_R   0.505282 0.981918 0.014910 -0.045435
C138  C     C_R   0.485853 0.490431 0.483613 -0.043117
C139  C     C_R   0.512926 0.002014 0.516625 -0.042002
C140  C     C_R   0.004864 0.516250 0.982713 -0.047101
C141  C     C_R   0.490511 0.485835 0.516367 -0.043136
C142  C     C_R   0.506341 0.989809 0.982138 -0.043435
C143  C     C_R   0.992637 0.508460 0.516114 -0.042409
C144  C     C_R   0.488496 0.486950 0.983336 -0.043361
C145  C     C_R   0.064353 0.688035 0.011891 -0.140418
C146  C     C_R   0.655661 0.993921 0.484346 -0.135999
C147  C     C_R   0.316632 0.377263 0.012845 -0.136225
C148  C     C_R   0.998714 0.657911 0.483482 -0.136799
C149  C     C_R   0.614976 0.925522 0.011255 -0.141435
C150  C     C_R   0.340263 0.343039 0.483984 -0.139743
C151  C     C_R   0.657948 0.998826 0.516467 -0.136825
C152  C     C_R   0.056064 0.681214 0.979837 -0.139406
C153  C     C_R   0.343058 0.340309 0.516113 -0.139715
C154  C     C_R   0.616842 0.934355 0.979204 -0.138982
C155  C     C_R   0.994015 0.655760 0.515607 -0.135953
C156  C     C_R   0.322598 0.376376 0.980754 -0.136547
C157  C     C_R   0.970172 0.359275 0.018387 -0.037184
C158  C     C_R   0.362049 0.994203 0.483794 -0.033431
C159  C     C_R   0.646267 0.608441 0.018691 -0.034734
C160  C     C_R   0.001957 0.365853 0.483602 -0.034144
C161  C     C_R   0.387995 0.029492 0.017987 -0.035840
C162  C     C_R   0.633299 0.636989 0.483597 -0.034927
C163  C     C_R   0.365793 0.001975 0.516461 -0.034142
C164  C     C_R   0.964147 0.353455 0.985665 -0.036022
C165  C     C_R   0.637096 0.633253 0.516270 -0.034921
C166  C     C_R   0.386030 0.033037 0.985236 -0.032206
C167  C     C_R   0.994326 0.362210 0.516273 -0.033434
C168  C     C_R   0.651636 0.608013 0.985950 -0.033742
Cr1   Cr    Cr6+3 0.530290 0.262330 0.750000 1.043916
Cr2   Cr    Cr6+3 0.732040 0.469710 0.750000 1.042413
Cr3   Cr    Cr6+3 0.737670 0.267960 0.750000 1.048166
Cr4   Cr    Cr6+3 0.262330 0.530290 0.250000 1.048346
Cr5   Cr    Cr6+3 0.469710 0.732040 0.250000 1.047100
Cr6   Cr    Cr6+3 0.267960 0.737670 0.250000 1.046634
H1    H     H_    0.987969 0.403691 0.818277 0.158338
H2    H     H_    0.691776 0.237529 0.658670 0.148989
H3    H     H_    0.510791 0.297161 0.839150 0.163088
H4    H     H_    0.760133 0.452335 0.658956 0.146913
H5    H     H_    0.699808 0.211629 0.840028 0.161217
H6    H     H_    0.563338 0.568527 0.683275 0.152607
H7    H     H_    0.452366 0.760069 0.341048 0.146822
H8    H     H_    0.228756 0.536254 0.156180 0.154245
H9    H     H_    0.568394 0.563054 0.316665 0.154518
H10   H     H_    0.587268 0.967994 0.182643 0.150039
H11   H     H_    0.237476 0.691593 0.341301 0.148834
H12   H     H_    0.386830 0.412916 0.184208 0.149550
H13   H     H_    0.073528 0.743346 0.966760 0.135124
H14   H     H_    0.715983 0.000396 0.528385 0.134213
H15   H     H_    0.259774 0.333298 0.967774 0.135087
H16   H     H_    0.991971 0.712109 0.527399 0.136269
H17   H     H_    0.660476 0.915635 0.966072 0.135565
H18   H     H_    0.286744 0.282060 0.527993 0.136460
H19   H     H_    0.711981 0.991818 0.472534 0.136133
H20   H     H_    0.087436 0.755096 0.022439 0.135502
H21   H     H_    0.281963 0.286725 0.472150 0.136480
H22   H     H_    0.657429 0.900482 0.021792 0.136163
H23   H     H_    0.000184 0.715870 0.471539 0.134265
H24   H     H_    0.249563 0.334207 0.023539 0.135711
H25   H     H_    0.015123 0.596245 0.183533 0.133408
H26   H     H_    0.439768 0.005468 0.317892 0.140429
H27   H     H_    0.491211 0.696869 0.156270 0.148502
H28   H     H_    0.994121 0.433190 0.317306 0.139719
H29   H     H_    0.300232 0.794230 0.157017 0.149954
H30   H     H_    0.306073 0.538437 0.341552 0.141181
H31   H     H_    0.433206 0.994257 0.682711 0.136614
H32   H     H_    0.798335 0.502214 0.838901 0.152725
H33   H     H_    0.538485 0.306140 0.658481 0.141307
H34   H     H_    0.418349 0.006101 0.817414 0.142234
H35   H     H_    0.005729 0.440121 0.682143 0.138075
H36   H     H_    0.590500 0.581259 0.819061 0.143012
H37   H     H_    0.964688 0.582187 0.128797 0.149993
H38   H     H_    0.479175 0.059387 0.371971 0.147640
H39   H     H_    0.505129 0.656888 0.102921 0.155691
H40   H     H_    0.938172 0.417174 0.371197 0.150278
H41   H     H_    0.338305 0.842642 0.103126 0.154778
H42   H     H_    0.326176 0.503566 0.395034 0.171081
H43   H     H_    0.417243 0.938449 0.628825 0.149524
H44   H     H_    0.857888 0.538473 0.891829 0.158016
H45   H     H_    0.503711 0.326282 0.604996 0.171034
H46   H     H_    0.396558 0.943475 0.870514 0.150200
H47   H     H_    0.059837 0.479715 0.628064 0.147119
H48   H     H_    0.551067 0.600042 0.872686 0.150541
N1    N     N_R   0.038513 0.541035 0.079698 -0.368341
N2    N     N_R   0.498355 0.966051 0.419701 -0.372025
N3    N     N_R   0.466492 0.492901 0.080647 -0.365565
N4    N     N_R   0.029146 0.529243 0.419212 -0.371269
N5    N     N_R   0.502384 0.962381 0.079425 -0.364655
N6    N     N_R   0.471476 0.499419 0.419164 -0.367085
N7    N     N_R   0.529412 0.029458 0.580778 -0.371177
N8    N     N_R   0.982471 0.503724 0.918163 -0.369320
N9    N     N_R   0.499632 0.471575 0.580817 -0.367011
N10   N     N_R   0.518109 0.014580 0.917796 -0.373678
N11   N     N_R   0.966466 0.498705 0.580325 -0.372083
N12   N     N_R   0.500070 0.475110 0.918934 -0.370716
O1    O     O_R   0.509640 0.171340 0.784000 -0.501862
O2    O     O_R   0.661700 0.490360 0.716000 -0.498091
O3    O     O_R   0.828660 0.338300 0.784000 -0.502362
O4    O     O_R   0.509640 0.171340 0.716000 -0.501770
O5    O     O_R   0.661700 0.490360 0.784000 -0.505027
O6    O     O_R   0.828660 0.338300 0.716000 -0.496549
O7    O     O_R   0.171340 0.509640 0.284000 -0.499143
O8    O     O_R   0.490360 0.661700 0.216000 -0.495719
O9    O     O_R   0.338300 0.828660 0.284000 -0.495085
O10   O     O_R   0.171340 0.509640 0.216000 -0.491517
O11   O     O_R   0.490360 0.661700 0.284000 -0.496242
O12   O     O_R   0.338300 0.828660 0.216000 -0.494834
O13   O     O_R   0.539230 0.345420 0.781810 -0.492396
O14   O     O_R   0.806190 0.460770 0.718190 -0.492860
O15   O     O_R   0.654580 0.193810 0.781810 -0.493173
O16   O     O_R   0.539230 0.345420 0.718190 -0.490706
O17   O     O_R   0.806190 0.460770 0.781810 -0.493133
O18   O     O_R   0.654580 0.193810 0.718190 -0.490504
O19   O     O_R   0.345420 0.539230 0.281810 -0.491723
O20   O     O_R   0.460770 0.806190 0.218190 -0.496798
O21   O     O_R   0.193810 0.654580 0.281810 -0.491755
O22   O     O_R   0.345420 0.539230 0.218190 -0.494354
O23   O     O_R   0.460770 0.806190 0.281810 -0.492900
O24   O     O_R   0.193810 0.654580 0.218190 -0.496462
O25   O     O_3   0.666667 0.333333 0.750000 -0.251999
O26   O     O_3   0.333333 0.666667 0.250000 -0.254793
O27   O     O_2   0.088483 0.693580 0.074814 -0.547354
O28   O     O_2   0.641770 0.983937 0.421126 -0.511475
O29   O     O_2   0.312783 0.394664 0.075732 -0.470956
O30   O     O_2   0.008917 0.653362 0.420275 -0.502382
O31   O     O_2   0.594357 0.899612 0.074054 -0.520103
O32   O     O_2   0.343540 0.357744 0.420795 -0.533249
O33   O     O_2   0.653605 0.009314 0.579671 -0.502728
O34   O     O_2   0.037172 0.657839 0.916886 -0.529197
O35   O     O_2   0.357886 0.343712 0.579295 -0.533465
O36   O     O_2   0.615098 0.956946 0.916339 -0.504197
O37   O     O_2   0.984330 0.642080 0.578837 -0.512028
O38   O     O_2   0.345132 0.380132 0.917744 -0.485856
O39   O     O_2   0.975507 0.386668 0.083054 -0.461475
O40   O     O_2   0.358010 0.954186 0.420293 -0.467542
O41   O     O_2   0.621354 0.582331 0.083324 -0.489327
O42   O     O_2   0.043942 0.402454 0.420200 -0.503271
O43   O     O_2   0.417537 0.032794 0.082446 -0.470288
O44   O     O_2   0.595661 0.642702 0.420365 -0.437107
O45   O     O_2   0.402571 0.044204 0.579824 -0.503565
O46   O     O_2   0.926290 0.350305 0.922176 -0.432239
O47   O     O_2   0.642978 0.595677 0.579504 -0.437056
O48   O     O_2   0.414433 0.062904 0.921097 -0.458919
O49   O     O_2   0.954666 0.358418 0.579808 -0.467730
O50   O     O_2   0.653310 0.573549 0.922240 -0.510487
C169  C     C_R   0.958271 0.270684 0.970373 0.072896
C170  C     C_R   0.872651 0.188795 0.966824 -0.027060
C171  C     C_R   0.868561 0.112002 0.952104 -0.070015
C172  C     C_R   0.949665 0.116390 0.941036 -0.088937
C173  C     C_R   0.035066 0.197729 0.944601 -0.085600
C174  C     C_R   0.039487 0.274726 0.959224 -0.055305
H49   H     H_    0.809370 0.184885 0.975148 0.133626
H50   H     H_    0.802488 0.049408 0.949047 0.135906
H51   H     H_    0.946347 0.057005 0.929559 0.104318
H52   H     H_    0.097766 0.201366 0.935889 0.121797
H53   H     H_    0.105938 0.337580 0.961812 0.123127
C175  C     C_R   0.284925 0.996666 0.532951 0.078417
C176  C     C_R   0.220068 0.913302 0.547240 -0.069440
C177  C     C_R   0.144162 0.907813 0.563019 -0.109357
C178  C     C_R   0.132288 0.985157 0.564422 -0.099289
C179  C     C_R   0.196155 0.068063 0.549976 -0.088161
C180  C     C_R   0.272515 0.074088 0.534297 -0.046024
H54   H     H_    0.228647 0.852961 0.546229 0.119090
H55   H     H_    0.094712 0.843692 0.574226 0.154353
H56   H     H_    0.073760 0.980848 0.576790 0.103687
H57   H     H_    0.186665 0.127676 0.551052 0.108128
H58   H     H_    0.321986 0.138741 0.523325 0.111854
C181  C     C_R   0.733433 0.685419 0.970452 0.079421
C182  C     C_R   0.812699 0.679153 0.963749 -0.043791
C183  C     C_R   0.887526 0.751834 0.948219 -0.099338
C184  C     C_R   0.884199 0.831292 0.939775 -0.095949
C185  C     C_R   0.805767 0.838069 0.946702 -0.098382
C186  C     C_R   0.730476 0.765319 0.961942 -0.073607
H59   H     H_    0.815700 0.617662 0.970039 0.115414
H60   H     H_    0.947625 0.746212 0.942402 0.136042
H61   H     H_    0.942023 0.887326 0.927667 0.105237
H62   H     H_    0.802862 0.899207 0.940005 0.111184
H63   H     H_    0.669591 0.770722 0.966998 0.101837
C187  C     C_R   0.999982 0.287013 0.532903 0.075968
C188  C     C_R   0.083958 0.305508 0.546715 -0.072264
C189  C     C_R   0.089749 0.235518 0.562695 -0.106515
C190  C     C_R   0.012049 0.146764 0.564812 -0.097343
C191  C     C_R   0.928476 0.127752 0.550874 -0.079056
C192  C     C_R   0.922196 0.197633 0.534946 -0.029654
H64   H     H_    0.144547 0.374103 0.545180 0.120493
H65   H     H_    0.154365 0.250190 0.573527 0.154147
H66   H     H_    0.016607 0.092916 0.577358 0.103458
H67   H     H_    0.868549 0.059040 0.552554 0.110033
H68   H     H_    0.857050 0.182499 0.524367 0.125289
C193  C     C_R   0.308841 0.039068 0.970234 0.075239
C194  C     C_R   0.313862 0.125020 0.965738 -0.023879
C195  C     C_R   0.240938 0.129020 0.951087 -0.072297
C196  C     C_R   0.162675 0.047553 0.941125 -0.091526
C197  C     C_R   0.157332 0.961861 0.945684 -0.097015
C198  C     C_R   0.230144 0.957515 0.960190 -0.072364
H69   H     H_    0.374422 0.188565 0.973213 0.135679
H70   H     H_    0.245425 0.195235 0.947162 0.138626
H71   H     H_    0.106460 0.050822 0.929702 0.104115
H72   H     H_    0.097201 0.898868 0.937776 0.112577
H73   H     H_    0.225705 0.890884 0.963492 0.108232
C199  C     C_R   0.712010 0.714276 0.532845 0.070861
C200  C     C_R   0.692364 0.777933 0.547435 -0.054696
C201  C     C_R   0.762020 0.853550 0.563509 -0.093637
C202  C     C_R   0.851577 0.866298 0.564927 -0.096338
C203  C     C_R   0.871714 0.803593 0.550202 -0.080670
C204  C     C_R   0.802158 0.727544 0.534217 -0.036490
H74   H     H_    0.623112 0.768548 0.546476 0.135583
H75   H     H_    0.746487 0.902044 0.574960 0.161644
H76   H     H_    0.905175 0.924553 0.577547 0.104020
H77   H     H_    0.941034 0.813673 0.551319 0.110196
H78   H     H_    0.818114 0.678859 0.523077 0.122007
C205  C     C_R   0.286849 0.999898 0.467188 0.076046
C206  C     C_R   0.305433 0.083826 0.453303 -0.072199
C207  C     C_R   0.235418 0.089696 0.437377 -0.106307
C208  C     C_R   0.146549 0.012122 0.435389 -0.097115
C209  C     C_R   0.127450 0.928599 0.449400 -0.079177
C210  C     C_R   0.197358 0.922236 0.465269 -0.029812
H79   H     H_    0.374110 0.144325 0.454745 0.120605
H80   H     H_    0.250152 0.154278 0.426493 0.154457
H81   H     H_    0.092674 0.016741 0.422891 0.103575
H82   H     H_    0.058639 0.868784 0.447826 0.109506
H83   H     H_    0.182149 0.857133 0.475911 0.124933
C211  C     C_R   0.962390 0.278529 0.035806 0.072240
C212  C     C_R   0.043014 0.277408 0.044656 -0.042226
C213  C     C_R   0.036352 0.199953 0.059767 -0.085797
C214  C     C_R   0.949220 0.123147 0.066029 -0.091699
C215  C     C_R   0.868603 0.123958 0.057342 -0.078730
C216  C     C_R   0.875018 0.201552 0.042353 -0.053334
H84   H     H_    0.110673 0.336384 0.039699 0.145547
H85   H     H_    0.098748 0.199434 0.066512 0.127565
H86   H     H_    0.944213 0.063059 0.077605 0.110375
H87   H     H_    0.801187 0.064373 0.062122 0.159083
H88   H     H_    0.812243 0.201394 0.035574 0.122005
C217  C     C_R   0.714253 0.711934 0.466965 0.070755
C218  C     C_R   0.778068 0.692432 0.452398 -0.054894
C219  C     C_R   0.853593 0.762112 0.436257 -0.093529
C220  C     C_R   0.866078 0.851542 0.434742 -0.096240
C221  C     C_R   0.803211 0.871532 0.449443 -0.080410
C222  C     C_R   0.727270 0.801960 0.465502 -0.036287
H89   H     H_    0.768875 0.623274 0.453427 0.135584
H90   H     H_    0.902218 0.746696 0.424827 0.162103
H91   H     H_    0.924252 0.905153 0.422065 0.104572
H92   H     H_    0.813074 0.940747 0.448246 0.110469
H93   H     H_    0.678458 0.817801 0.476621 0.122293
C223  C     C_R   0.316884 0.039598 0.035697 0.074532
C224  C     C_R   0.236309 0.960249 0.046043 -0.061585
C225  C     C_R   0.167668 0.968991 0.061799 -0.092923
C226  C     C_R   0.179036 0.056905 0.067267 -0.090491
C227  C     C_R   0.259295 0.136257 0.057085 -0.079207
C228  C     C_R   0.328267 0.127795 0.041390 -0.047696
H94   H     H_    0.226948 0.891953 0.041834 0.120247
H95   H     H_    0.105698 0.907604 0.069738 0.121825
H96   H     H_    0.125711 0.063466 0.079434 0.112150
H97   H     H_    0.268013 0.204265 0.061326 0.158241
H98   H     H_    0.390083 0.189612 0.033529 0.120584
C229  C     C_R   0.996583 0.284956 0.467145 0.078327
C230  C     C_R   0.913174 0.220117 0.452909 -0.069265
C231  C     C_R   0.907641 0.144217 0.437144 -0.108979
C232  C     C_R   0.984983 0.132319 0.435708 -0.098911
C233  C     C_R   0.067935 0.196167 0.450103 -0.088054
C234  C     C_R   0.074006 0.272528 0.465764 -0.046071
H99   H     H_    0.852837 0.228719 0.453944 0.119156
H100  H     H_    0.843491 0.094800 0.425970 0.154227
H101  H     H_    0.980636 0.073793 0.423352 0.103812
H102  H     H_    0.127553 0.186671 0.448999 0.108292
H103  H     H_    0.138697 0.321993 0.476692 0.111847
C235  C     C_R   0.726612 0.682451 0.035926 0.081395
C236  C     C_R   0.723596 0.760711 0.046480 -0.058536
C237  C     C_R   0.800515 0.832729 0.061355 -0.091698
C238  C     C_R   0.880805 0.827038 0.065754 -0.098536
C239  C     C_R   0.884154 0.749135 0.055374 -0.102618
C240  C     C_R   0.807292 0.676896 0.040501 -0.055751
H104  H     H_    0.661827 0.765806 0.043023 0.119829
H105  H     H_    0.797929 0.893017 0.069382 0.129452
H106  H     H_    0.940353 0.882994 0.077211 0.105792
H107  H     H_    0.946367 0.744848 0.058767 0.135197
H108  H     H_    0.810773 0.617151 0.032349 0.111225
Br1   Br    Br    0.098730 0.440258 0.875340 -0.420292
Br2   Br    Br    0.711809 0.224662 0.592059 -0.414502
Br3   Br    Br    0.467598 0.274191 0.905035 -0.433005
Br4   Br    Br    0.770533 0.484422 0.592370 -0.412824
Br5   Br    Br    0.718663 0.186176 0.905902 -0.426903
Br6   Br    Br    0.513977 0.631591 0.626021 -0.453421
Br7   Br    Br    0.484281 0.770258 0.407634 -0.412851
Br8   Br    Br    0.217410 0.523660 0.088531 -0.477342
Br9   Br    Br    0.631386 0.513534 0.373900 -0.450466
Br10  Br    Br    0.679554 0.064341 0.124456 -0.432850
Br11  Br    Br    0.224441 0.711539 0.407904 -0.414343
Br12  Br    Br    0.396920 0.319360 0.127220 -0.418920

loop_
_geom_bond_atom_site_label_1
_geom_bond_atom_site_label_2
_ccdc_geom_bond_type
C132  C144  A    
C154  H17   S    
C225  H95   S    
C44   H1    S    
C163  C175  S    
C93   C141  A    
C197  C198  A    
C6    O4    A    
C45   C57   A    
C38   H7    S    
C12   O24   A    
C187  C192  A    
C47   C76   A    
C118  O48   D    
C201  H75   S    
C149  H22   S    
C33   C78   A    
C21   C33   A    
C60   C72   A    
Cr5   O11   S    
C168  C181  S    
C22   H46   S    
C3    O1    A    
C184  C185  A    
C198  H73   S    
C86   C134  A    
C100  O30   D    
C176  H54   S    
C45   C78   A    
C19   H43   S    
C103  O33   D    
C97   O27   D    
C116  N8    Am   
C107  N11   Am   
C19   C31   A    
C228  H98   S    
C149  C154  A    
C28   C83   A    
C40   C83   A    
Cr2   O14   S    
C152  H13   S    
C151  H14   S    
C194  C195  A    
C111  N3    Am   
C199  C200  A    
C205  C210  A    
C58   C70   A    
C119  O49   D    
Cr3   O3    S    
C132  C168  A    
C97   N1    Am   
C4    C78   S    
C234  H103  S    
C25   H25   S    
C96   C144  A    
C162  C165  A    
C15   C27   A    
C209  C210  A    
C200  H74   S    
C206  C207  A    
C122  C158  A    
C14   C26   A    
C145  H20   S    
C5    O3    A    
C231  H100  S    
C9    C83   S    
C164  C169  S    
C175  C176  A    
Cr1   O4    S    
C10   O22   A    
C177  C178  A    
C32   H32   S    
C226  C227  A    
C3    C77   S    
C50   Br7   S    
C131  C143  A    
C179  C180  A    
Cr6   O12   S    
C189  H65   S    
C203  H77   S    
Cr4   O22   S    
C89   C101  A    
C46   H5    S    
C20   C68   A    
C18   H42   S    
C173  H52   S    
C91   C103  A    
C138  C141  A    
C46   C77   A    
C219  C220  A    
C112  C124  A    
C129  C165  A    
Cr3   O15   S    
C101  N5    Am   
C93   C153  A    
C28   H28   S    
C221  H92   S    
C214  C215  A    
C109  C121  A    
C96   C156  A    
C123  C159  A    
C41   C82   A    
C124  C160  A    
C52   Br11  S    
C218  H89   S    
C85   C97   A    
C182  H59   S    
C92   C104  A    
C47   C59   A    
C29   C82   A    
C67   N7    S    
C190  C191  A    
C38   C79   A    
C123  C135  A    
C147  H24   S    
C238  C239  A    
C56   Br1   S    
C110  C122  A    
C179  H57   S    
C39   C51   A    
C137  C142  A    
C11   O9    A    
C212  H84   S    
C205  C206  A    
C90   C150  A    
C9    O7    A    
C63   N3    S    
C219  H90   S    
C210  H83   S    
C24   C36   A    
C180  H58   S    
C27   C84   A    
C85   C145  A    
C39   C84   A    
C31   H31   S    
C136  C143  A    
Cr6   O26   S    
C114  C126  A    
C26   H26   S    
C113  N5    Am   
C211  C212  A    
C233  C234  A    
C14   C62   A    
C222  H93   S    
C213  C214  A    
C65   N5    S    
C181  C186  A    
C204  H78   S    
C218  C219  A    
C90   C102  A    
C119  N11   Am   
C227  C228  A    
C12   O10   A    
C98   N2    Am   
C119  C131  A    
C41   H10   S    
C148  C155  A    
C62   N2    S    
C53   C65   A    
C195  H70   S    
C109  N1    Am   
C156  H15   S    
C131  C167  A    
C110  O40   D    
C46   C58   A    
C4    O2    A    
C9    O21   A    
C42   C81   A    
C90   C138  A    
C68   N8    S    
C22   C34   A    
C37   C80   A    
C108  N12   Am   
C35   C76   A    
C94   C142  A    
C116  O46   D    
C196  C197  A    
C1    O13   A    
C134  C139  A    
C31   C74   A    
C56   C68   A    
C186  H63   S    
C21   C69   A    
C213  H85   S    
C100  N4    Am   
C36   C75   A    
C229  C234  A    
C98   O28   D    
C193  C198  A    
C102  N6    Am   
C173  C174  A    
C16   H40   S    
C157  C164  A    
C41   C53   A    
C239  C240  A    
C216  H88   S    
C158  C163  A    
C214  H86   S    
C43   C55   A    
C7    C81   S    
C17   H41   S    
C194  H69   S    
C199  C204  A    
C60   Br3   S    
C24   C72   A    
C170  H49   S    
C20   C32   A    
C58   Br5   S    
C237  H105  S    
C33   H33   S    
C59   Br4   S    
Cr1   O1    S    
C240  H108  S    
C27   H27   S    
C3    O15   A    
C196  H71   S    
Cr6   O24   S    
C158  C205  S    
C54   C66   A    
C18   C66   A    
C7    O11   A    
Cr3   O25   S    
C128  C140  A    
C223  C228  A    
C215  H87   S    
C177  H55   S    
C71   N11   S    
C96   C108  A    
C130  C142  A    
C150  H21   S    
C145  C152  A    
C114  N6    Am   
C146  C151  A    
C203  C204  A    
Cr4   O10   S    
C208  C209  A    
C21   H45   S    
C66   N6    S    
C106  N10   Am   
C171  H50   S    
C22   C70   A    
C103  N7    Am   
Cr2   O5    S    
C95   C143  A    
C25   C80   A    
C17   C29   A    
C13   H37   S    
C185  C186  A    
C110  N2    Am   
C207  C208  A    
C1    O5    A    
C87   C147  A    
C53   Br10  S    
C8    C82   S    
C47   H4    S    
C69   N9    S    
C34   C77   A    
C148  H23   S    
C129  C141  A    
Cr3   O6    S    
C190  H66   S    
C176  C177  A    
C238  H106  S    
C2    O14   A    
C215  C216  A    
C45   H6    S    
C39   H12   S    
Cr5   O8    S    
C94   C106  A    
C23   H47   S    
C55   Br2   S    
C150  C153  A    
C212  C213  A    
C19   C67   A    
Cr2   O25   S    
C15   H39   S    
C211  C216  A    
C89   C149  A    
C191  C192  A    
C8    O12   A    
C86   C146  A    
C6    C74   S    
C184  H61   S    
C105  O35   D    
C233  H102  S    
C172  C173  A    
Cr4   O19   S    
C49   C61   A    
C124  C136  A    
C107  O37   D    
C181  C182  A    
C87   C135  A    
C108  O38   D    
C51   C63   A    
C230  C231  A    
C88   C136  A    
C52   C64   A    
C220  H91   S    
C34   H34   S    
C227  H97   S    
C200  C201  A    
C111  C123  A    
Cr3   O18   S    
C117  N9    Am   
Cr1   O16   S    
C178  C179  A    
C165  C199  S    
C169  C170  A    
C118  C130  A    
C155  H16   S    
C23   C71   A    
C17   C65   A    
C37   C49   A    
C43   H2    S    
C44   C56   A    
C104  N8    Am   
C171  C172  A    
Cr5   O20   S    
C172  H51   S    
C146  H19   S    
C147  C156  A    
C99   N3    Am   
C95   C107  A    
C91   C139  A    
C23   C35   A    
C235  C240  A    
C92   C140  A    
C113  O43   D    
C2    C76   S    
C224  C225  A    
C115  O45   D    
C101  O31   D    
C188  H64   S    
C127  C163  A    
C201  C202  A    
C20   H44   S    
C232  H101  S    
C125  C161  A    
C112  O42   D    
C230  H99   S    
C229  C230  A    
C24   H48   S    
C26   C79   A    
C14   H38   S    
C125  C137  A    
C30   C81   A    
C225  C226  A    
C239  H107  S    
C42   C54   A    
C54   Br9   S    
C2    O6    A    
Cr2   O2    S    
C197  H72   S    
C37   H8    S    
C117  O47   D    
C44   C73   A    
C86   C98   A    
C70   N10   S    
C157  C211  S    
C188  C189  A    
C120  O50   D    
C237  C238  A    
C133  C140  A    
C167  C187  S    
C235  C236  A    
C57   Br6   S    
C231  C232  A    
C109  O39   D    
C85   C133  A    
C16   C28   A    
C202  C203  A    
C29   H29   S    
C193  C194  A    
C5    O17   A    
C10   O8    A    
C128  C164  A    
C195  C196  A    
C223  C224  A    
C64   N4    S    
C183  C184  A    
Cr5   O23   S    
C105  N9    Am   
C170  C171  A    
C113  C125  A    
C208  H81   S    
C115  C127  A    
C159  C168  A    
C160  C229  S    
C192  H68   S    
C160  C167  A    
C8    O20   A    
C159  C235  S    
C130  C166  A    
C120  N12   Am   
C122  C134  A    
C118  N10   Am   
C166  C193  S    
C92   C152  A    
C236  C237  A    
C18   C30   A    
C111  O41   D    
Cr4   O26   S    
C161  C166  A    
C93   C105  A    
C43   C74   A    
C209  H82   S    
C121  C157  A    
C185  H62   S    
C7    O19   A    
C5    C73   S    
C48   C75   A    
C13   C25   A    
C127  C139  A    
C48   H3    S    
C48   C60   A    
C87   C99   A    
C88   C148  A    
C175  C180  A    
C112  N4    Am   
C174  H53   S    
C1    C75   S    
Cr5   O26   S    
C226  H96   S    
C32   C73   A    
C40   H11   S    
C40   C52   A    
C169  C174  A    
C217  C222  A    
C61   N1    S    
C187  C188  A    
C191  H67   S    
C94   C154  A    
C162  C217  S    
C99   O29   D    
C88   C100  A    
C236  H104  S    
Cr1   O13   S    
C202  H76   S    
C221  C222  A    
C11   C79   S    
Cr6   O9    S    
C135  C144  A    
C51   Br12  S    
Cr4   O7    S    
C106  O36   D    
C11   O23   A    
C116  C128  A    
C50   C62   A    
C182  C183  A    
C117  C129  A    
C220  C221  A    
C178  H56   S    
C126  C138  A    
C104  O34   D    
C120  C132  A    
C161  C223  S    
C207  H80   S    
C55   C67   A    
C38   C50   A    
C42   H9    S    
C30   H30   S    
C89   C137  A    
C6    O18   A    
C57   C69   A    
C189  C190  A    
C35   H35   S    
C4    O16   A    
C126  C162  A    
C217  C218  A    
C183  H60   S    
C91   C151  A    
C12   C80   S    
C10   C84   S    
C72   N12   S    
Cr2   O17   S    
C95   C155  A    
C115  N7    Am   
C114  O44   D    
C224  H94   S    
Cr6   O21   S    
C13   C61   A    
C49   Br8   S    
C102  O32   D    
C36   H36   S    
Cr1   O25   S    
C15   C63   A    
C232  C233  A    
C16   C64   A    
C121  C133  A    
C206  H79   S    
C59   C71   A    
C153  H18   S    
