data_mof_unit_28447.cif
_audit_creation_date              2012-12-10T17:48:46-0500
_audit_creation_method            fapswitch 2.2
_symmetry_space_group_name_H-M    P1
_symmetry_Int_Tables_number       1
_space_group_crystal_system       triclinic
_cell_length_a                    15.711062
_cell_length_b                    10.679724
_cell_length_c                    10.001272
_cell_angle_alpha                 89.356516
_cell_angle_beta                  90.310899
_cell_angle_gamma                 92.272647
_cell_volume                      1676.66497025

loop_
_atom_site_label
_atom_site_type_symbol
_atom_type_description
_atom_site_fract_x
_atom_site_fract_y
_atom_site_fract_z
_atom_type_partial_charge
C1    C     C_R   0.501676 0.261067 0.500443 0.870415
C2    C     C_R   0.713768 0.074553 0.669410 -0.036278
C3    C     C_R   0.714682 0.943898 0.661618 -0.227890
C4    C     C_R   0.338612 0.497448 0.499734 0.953928
C5    C     C_R   0.646466 0.876355 0.604267 -0.141049
C6    C     C_R   0.574694 0.937702 0.553517 0.095967
C7    C     C_R   0.574259 0.068530 0.556161 0.066721
C8    C     C_R   0.503396 0.128211 0.500826 -0.127417
C9    C     C_R   0.433779 0.061075 0.443633 -0.076585
C10   C     C_R   0.434415 0.931640 0.440577 -0.073193
C11   C     C_R   0.503905 0.871532 0.497540 -0.186190
C12   C     C_3   0.946637 0.360776 0.452512 -0.155158
C13   C     C_R   0.371265 0.372158 0.144871 -0.110077
C14   C     C_R   0.293517 0.342728 0.086077 -0.180926
C15   C     C_R   0.285739 0.352152 0.949282 -0.214366
C16   C     C_R   0.501432 0.738893 0.499259 0.901387
C17   C     C_R   0.358420 0.377425 0.871530 0.024354
C18   C     C_R   0.433363 0.437384 0.929837 0.112993
C19   C     C_R   0.435848 0.436637 0.073779 0.127913
C20   C     C_R   0.560916 0.563727 0.070197 0.028902
C21   C     C_R   0.561536 0.561719 0.927780 -0.122519
C22   C     C_R   0.661424 0.500440 0.500216 0.865445
C23   C     C_3   0.917282 0.491988 0.497844 0.232916
C24   C     C_3   0.045424 0.361324 0.449158 -0.446850
C25   C     C_3   0.052297 0.593784 0.402286 -0.365942
C26   C     C_3   0.954312 0.597606 0.404964 -0.377409
C27   C     C_1   0.750374 0.498374 0.500539 -0.100449
C28   C     C_3   0.082684 0.489313 0.497720 0.312052
C29   C     C_2   0.907951 0.318174 0.320572 0.921108
C30   C     C_1   0.357163 0.122803 0.401208 0.218054
C31   C     C_2   0.785087 0.148191 0.733665 0.932238
C32   C     C_2   0.360018 0.859506 0.384050 0.939308
C33   C     C_1   0.625327 0.638985 0.137760 0.248555
C34   C     C_3   0.952312 0.516034 0.640889 -0.397807
C35   C     C_1   0.356999 0.293364 0.761174 0.267436
C36   C     C_3   0.050452 0.513603 0.640819 -0.390012
C37   C     C_1   0.825709 0.495658 0.499708 -0.050681
C38   C     C_1   0.174163 0.489526 0.498242 -0.103040
C39   C     C_1   0.249593 0.492237 0.498988 -0.139629
C40   C     C_R   0.644650 0.136238 0.613174 -0.171436
H1    H     H_    0.068210 0.284729 0.515075 0.175015
H2    H     H_    0.226957 0.315247 0.904406 0.157988
H3    H     H_    0.611425 0.612963 0.873448 0.146124
H4    H     H_    0.080559 0.686433 0.432836 0.175050
H5    H     H_    0.073694 0.576393 0.298420 0.198597
H6    H     H_    0.928053 0.589150 0.302009 0.220757
H7    H     H_    0.935725 0.690498 0.442158 0.174448
H8    H     H_    0.071602 0.438926 0.710633 0.183302
H9    H     H_    0.077715 0.604699 0.677768 0.189892
H10   H     H_    0.926201 0.443500 0.711920 0.226296
H11   H     H_    0.901970 0.340076 0.120132 0.363248
H12   H     H_    0.925241 0.290778 0.529984 0.172344
H13   H     H_    0.818359 0.010393 0.863721 0.304442
H14   H     H_    0.257907 0.744753 0.418976 0.332535
H15   H     H_    0.932343 0.608570 0.677126 0.179416
H16   H     H_    0.646256 0.237393 0.615739 0.170470
H17   H     H_    0.768645 0.893044 0.697332 0.137788
H18   H     H_    0.651150 0.775757 0.599297 0.133777
H19   H     H_    0.069309 0.342908 0.346860 0.200681
H20   H     H_    0.380161 0.342979 0.245500 0.208486
H21   H     H_    0.241316 0.303102 0.145065 0.178072
N1    N     N_R   0.499210 0.498800 0.142780 -0.138731
N2    N     N_R   0.499180 0.498720 0.857170 -0.121890
N3    N     N_1   0.294975 0.169770 0.369474 -0.231560
N4    N     N_1   0.677211 0.700113 0.191445 -0.202223
N5    N     N_1   0.349297 0.220701 0.676844 -0.221247
O1    O     O_R   0.500000 0.316780 0.614690 -0.623708
O2    O     O_R   0.932384 0.377677 0.200770 -0.816482
O3    O     O_2   0.796888 0.258689 0.704170 -0.628442
O4    O     O_R   0.838772 0.095772 0.829482 -0.766371
O5    O     O_2   0.342079 0.870685 0.265497 -0.605691
O6    O     O_R   0.309177 0.782940 0.467739 -0.814349
O7    O     O_R   0.499990 0.316750 0.385360 -0.634695
O8    O     O_R   0.377150 0.500020 0.614720 -0.611367
O9    O     O_R   0.377140 0.499990 0.385380 -0.635288
O10   O     O_R   0.500010 0.683250 0.614640 -0.601919
O11   O     O_R   0.500000 0.683220 0.385310 -0.608375
O12   O     O_R   0.622860 0.500010 0.614620 -0.626078
O13   O     O_R   0.622850 0.499980 0.385280 -0.605199
O14   O     O_2   0.855719 0.230175 0.319157 -0.607975
Zn1   Zn    Zn3+2 0.500010 0.500020 0.653130 0.971944
Zn2   Zn    Zn3+2 0.499990 0.499980 0.346870 0.976130

loop_
_geom_bond_atom_site_label_1
_geom_bond_atom_site_label_2
_ccdc_geom_bond_type
C30   N3    T    
C12   C29   S    
C1    C8    S    
C33   N4    T    
C7    C8    A    
C32   O6    S    
C13   H20   S    
C25   C28   S    
C12   C23   S    
C5    H18   S    
N2    Zn1   S    
C22   O13   A    
C16   O11   A    
C38   C39   T    
C18   N2    A    
C19   N1    A    
C18   C19   A    
C23   C26   S    
C4    O9    A    
C21   H3    S    
C31   O4    S    
C8    C9    A    
C40   H16   S    
C7    C40   A    
C9    C10   A    
C4    O8    A    
N1    Zn2   S    
C34   H15   S    
C13   C14   A    
C24   H1    S    
H13   O4    S    
C25   H4    S    
C12   H12   S    
C32   O5    D    
C34   H10   S    
C13   C19   A    
C22   O12   A    
C6    C11   A    
C35   N5    T    
C25   C26   S    
C23   C37   S    
C14   H21   S    
C2    C31   S    
C10   C32   S    
C29   O2    S    
C11   C16   S    
C4    C39   S    
C28   C38   S    
C23   C34   S    
C17   C18   A    
C9    C30   S    
C20   C33   S    
C3    H17   S    
O1    Zn1   S    
C22   C27   S    
O8    Zn1   S    
C25   H5    S    
O7    Zn2   S    
C15   C17   A    
C26   H7    S    
C16   O10   A    
C24   C28   S    
C15   H2    S    
C3    C5    A    
O10   Zn1   S    
O13   Zn2   S    
O9    Zn2   S    
C6    C7    A    
C12   C24   S    
C1    O7    A    
C2    C3    A    
O12   Zn1   S    
C5    C6    A    
C29   O14   D    
O11   Zn2   S    
C27   C37   T    
C24   H19   S    
C1    O1    A    
C36   H8    S    
C34   C36   S    
H11   O2    S    
C20   N1    A    
C21   N2    A    
C10   C11   A    
C26   H6    S    
C2    C40   A    
C31   O3    D    
H14   O6    S    
C20   C21   A    
C28   C36   S    
C14   C15   A    
C17   C35   S    
C36   H9    S    
