data_mof_unit_15905.cif
_audit_creation_date              2012-12-10T18:33:41-0500
_audit_creation_method            fapswitch 2.2
_symmetry_space_group_name_H-M    P1
_symmetry_Int_Tables_number       1
_space_group_crystal_system       triclinic
_cell_length_a                    10.491478
_cell_length_b                    14.984954
_cell_length_c                    15.511439
_cell_angle_alpha                 81.740703
_cell_angle_beta                  89.524765
_cell_angle_gamma                 104.871802
_cell_volume                      2329.88496181

loop_
_atom_site_label
_atom_site_type_symbol
_atom_type_description
_atom_site_fract_x
_atom_site_fract_y
_atom_site_fract_z
_atom_type_partial_charge
C1    C     C_R   0.479654 0.441008 0.662423 0.868779
C2    C     C_R   0.515669 0.558848 0.337656 0.873696
C3    C     C_R   0.469763 0.470604 0.812256 -0.315346
C4    C     C_R   0.463874 0.529031 0.189362 -0.319279
C5    C     C_R   0.420469 0.447450 0.898435 0.091967
C6    C     C_R   0.452315 0.555402 0.100451 0.093114
C7    C     C_R   0.363592 0.352363 0.931515 0.143799
C8    C     C_R   0.493542 0.651481 0.065829 0.145207
C9    C     C_R   0.432785 0.516527 0.953395 0.078702
C10   C     C_R   0.410596 0.487847 0.044274 0.077140
C11   C     C_R   0.349351 0.392685 0.075603 -0.229613
C12   C     C_R   0.466571 0.613194 0.920519 -0.231564
C13   C     C_R   0.324317 0.326376 0.019510 -0.220083
C14   C     C_R   0.494398 0.679532 0.976279 -0.223739
C15   C     C_R   0.724142 0.848519 0.617486 0.111636
C16   C     C_R   0.277386 0.151530 0.381589 0.113896
C17   C     C_R   0.680767 0.757193 0.600840 -0.025401
C18   C     C_R   0.322756 0.243522 0.396105 -0.025356
C19   C     C_R   0.502741 0.791024 0.521348 -0.081846
C20   C     C_R   0.491761 0.207571 0.484037 -0.075732
C21   C     C_R   0.540500 0.885120 0.534661 -0.040316
C22   C     C_R   0.453605 0.113322 0.471381 -0.040224
C23   C     C_R   0.742671 0.501083 0.500170 0.853415
C24   C     C_R   0.257348 0.498928 0.499815 0.852476
C25   C     C_R   0.655485 0.914260 0.582287 0.101552
C26   C     C_R   0.341184 0.084729 0.421381 0.101816
C27   C     C_R   0.471234 0.951197 0.499213 0.103121
C28   C     C_R   0.521106 0.046904 0.508578 0.103660
C29   C     C_R   0.638136 0.073519 0.553477 -0.249677
C30   C     C_R   0.354011 0.924671 0.454438 -0.250428
C31   C     C_R   0.702562 0.008603 0.590252 -0.217447
C32   C     C_R   0.291940 0.990053 0.415390 -0.216541
C33   C     C_3   0.930450 0.430509 0.560014 -0.183016
C34   C     C_3   0.069642 0.569541 0.439941 -0.183289
C35   C     C_3   0.046343 0.511073 0.579310 -0.170059
C36   C     C_3   0.953744 0.488977 0.420645 -0.169220
C37   C     C_3   0.121570 0.497596 0.499461 0.031526
C38   C     C_3   0.878497 0.502448 0.500495 0.030834
C39   C     C_3   0.008359 0.417013 0.480158 -0.139672
C40   C     C_3   0.991725 0.583039 0.519796 -0.141871
C41   C     C_R   0.450338 0.404499 0.755630 -0.103806
C42   C     C_R   0.509420 0.594939 0.244822 -0.106897
C43   C     C_R   0.348635 0.284343 0.876387 -0.284110
C44   C     C_R   0.536270 0.718374 0.120942 -0.277396
C45   C     C_R   0.391164 0.309496 0.788236 0.220648
C46   C     C_R   0.543176 0.691124 0.210580 0.214836
H1    H     H_    0.088764 0.519648 0.643887 0.137180
H2    H     H_    0.911378 0.480388 0.356059 0.136518
H3    H     H_    0.569375 0.234584 0.525486 0.140754
H4    H     H_    0.420842 0.763099 0.483518 0.141264
H5    H     H_    0.273829 0.295562 0.368138 0.144186
H6    H     H_    0.733409 0.706117 0.625249 0.148374
H7    H     H_    0.685145 0.144824 0.560194 0.136921
H8    H     H_    0.306142 0.853321 0.448423 0.137585
H9    H     H_    0.868993 0.374216 0.609003 0.125729
H10   H     H_    0.131151 0.625820 0.390958 0.126418
H11   H     H_    0.019203 0.349422 0.464010 0.137771
H12   H     H_    0.980908 0.650639 0.535938 0.137722
H13   H     H_    0.277934 0.254075 0.045684 0.146375
H14   H     H_    0.521915 0.752973 0.948908 0.145089
H15   H     H_    0.443014 0.456121 0.215995 0.176034
H16   H     H_    0.525909 0.540904 0.788118 0.174531
H17   H     H_    0.304603 0.211472 0.901838 0.136066
H18   H     H_    0.565798 0.792038 0.094345 0.137730
H19   H     H_    0.316539 0.367912 0.142950 0.148901
H20   H     H_    0.469430 0.639473 0.851793 0.151147
H21   H     H_    0.792649 0.034377 0.622526 0.149830
H22   H     H_    0.202527 0.964612 0.382305 0.150389
N1    N     N_R   0.574200 0.731700 0.552740 -0.115007
N2    N     N_R   0.425800 0.268300 0.447260 -0.114996
O1    O     O_R   0.462600 0.383110 0.605620 -0.578896
O2    O     O_R   0.537400 0.616890 0.394380 -0.576267
O3    O     O_R   0.510210 0.531900 0.639510 -0.624039
O4    O     O_R   0.489790 0.468100 0.360490 -0.625573
O5    O     O_R   0.662240 0.425610 0.483080 -0.622183
O6    O     O_R   0.337760 0.574390 0.516920 -0.624705
O7    O     O_R   0.709860 0.574400 0.516970 -0.629238
O8    O     O_R   0.290140 0.425600 0.483030 -0.628193
Zn1   Zn    Zn3+2 0.468210 0.400660 0.477370 0.941132
Zn2   Zn    Zn3+2 0.531790 0.599340 0.522630 0.940295
N3    N     N_2   0.836203 0.871849 0.668985 -0.318538
H23   H     H_    0.831735 0.917470 0.712000 0.221115
C47   C     C_3   0.961908 0.892994 0.621160 -0.794437
H24   H     H_    0.043029 0.904459 0.667138 0.242838
H25   H     H_    0.974672 0.957309 0.572797 0.237699
H26   H     H_    0.968532 0.833896 0.587014 0.242817
N4    N     N_2   0.168999 0.128768 0.326965 -0.321414
H27   H     H_    0.174139 0.080776 0.286560 0.221026
C48   C     C_3   0.040728 0.112398 0.370300 -0.798064
H28   H     H_    0.963083 0.101019 0.321868 0.242623
H29   H     H_    0.034592 0.173810 0.401091 0.243188
H30   H     H_    0.022088 0.049434 0.420874 0.238584
N5    N     N_2   0.587337 0.760804 0.264689 -0.282025
H31   H     H_    0.671041 0.811019 0.239061 0.216512
C49   C     C_3   0.485273 0.802203 0.290139 -0.764334
H32   H     H_    0.449180 0.839118 0.231877 0.224555
H33   H     H_    0.526097 0.853704 0.334130 0.239580
H34   H     H_    0.401276 0.747595 0.325132 0.239103
N6    N     N_2   0.373237 0.239098 0.733604 -0.280989
H35   H     H_    0.287671 0.186393 0.748930 0.216502
C50   C     C_3   0.487037 0.202581 0.725502 -0.767832
H36   H     H_    0.508133 0.167653 0.789970 0.226904
H37   H     H_    0.575096 0.259530 0.699496 0.239109
H38   H     H_    0.466892 0.150529 0.679800 0.236745

loop_
_geom_bond_atom_site_label_1
_geom_bond_atom_site_label_2
_ccdc_geom_bond_type
C18   N2    A    
C38   C40   S    
N4    H27   S    
C17   N1    A    
N5    H31   S    
C34   C37   S    
C49   H32   S    
C35   H1    S    
O1    Zn1   S    
N3    H23   S    
C49   H34   S    
C43   H17   S    
C15   N3    S    
C44   H18   S    
C31   H21   S    
C30   H8    S    
C33   C39   S    
C4    C42   A    
C34   C40   S    
C28   C29   A    
C35   C37   S    
O7    Zn2   S    
C39   H11   S    
C42   C46   A    
N6    H35   S    
C16   N4    S    
C7    C43   A    
C48   H29   S    
C9    C10   A    
C2    O4    A    
C34   H10   S    
C32   H22   S    
C21   C27   A    
C50   H37   S    
C22   C28   A    
C27   C30   A    
C20   N2    A    
C2    O2    A    
C17   H6    S    
N3    C47   S    
C44   C46   A    
C18   H5    S    
C16   C26   A    
C40   H12   S    
C50   H36   S    
C8    C44   A    
C4    C6    A    
C45   N6    S    
C23   O5    A    
C5    C7    A    
O8    Zn1   S    
C24   O6    A    
C6    C8    A    
C12   H20   S    
C4    H15   S    
C5    C9    A    
C20   H3    S    
C47   H24   S    
C29   C31   A    
C24   C37   S    
C33   H9    S    
C16   C18   A    
C1    O1    A    
C23   O7    A    
C48   H30   S    
C43   C45   A    
C13   H13   S    
C24   O8    A    
C47   H25   S    
C12   C14   A    
C50   H38   S    
O4    Zn1   S    
N4    C48   S    
C19   N1    A    
C3    H16   S    
C1    C41   S    
C15   C17   A    
C21   C25   A    
C3    C41   A    
C8    C14   A    
N6    C50   S    
N2    Zn1   S    
C25   C31   A    
C36   C39   S    
O6    Zn2   S    
C20   C22   A    
C3    C5    A    
C6    C10   A    
C49   H33   S    
C26   C32   A    
C23   C38   S    
C14   H14   S    
C33   C38   S    
C1    O3    A    
C36   C38   S    
C35   C40   S    
C37   C39   S    
C30   C32   A    
C11   C13   A    
C19   H4    S    
N5    C49   S    
C46   N5    S    
C29   H7    S    
C2    C42   S    
C33   C35   S    
O3    Zn2   S    
C36   H2    S    
C34   C36   S    
C9    C12   A    
C15   C25   A    
C10   C11   A    
C7    C13   A    
C47   H26   S    
O2    Zn2   S    
C22   C26   A    
C27   C28   A    
C41   C45   A    
N1    Zn2   S    
C48   H28   S    
O5    Zn1   S    
C11   H19   S    
C19   C21   A    
