data_mof_unit_18492.cif
_audit_creation_date              2012-12-10T17:32:20-0500
_audit_creation_method            fapswitch 2.2
_symmetry_space_group_name_H-M    P1
_symmetry_Int_Tables_number       1
_space_group_crystal_system       triclinic
_cell_length_a                    12.314301
_cell_length_b                    13.183992
_cell_length_c                    15.04832
_cell_angle_alpha                 77.961818
_cell_angle_beta                  101.477001
_cell_angle_gamma                 116.329082
_cell_volume                      2125.66360373

loop_
_atom_site_label
_atom_site_type_symbol
_atom_type_description
_atom_site_fract_x
_atom_site_fract_y
_atom_site_fract_z
_atom_type_partial_charge
C1    C     C_R   0.854249 0.286176 0.510000 0.832368
C2    C     C_R   0.889788 0.452679 0.803567 -0.262232
C3    C     C_R   0.000419 0.502315 0.766743 -0.058407
C4    C     C_R   0.000183 0.500730 0.670773 0.790349
C5    C     C_R   0.111042 0.553054 0.821521 -0.248136
C6    C     C_R   0.270629 0.017330 0.376478 -0.152657
C7    C     C_R   0.225842 0.833564 0.468229 -0.036043
C8    C     C_R   0.810506 0.083958 0.576754 0.449715
C9    C     C_R   0.731002 0.968814 0.589969 -0.212926
C10   C     C_R   0.608956 0.932286 0.555021 -0.253670
C11   C     C_R   0.562621 0.009992 0.502640 0.073421
C12   C     C_R   0.110905 0.557951 0.099992 0.015709
C13   C     C_R   0.646009 0.124208 0.477469 -0.016659
C14   C     C_R   0.436088 0.976462 0.472448 0.026964
C15   C     C_R   0.395541 0.051817 0.408250 0.060904
C16   C     C_R   0.144684 0.713102 0.486916 0.790249
C17   C     C_R   0.479910 0.159817 0.375745 0.375743
C18   C     C_R   0.602903 0.194862 0.410168 -0.214975
C19   C     C_R   0.348134 0.869497 0.504474 -0.233451
C20   C     C_R   0.186447 0.908374 0.405657 -0.220559
C21   C     C_R   0.770290 0.163123 0.518767 -0.161614
C22   C     C_R   0.350142 0.331945 0.647069 -0.300502
C23   C     C_R   0.778917 0.391911 0.027315 -0.184890
C24   C     C_R   0.757851 0.644249 0.375875 0.070542
C25   C     C_R   0.661063 0.676097 0.349829 -0.245918
C26   C     C_R   0.559013 0.622663 0.397133 -0.202016
C27   C     C_R   0.552058 0.535860 0.471451 -0.019509
C28   C     C_R   0.000181 0.499472 0.329020 0.885402
C29   C     C_R   0.654070 0.506562 0.496054 0.274969
C30   C     C_R   0.447888 0.476477 0.521740 -0.049040
C31   C     C_R   0.449176 0.390747 0.595971 0.175497
C32   C     C_R   0.549264 0.363995 0.619070 -0.298466
C33   C     C_R   0.648907 0.420259 0.570276 -0.198907
C34   C     C_R   0.779178 0.396626 0.934237 -0.209378
C35   C     C_R   0.341397 0.497392 0.501866 0.020423
C36   C     C_R   0.249346 0.357602 0.624641 0.099924
C37   C     C_R   0.109972 0.560039 0.192695 0.351901
C38   C     C_R   0.000291 0.497993 0.232129 -0.191695
C39   C     C_R   0.890682 0.436592 0.178864 -0.102437
C40   C     C_R   0.888583 0.444606 0.084001 0.039663
C41   C     C_R   0.999671 0.503027 0.045230 -0.014516
C42   C     C_3   0.232700 0.731721 0.241454 0.036687
C43   C     C_3   0.358953 0.801146 0.287612 -0.763522
C44   C     C_3   0.449963 0.323404 0.336253 0.036914
C45   C     C_R   0.889003 0.451192 0.896197 0.115362
C46   C     C_3   0.373578 0.375605 0.267651 -0.735167
C47   C     C_3   0.931754 0.127116 0.712453 0.040824
C48   C     C_3   0.019008 0.080497 0.772467 -0.791167
C49   C     C_2   0.783621 0.352205 0.224156 0.363307
C50   C     C_R   0.000002 0.503755 0.951703 0.097941
C51   C     C_R   0.111443 0.555661 0.913780 0.114608
C52   C     C_R   0.221226 0.608467 0.968722 -0.235229
C53   C     C_R   0.220992 0.610296 0.060886 -0.180868
Cu1   Cu    Cu3+1 0.098270 0.475420 0.521130 0.973453
Cu2   Cu    Cu3+1 0.901730 0.524580 0.478870 0.919726
H1    H     H_    0.237844 0.073415 0.327416 0.182679
H2    H     H_    0.836717 0.686441 0.338853 0.122635
H3    H     H_    0.486717 0.650291 0.373834 0.157778
H4    H     H_    0.665098 0.742462 0.292693 0.148186
H5    H     H_    0.719959 0.392645 0.593704 0.202635
H6    H     H_    0.691909 0.347158 0.054054 0.138379
H7    H     H_    0.693490 0.355835 0.892225 0.140134
H8    H     H_    0.804784 0.412552 0.760586 0.135963
H9    H     H_    0.196242 0.591958 0.791835 0.145879
H10   H     H_    0.307319 0.648613 0.940351 0.144420
H11   H     H_    0.307519 0.651981 0.101547 0.181786
H12   H     H_    0.372147 0.811147 0.557093 0.144471
H13   H     H_    0.091622 0.881264 0.376696 0.151290
H14   H     H_    0.163373 0.734061 0.277522 0.134242
H15   H     H_    0.225200 0.773069 0.169257 0.142910
H16   H     H_    0.429956 0.799804 0.253070 0.235735
H17   H     H_    0.372588 0.891015 0.283241 0.223325
H18   H     H_    0.368589 0.764974 0.360718 0.243565
H19   H     H_    0.546083 0.388452 0.342328 0.159508
H20   H     H_    0.413984 0.300467 0.403580 0.156059
H21   H     H_    0.277239 0.311570 0.258761 0.248586
H22   H     H_    0.376238 0.450284 0.292570 0.222874
H23   H     H_    0.553800 0.841787 0.568530 0.152368
H24   H     H_    0.409791 0.404081 0.200502 0.241791
H25   H     H_    0.841467 0.080293 0.739522 0.121958
H26   H     H_    0.965320 0.218777 0.719449 0.153385
H27   H     H_    0.026865 0.093076 0.844568 0.203344
H28   H     H_    0.983980 0.987740 0.769080 0.246612
H29   H     H_    0.110869 0.125155 0.749089 0.241496
H30   H     H_    0.696881 0.358772 0.208029 0.073796
H31   H     H_    0.763600 0.907591 0.630895 0.164441
H32   H     H_    0.663103 0.276792 0.379356 0.207667
H33   H     H_    0.173319 0.313701 0.664259 0.143458
H34   H     H_    0.550714 0.298347 0.675746 0.146661
H35   H     H_    0.350898 0.266741 0.704250 0.134898
H36   H     H_    0.332054 0.560260 0.446161 0.150305
N1    N     N_R   0.246280 0.438190 0.553160 -0.186642
N2    N     N_R   0.754320 0.561190 0.447410 -0.209744
O1    O     O_R   0.972510 0.318130 0.526570 -0.528962
O2    O     O_3   0.442879 0.227160 0.304181 -0.593561
O3    O     O_3   0.928911 0.117648 0.619821 -0.563141
O4    O     O_2   0.791870 0.271652 0.277437 -0.555688
O5    O     O_R   0.806530 0.359650 0.490890 -0.631008
O6    O     O_R   0.082980 0.479210 0.647590 -0.596809
O7    O     O_R   0.917000 0.520730 0.611900 -0.592170
O8    O     O_R   0.193470 0.640350 0.509110 -0.594166
O9    O     O_R   0.027490 0.681870 0.473430 -0.586261
O10   O     O_R   0.083000 0.479270 0.388100 -0.537732
O11   O     O_R   0.917020 0.520790 0.352410 -0.618104
O12   O     O_3   0.217497 0.618115 0.246097 -0.589241

loop_
_geom_bond_atom_site_label_1
_geom_bond_atom_site_label_2
_ccdc_geom_bond_type
C43   H18   S    
C1    C21   S    
C43   H17   S    
C27   C29   A    
Cu1   O8    S    
C8    O3    S    
C42   H15   S    
Cu2   N2    S    
C46   H21   S    
C10   H23   S    
C36   H33   S    
C37   O12   S    
Cu2   O9    S    
C26   C27   A    
C37   C38   A    
C13   C18   A    
C46   H24   S    
C11   C14   A    
C23   C40   A    
C29   C33   A    
C34   H7    S    
C8    C9    A    
C12   C37   A    
C6    C15   A    
Cu1   Cu2   S    
C32   H34   S    
C24   H2    S    
Cu2   O7    S    
C47   O3    S    
C19   H12   S    
C17   O2    S    
C9    C10   A    
C12   C53   A    
C35   N1    A    
C36   N1    A    
C27   C30   A    
C47   H25   S    
C44   C46   S    
C50   C51   A    
C2    C45   A    
C22   C31   A    
C51   C52   A    
C49   H30   S    
Cu1   O10   S    
C24   C25   A    
C39   C40   A    
C1    O1    A    
C25   C26   A    
Cu2   O11   S    
C42   H14   S    
C48   H29   S    
C5    H9    S    
C44   H20   S    
Cu1   N1    S    
C12   C41   A    
C9    H31   S    
C28   O11   A    
C47   C48   S    
C28   C38   S    
C30   C31   A    
C23   C34   A    
C17   C18   A    
C22   H35   S    
C13   C21   A    
C34   C45   A    
C44   H19   S    
C53   H11   S    
C26   H3    S    
C30   C35   A    
C16   O9    A    
C7    C16   S    
C39   C49   S    
C33   H5    S    
C7    C19   A    
C4    O7    A    
Cu1   O6    S    
C42   C43   S    
C3    C4    S    
C41   C50   A    
C6    C20   A    
C52   C53   A    
C15   C17   A    
C2    H8    S    
C40   C41   A    
C43   H16   S    
C14   C19   A    
C20   H13   S    
C31   C32   A    
C6    H1    S    
C3    C5    A    
C8    C21   A    
C1    O5    A    
C46   H22   S    
C22   C36   A    
C18   H32   S    
C48   H28   S    
C32   C33   A    
C2    C3    A    
C44   O2    S    
C24   N2    A    
C29   N2    A    
C11   C13   A    
C28   O10   A    
C38   C39   A    
C45   C50   A    
Cu2   O5    S    
C48   H27   S    
C47   H26   S    
C42   O12   S    
Cu1   O1    S    
C10   C11   A    
C49   O4    D    
C16   O8    A    
C23   H6    S    
C7    C20   A    
C4    O6    A    
C14   C15   A    
C5    C51   A    
C25   H4    S    
C52   H10   S    
C35   H36   S    
