data_mof_unit_67202.cif
_audit_creation_date              2013-03-05T16:01:23-0500
_audit_creation_method            fapswitch 2.2
_symmetry_space_group_name_H-M    P1
_symmetry_Int_Tables_number       1
_space_group_crystal_system       triclinic
_cell_length_a                    20.256164
_cell_length_b                    20.679264
_cell_length_c                    8.62976
_cell_angle_alpha                 89.778304
_cell_angle_beta                  91.435942
_cell_angle_gamma                 89.975468
_cell_volume                      3613.69325104

loop_
_atom_site_label
_atom_site_type_symbol
_atom_site_description
_atom_site_fract_x
_atom_site_fract_y
_atom_site_fract_z
_atom_type_partial_charge
P1    P     P_3+3 0.136530 0.426510 0.931350 0.521152
P2    P     P_3+3 0.136530 0.573490 0.431350 0.519347
P3    P     P_3+3 0.636530 0.926510 0.931350 0.520255
P4    P     P_3+3 0.636530 0.073490 0.431350 0.520816
O1    O     O_2   0.130070 0.404060 0.104920 -0.324459
O2    O     O_2   0.130070 0.595940 0.604920 -0.325618
O3    O     O_2   0.630070 0.904060 0.104920 -0.320463
O4    O     O_2   0.630070 0.095940 0.604920 -0.323895
O5    O     O_3   0.075780 0.466370 0.861070 -0.362146
O6    O     O_3   0.075780 0.533630 0.361070 -0.363685
O7    O     O_3   0.575780 0.966370 0.861070 -0.361975
O8    O     O_3   0.575780 0.033630 0.361070 -0.364259
O9    O     O_3   0.022320 0.344950 0.359800 -0.274891
O10   O     O_3   0.022320 0.655050 0.859800 -0.284321
O11   O     O_3   0.522320 0.844950 0.359800 -0.271983
O12   O     O_3   0.522320 0.155050 0.859800 -0.273924
O13   O     O_2   0.136362 0.299136 0.264061 -0.313783
O14   O     O_2   0.136437 0.700465 0.766934 -0.308595
O15   O     O_2   0.636867 0.799020 0.265967 -0.307512
O16   O     O_2   0.636784 0.200351 0.762679 -0.308966
O17   O     O_3   0.210267 0.470002 0.930419 -0.597610
O18   O     O_3   0.210580 0.530447 0.431457 -0.596532
O19   O     O_3   0.711146 0.968796 0.927929 -0.610152
O20   O     O_3   0.711015 0.030423 0.438578 -0.591551
O21   O     O_3   0.059258 0.208435 0.353901 -0.616012
O22   O     O_3   0.060832 0.793549 0.847878 -0.606160
O23   O     O_3   0.558619 0.708662 0.349103 -0.609875
O24   O     O_3   0.559574 0.290952 0.846783 -0.606939
C1    C     C_3   0.017275 0.108549 0.439821 -0.158330
C2    C     C_3   0.014109 0.894625 0.903942 -0.080075
C3    C     C_3   0.513664 0.608941 0.424451 -0.171932
C4    C     C_3   0.514493 0.390677 0.919611 -0.168545
H1    H     H_    0.050029 0.093989 0.345791 0.188963
H2    H     H_    0.039029 0.907983 0.795939 0.162222
H3    H     H_    0.545606 0.594725 0.327776 0.174855
H4    H     H_    0.546240 0.405032 0.822393 0.171958
P5    P     P_3+3 0.863410 0.426100 0.379280 0.518101
P6    P     P_3+3 0.863410 0.573900 0.879280 0.519306
P7    P     P_3+3 0.363410 0.926100 0.379280 0.513414
P8    P     P_3+3 0.363410 0.073900 0.879280 0.514105
P9    P     P_3+3 0.912696 0.288818 0.921033 0.616328
P10   P     P_3+3 0.914004 0.711812 0.416576 0.613505
P11   P     P_3+3 0.410537 0.790750 0.919325 0.603357
P12   P     P_3+3 0.410884 0.209415 0.418456 0.603922
O25   O     O_2   0.869860 0.403670 0.205810 -0.283100
O26   O     O_2   0.869860 0.596330 0.705810 -0.283700
O27   O     O_2   0.369860 0.903670 0.205810 -0.288569
O28   O     O_2   0.369860 0.096330 0.705810 -0.289575
O29   O     O_3   0.977590 0.344880 0.951200 -0.418628
O30   O     O_3   0.977590 0.655120 0.451200 -0.427882
O31   O     O_3   0.477590 0.844880 0.951200 -0.410555
O32   O     O_3   0.477590 0.155120 0.451200 -0.410141
O33   O     O_2   0.861786 0.300981 0.048166 -0.268910
O34   O     O_2   0.865185 0.705733 0.550805 -0.259844
O35   O     O_2   0.358922 0.804997 0.043319 -0.267520
O36   O     O_2   0.359214 0.195508 0.542836 -0.269223
O37   O     O_3   0.794097 0.476560 0.372612 -0.578548
O38   O     O_3   0.794361 0.523220 0.872738 -0.575260
O39   O     O_3   0.293208 0.974986 0.368931 -0.578375
O40   O     O_3   0.293374 0.024918 0.869276 -0.580040
O41   O     O_3   0.942066 0.210934 0.966231 -0.435160
O42   O     O_3   0.947216 0.789665 0.437827 -0.433808
O43   O     O_3   0.432893 0.711101 0.965687 -0.451900
O44   O     O_3   0.434068 0.288956 0.462678 -0.451118
C5    C     C_3   0.011739 0.211296 0.976063 0.247411
C6    C     C_3   0.016357 0.786280 0.459499 0.245268
C7    C     C_3   0.501903 0.703895 0.973251 0.272490
C8    C     C_3   0.503216 0.295307 0.469571 0.275408
H5    H     H_    0.029236 0.243970 0.069999 0.126346
H6    H     H_    0.028413 0.761255 0.570441 0.119774
H7    H     H_    0.523539 0.733368 0.068595 0.117143
H8    H     H_    0.524609 0.265892 0.565885 0.117808
H9    H     H_    0.034067 0.228261 0.867707 0.066337
H10   H     H_    0.040102 0.759445 0.364984 0.058383
H11   H     H_    0.525652 0.719463 0.865541 0.092543
H12   H     H_    0.526619 0.279012 0.362364 0.091522
C9    C     C_3   0.036545 0.142746 0.012676 0.516061
C10   C     C_3   0.044526 0.855334 0.464218 0.502579
C11   C     C_3   0.516715 0.632098 0.004190 0.480015
C12   C     C_3   0.519324 0.366965 0.497431 0.478693
H13   H     H_    0.017108 0.129306 0.125774 0.094810
H14   H     H_    0.019341 0.882590 0.555083 0.131649
H15   H     H_    0.490476 0.618502 0.109748 0.109788
H16   H     H_    0.494205 0.381343 0.603622 0.107555
C13   C     C_3   0.806276 0.467790 0.785802 0.711810
C14   C     C_3   0.806101 0.532648 0.287126 0.710575
C15   C     C_3   0.304608 0.968537 0.785740 0.703188
C16   C     C_3   0.303743 0.031147 0.282899 0.707810
H17   H     H_    0.841749 0.476459 0.691458 -0.012609
H18   H     H_    0.840943 0.524169 0.191508 -0.014212
H19   H     H_    0.343710 0.974222 0.698189 -0.029487
H20   H     H_    0.342977 0.025558 0.195842 -0.027734
C17   C     C_3   0.740909 0.447294 0.709244 0.090884
C18   C     C_3   0.740470 0.554339 0.212750 0.089695
C19   C     C_3   0.240856 0.951243 0.697866 0.097604
C20   C     C_3   0.239637 0.047351 0.194316 0.094956
H21   H     H_    0.715535 0.490331 0.659093 0.168093
H22   H     H_    0.712212 0.511392 0.172470 0.172705
H23   H     H_    0.231919 0.987996 0.605762 0.156534
H24   H     H_    0.230927 0.010051 0.104085 0.153780
H25   H     H_    0.749998 0.413588 0.613133 0.063378
H26   H     H_    0.749307 0.584627 0.109742 0.060720
H27   H     H_    0.246147 0.903179 0.643751 0.081244
H28   H     H_    0.244106 0.095087 0.137212 0.081812
Ba1   Ba    Ba6+2 0.999980 0.452130 0.155200 1.720783
Ba2   Ba    Ba6+2 0.999980 0.547870 0.655200 1.721166
Ba3   Ba    Ba6+2 0.499980 0.952130 0.155200 1.722584
Ba4   Ba    Ba6+2 0.499980 0.047870 0.655200 1.723837
C21   C     C_3   0.212487 0.522118 0.031563 0.532487
C22   C     C_3   0.212510 0.477527 0.531156 0.529879
C23   C     C_3   0.714892 0.020486 0.030336 0.529991
C24   C     C_3   0.710234 0.975934 0.534218 0.532140
H29   H     H_    0.182006 0.514463 0.135242 0.056057
H30   H     H_    0.181434 0.484306 0.634059 0.053141
H31   H     H_    0.685264 0.012746 0.135445 0.057892
H32   H     H_    0.677068 0.981930 0.633631 0.048764
C25   C     C_3   0.284943 0.530181 0.084414 -0.069738
C26   C     C_3   0.284717 0.469290 0.585950 -0.064460
C27   C     C_3   0.787822 0.027232 0.080355 -0.075127
C28   C     C_3   0.781218 0.964701 0.597575 -0.058610
H33   H     H_    0.299915 0.486683 0.153030 0.174588
H34   H     H_    0.299233 0.512474 0.655366 0.173309
H35   H     H_    0.803197 0.982241 0.142576 0.176047
H36   H     H_    0.794731 0.005125 0.676843 0.163768
H37   H     H_    0.317561 0.532745 0.982784 0.212878
H38   H     H_    0.317861 0.467227 0.485264 0.213912
H39   H     H_    0.819548 0.031861 0.977553 0.204860
H40   H     H_    0.816544 0.965692 0.501071 0.215479
O45   O     O_3   0.924190 0.533610 0.949240 -0.439122
O46   O     O_3   0.924190 0.466390 0.449240 -0.438993
O47   O     O_3   0.424190 0.033610 0.949240 -0.438024
O48   O     O_3   0.424190 0.966390 0.449240 -0.438859
P13   P     P_3+3 0.084690 0.713422 0.891567 0.622018
P14   P     P_3+3 0.085742 0.287747 0.392238 0.624583
P15   P     P_3+3 0.586153 0.212096 0.890509 0.637753
P16   P     P_3+3 0.585460 0.787323 0.392325 0.637437
C29   C     C_3   0.003065 0.183039 0.430577 0.731013
C30   C     C_3   0.001142 0.820037 0.905390 0.687546
C31   C     C_3   0.501150 0.683802 0.421320 0.729001
C32   C     C_3   0.502007 0.315855 0.918021 0.730190
H41   H     H_    0.046933 0.097153 0.546300 0.138424
H42   H     H_    0.050099 0.907166 0.998108 0.161771
H43   H     H_    0.543505 0.595925 0.529804 0.144076
H44   H     H_    0.544595 0.403629 0.024321 0.144370
C33   C     C_R   0.238014 0.300832 0.006232 0.041803
C34   C     C_R   0.238026 0.698850 0.505857 0.045078
C35   C     C_R   0.737146 0.800155 0.008476 0.015578
C36   C     C_R   0.739063 0.198082 0.506659 0.030754
C37   C     C_R   0.149912 0.347795 0.827011 0.181571
C38   C     C_R   0.149579 0.652523 0.326890 0.185230
C39   C     C_R   0.648979 0.847208 0.828635 0.190645
C40   C     C_R   0.650608 0.152082 0.326992 0.184401
C41   C     C_R   0.114395 0.341159 0.687072 -0.373805
C42   C     C_R   0.113154 0.660024 0.188074 -0.388399
C43   C     C_R   0.613767 0.840676 0.688059 -0.379434
C44   C     C_R   0.614874 0.159213 0.187261 -0.367206
C45   C     C_R   0.129184 0.292347 0.582493 0.352144
C46   C     C_R   0.127939 0.708869 0.082732 0.359508
C47   C     C_R   0.627653 0.790984 0.585076 0.348196
C48   C     C_R   0.629489 0.208207 0.082383 0.350769
C49   C     C_R   0.175027 0.244935 0.623332 -0.278620
C50   C     C_R   0.174678 0.755565 0.122364 -0.290051
C51   C     C_R   0.671802 0.742464 0.629339 -0.272258
C52   C     C_R   0.675236 0.255584 0.124350 -0.284750
C53   C     C_R   0.207765 0.245109 0.769160 -0.065222
C54   C     C_R   0.207907 0.754900 0.267874 -0.075157
C55   C     C_R   0.705624 0.743544 0.773693 -0.029979
C56   C     C_R   0.708538 0.254638 0.269666 -0.035426
C57   C     C_R   0.198465 0.298764 0.869480 -0.019280
C58   C     C_R   0.198488 0.701178 0.368756 -0.017601
C59   C     C_R   0.697074 0.797797 0.872399 0.001468
C60   C     C_R   0.699475 0.200614 0.369597 -0.005549
H45   H     H_    0.077083 0.376511 0.654838 0.175081
H46   H     H_    0.075387 0.625113 0.156925 0.174237
H47   H     H_    0.577386 0.876694 0.654244 0.172916
H48   H     H_    0.577484 0.124026 0.155353 0.173862
C61   C     C_R   0.793025 0.696867 0.947479 -0.062387
C62   C     C_R   0.794527 0.301816 0.445836 -0.068084
C63   C     C_R   0.293959 0.197611 0.944604 -0.070680
C64   C     C_R   0.294030 0.802127 0.443819 -0.065959
C65   C     C_R   0.783461 0.750623 0.047629 -0.006321
C66   C     C_R   0.784933 0.247833 0.546555 0.015876
C67   C     C_R   0.284040 0.251112 0.045472 0.008445
C68   C     C_R   0.283919 0.748587 0.545367 0.008240
C69   C     C_R   0.844457 0.650147 0.987783 0.271739
C70   C     C_R   0.845066 0.349087 0.487372 0.254603
C71   C     C_R   0.344751 0.150438 0.986124 0.263943
C72   C     C_R   0.344568 0.849381 0.485862 0.268076
C73   C     C_R   0.880590 0.657601 0.126669 -0.410408
C74   C     C_R   0.880177 0.341972 0.627908 -0.401815
C75   C     C_R   0.379795 0.157089 0.126501 -0.412021
C76   C     C_R   0.379178 0.842806 0.626799 -0.419149
C77   C     C_R   0.866654 0.706771 0.230276 0.348520
C78   C     C_R   0.867123 0.291921 0.731002 0.352819
C79   C     C_R   0.366149 0.206537 0.229170 0.344886
C80   C     C_R   0.365517 0.793357 0.729982 0.344376
C81   C     C_R   0.819190 0.753664 0.189782 -0.083177
C82   C     C_R   0.820519 0.244521 0.689290 -0.098594
C83   C     C_R   0.319383 0.253901 0.188016 -0.100551
C84   C     C_R   0.318955 0.745831 0.688731 -0.100400
C85   C     C_R   0.749882 0.691977 0.815449 0.596062
C86   C     C_R   0.751998 0.306552 0.312367 0.600078
C87   C     C_R   0.251616 0.193324 0.811057 0.603754
C88   C     C_R   0.252084 0.806408 0.309240 0.609172
H49   H     H_    0.185316 0.208324 0.538138 0.208940
H50   H     H_    0.185299 0.791998 0.036466 0.213801
H51   H     H_    0.680332 0.704279 0.548136 0.218094
H52   H     H_    0.685118 0.292985 0.041379 0.217265
H53   H     H_    0.810593 0.792979 0.269403 0.195885
H54   H     H_    0.812192 0.204891 0.768767 0.196361
H55   H     H_    0.310694 0.293086 0.267894 0.198267
H56   H     H_    0.310227 0.706560 0.769011 0.199459
H57   H     H_    0.918982 0.623176 0.157929 0.141005
H58   H     H_    0.917373 0.377271 0.660668 0.144758
H59   H     H_    0.417039 0.121786 0.159942 0.146662
H60   H     H_    0.416272 0.878135 0.660152 0.146989
H61   H     H_    0.234037 0.341582 0.082891 0.191046
H62   H     H_    0.233918 0.658043 0.582995 0.190700
H63   H     H_    0.733660 0.841231 0.084101 0.194898
H64   H     H_    0.735144 0.157015 0.583201 0.192069
N1    N     N_R   0.943245 0.198457 0.339133 0.222354
O49   O     O_R   0.940456 0.253837 0.268774 -0.341545
O50   O     O_R   0.887504 0.173763 0.379958 -0.310562
N2    N     N_R   0.946351 0.801848 0.801201 0.223673
O51   O     O_R   0.919351 0.842797 0.704485 -0.316352
O52   O     O_R   0.922921 0.743583 0.808056 -0.347588
N3    N     N_R   0.442263 0.701886 0.329245 0.212345
O53   O     O_R   0.440739 0.758432 0.264342 -0.340985
O54   O     O_R   0.385854 0.677855 0.366735 -0.310888
N4    N     N_R   0.443187 0.297865 0.826004 0.213264
O55   O     O_R   0.441810 0.241514 0.761274 -0.339940
O56   O     O_R   0.386709 0.321610 0.863627 -0.308482
N5    N     N_R   0.698242 0.415821 0.819866 0.281419
O57   O     O_R   0.685120 0.354651 0.805560 -0.357006
O58   O     O_R   0.671567 0.448814 0.929788 -0.372634
N6    N     N_R   0.701297 0.591076 0.320876 0.285041
O59   O     O_R   0.693830 0.652978 0.301004 -0.355741
O60   O     O_R   0.672674 0.562220 0.435091 -0.381689
N7    N     N_R   0.184237 0.950199 0.798728 0.292482
O61   O     O_R   0.180138 0.906637 0.906932 -0.380876
O62   O     O_R   0.133882 0.987484 0.767768 -0.327915
N8    N     N_R   0.183231 0.048295 0.295824 0.291289
O63   O     O_R   0.180025 0.090725 0.406119 -0.377865
O64   O     O_R   0.132696 0.011291 0.265379 -0.301514
N9    N     N_R   0.188918 0.577981 0.945449 0.197598
O65   O     O_R   0.126225 0.579463 0.913187 -0.369577
O66   O     O_R   0.228554 0.608181 0.853530 -0.417795
N10   N     N_R   0.189570 0.422270 0.442943 0.195628
O67   O     O_R   0.127058 0.420958 0.408693 -0.371074
O68   O     O_R   0.229780 0.392541 0.352007 -0.420184
N11   N     N_R   0.691241 0.077131 0.946903 0.195289
O69   O     O_R   0.628646 0.078721 0.913283 -0.374281
O70   O     O_R   0.731046 0.109447 0.859523 -0.420785
N12   N     N_R   0.688064 0.922539 0.439055 0.199674
O71   O     O_R   0.625459 0.920695 0.406389 -0.371666
O72   O     O_R   0.728464 0.897070 0.341580 -0.417150
N13   N     N_R   0.294589 0.587854 0.178074 0.248108
O73   O     O_R   0.298462 0.644414 0.112462 -0.317319
O74   O     O_R   0.312082 0.581504 0.322848 -0.304288
N14   N     N_R   0.294001 0.411193 0.679360 0.247525
O75   O     O_R   0.298059 0.354941 0.613334 -0.318579
O76   O     O_R   0.311016 0.416852 0.824512 -0.306533
N15   N     N_R   0.798520 0.082606 0.181218 0.251437
O77   O     O_R   0.800517 0.140771 0.123624 -0.320076
O78   O     O_R   0.817733 0.072945 0.323889 -0.296583
N16   N     N_R   0.788325 0.903060 0.679592 0.249993
O79   O     O_R   0.786497 0.849123 0.602605 -0.332044
O80   O     O_R   0.810260 0.902237 0.822434 -0.328178
N17   N     N_R   0.993237 0.206516 0.588479 0.154546
O81   O     O_R   0.993962 0.267961 0.616387 -0.511984
O82   O     O_R   0.954828 0.172042 0.674152 -0.383831
N18   N     N_R   0.984569 0.800345 0.063934 0.174775
O83   O     O_R   0.939126 0.833118 0.132677 -0.341714
O84   O     O_R   0.992411 0.741060 0.109299 -0.505573
N19   N     N_R   0.490682 0.705345 0.580834 0.158523
O85   O     O_R   0.492930 0.766309 0.614183 -0.511098
O86   O     O_R   0.450087 0.671059 0.661153 -0.376834
N20   N     N_R   0.491362 0.294396 0.077893 0.158054
O87   O     O_R   0.450342 0.328550 0.156863 -0.376089
O88   O     O_R   0.493995 0.233472 0.112736 -0.512859
N21   N     N_R   0.958858 0.067253 0.433767 0.303490
O89   O     O_R   0.949522 0.029013 0.316130 -0.242793
O90   O     O_R   0.924090 0.058546 0.556671 -0.244025
N22   N     N_R   0.955156 0.934943 0.917605 0.302442
O91   O     O_R   0.934218 0.967637 0.797110 -0.263172
O92   O     O_R   0.937924 0.954598 0.053564 -0.239105
N23   N     N_R   0.454150 0.569105 0.418224 0.306165
O93   O     O_R   0.441093 0.535033 0.294949 -0.276417
O94   O     O_R   0.423365 0.555740 0.544741 -0.245078
N24   N     N_R   0.454857 0.430391 0.913569 0.306840
O95   O     O_R   0.440171 0.462614 0.787734 -0.280547
O96   O     O_R   0.426115 0.446041 0.041095 -0.243709
O97   O     O_3   0.011097 0.097504 0.905914 -0.594934
H65   H     H_    0.035388 0.102944 0.808634 0.356023
O98   O     O_3   0.031322 0.887463 0.323502 -0.598056
H66   H     H_    0.061568 0.868795 0.246786 0.310875
O99   O     O_3   0.491207 0.593012 0.884442 -0.597925
H67   H     H_    0.524478 0.591663 0.802034 0.345525
O100  O     O_3   0.493339 0.406014 0.377413 -0.596742
H68   H     H_    0.526090 0.407022 0.293851 0.346101
O101  O     O_3   0.748604 0.635537 0.731634 -0.684549
H69   H     H_    0.701782 0.624139 0.709693 0.334364
O102  O     O_3   0.749887 0.363514 0.229372 -0.682858
H70   H     H_    0.703118 0.373500 0.202477 0.333416
O103  O     O_3   0.251008 0.137313 0.725519 -0.666856
H71   H     H_    0.204760 0.127173 0.694798 0.352651
O104  O     O_3   0.251793 0.862428 0.222761 -0.664502
H72   H     H_    0.205608 0.872854 0.191883 0.350689
N25   N     N_R   0.108937 0.140630 0.021032 0.176983
O105  O     O_R   0.141274 0.097579 0.944123 -0.392105
O106  O     O_R   0.141520 0.178983 0.114029 -0.427882
N26   N     N_R   0.115570 0.855830 0.499407 0.165929
O107  O     O_R   0.141042 0.817652 0.604795 -0.430832
O108  O     O_R   0.151132 0.903151 0.448042 -0.382013
N27   N     N_R   0.587065 0.619141 0.029384 0.194628
O109  O     O_R   0.606096 0.560055 0.055965 -0.354385
O110  O     O_R   0.631008 0.664342 0.013866 -0.463603
N28   N     N_R   0.590106 0.378870 0.518702 0.195032
O111  O     O_R   0.632936 0.332250 0.510435 -0.463899
O112  O     O_R   0.610653 0.438004 0.535512 -0.357307
O113  O     O_3   0.828958 0.418663 0.885173 -0.738955
H73   H     H_    0.876634 0.426675 0.903936 0.334699
O114  O     O_3   0.829955 0.580754 0.387320 -0.736942
H74   H     H_    0.878005 0.573325 0.400795 0.331734
O115  O     O_3   0.320941 0.918840 0.889414 -0.734057
H75   H     H_    0.368072 0.925420 0.918225 0.336845
O116  O     O_3   0.319461 0.081464 0.384517 -0.736950
H76   H     H_    0.366215 0.074611 0.416697 0.335978

loop_
_geom_bond_atom_site_label_1
_geom_bond_atom_site_label_2
_geom_bond_distance
_ccdc_geom_bond_type
C2    C30   1.564797 S    
C15   H19   1.114178 S    
P9    O41   1.755750 S    
C22   C26   1.535066 S    
P11   O43   1.750215 S    
P8    C71   1.877863 S    
O1    Ba1   2.859841 S    
O101  H69   0.991200 S    
P12   O44   1.751646 S    
O23   P16   1.753864 S    
N22   O91   1.300175 A    
C42   C46   1.393975 A    
C19   H23   1.109124 S    
C26   N14   1.453701 S    
C43   H47   1.081690 S    
C41   H45   1.081874 S    
O14   P13   1.544600 D    
Ba2   O46   2.871177 S    
P13   C46   1.850448 S    
C37   C41   1.397377 A    
Ba4   O47   3.012070 S    
N12   O72   1.300862 A    
P16   C47   1.852798 S    
C40   C44   1.398044 A    
C19   H27   1.106108 S    
N18   O83   1.299427 A    
P2    O18   1.743847 S    
N8    O64   1.300454 A    
N23   O94   1.299705 A    
C39   C43   1.398809 A    
C14   O114  1.398873 S    
P4    O8    1.590246 S    
C35   C65   1.422708 A    
N9    O65   1.293578 A    
C49   H49   1.081194 S    
C16   O116  1.395159 S    
P9    O29   1.768109 S    
N10   O68   1.300984 A    
C53   C57   1.425323 A    
C5    C9    1.532885 S    
O114  H74   0.989208 S    
P6    O45   1.591359 S    
C32   N20   1.468714 S    
C52   C56   1.409067 A    
C7    C11   1.535636 S    
C14   H18   1.113511 S    
C17   H25   1.104380 S    
C24   C28   1.542629 S    
O42   C6    1.409976 S    
C55   C59   1.424380 A    
C64   C88   1.424171 A    
O15   P16   1.544981 D    
C70   C74   1.397722 A    
C10   H14   1.102754 S    
O102  H70   0.991171 S    
C30   N2    1.461037 S    
C8    H8    1.107455 S    
O2    Ba2   2.859459 S    
C19   N7    1.457177 S    
N4    O56   1.294099 A    
C13   O113  1.397018 S    
C62   C66   1.428486 A    
Ba3   O47   2.862318 S    
N17   O82   1.298226 A    
P5    O25   1.577454 D    
C76   C80   1.385890 A    
C30   N18   1.472850 S    
P7    O27   1.577454 D    
P8    O28   1.574076 D    
C27   H35   1.112842 S    
O5    Ba2   2.862198 S    
C10   O98   1.401759 S    
C38   C58   1.452615 A    
C56   C86   1.432095 A    
C3    H43   1.111240 S    
C4    H44   1.111070 S    
P3    O7    1.587267 S    
C34   H62   1.077341 S    
O41   C5    1.411767 S    
C18   H26   1.103766 S    
O31   Ba3   2.866162 S    
O113  H73   0.989351 S    
C49   C53   1.407742 A    
C64   C68   1.427380 A    
P1    Ba1   3.455075 S    
P2    C38   1.885336 S    
C46   C50   1.390292 A    
C9    N25   1.466970 S    
P8    O40   1.744079 S    
C1    H1    1.103637 S    
O24   P15   1.753781 S    
O20   C24   1.394473 S    
C65   C81   1.410238 A    
C6    H6    1.108332 S    
O97   H65   0.989714 S    
C37   C57   1.451825 A    
O44   C8    1.406676 S    
C40   C60   1.451777 A    
C6    H10   1.107925 S    
C39   C59   1.453797 A    
N26   O107  1.298939 A    
C23   C27   1.535195 S    
N13   O73   1.300752 A    
C26   H34   1.112810 S    
C51   H51   1.074555 S    
N28   O112  1.299375 A    
C13   C17   1.525826 S    
N6    O60   1.299273 A    
C68   C84   1.411725 A    
C15   C19   1.524475 S    
Ba3   Ba4   4.754369 S    
N5    O57   1.298400 A    
C22   H30   1.110592 S    
P12   O32   1.772954 S    
C21   N9    1.445620 S    
C50   C54   1.409811 A    
C31   N19   1.468894 S    
N4    O55   1.294233 A    
O25   Ba1   2.863326 S    
C79   C83   1.400892 A    
N25   O106  1.299054 A    
P4    C40   1.880338 S    
C28   N16   1.460921 S    
C2    H2    1.105227 S    
C43   C47   1.394360 A    
C44   C48   1.392792 A    
C52   H52   1.074230 S    
C61   C85   1.422386 A    
O11   P16   1.764315 S    
P2    Ba2   3.453142 S    
O23   C31   1.429071 S    
C62   C70   1.455068 A    
P10   C77   1.854632 S    
O21   C29   1.429968 S    
P5    Ba1   3.455919 S    
N1    O49   1.294704 A    
N5    O58   1.299113 A    
C24   N12   1.443702 S    
C1    N21   1.459561 S    
O10   Ba2   2.868072 S    
C1    H41   1.109647 S    
N7    O62   1.300127 A    
P9    O33   1.545653 D    
N16   O80   1.299849 A    
P10   O30   1.760499 S    
P7    C72   1.874957 S    
P11   O35   1.543742 D    
N3    O54   1.294212 A    
P8    O47   1.591359 S    
C63   C87   1.422332 A    
C54   C58   1.424619 A    
C10   N26   1.463369 S    
O3    Ba3   2.859841 S    
C7    H11   1.104209 S    
C17   H21   1.108605 S    
C24   H32   1.110119 S    
N24   O96   1.299827 A    
C3    N23   1.460384 S    
N14   O75   1.300742 A    
O17   C21   1.389502 S    
C4    H4    1.109416 S    
P5    C70   1.884376 S    
C69   C73   1.397688 A    
Ba1   O46   3.013863 S    
O10   P13   1.764895 S    
N21   O90   1.299772 A    
O19   C23   1.390445 S    
C33   C67   1.421852 A    
C34   C68   1.423351 A    
C72   C76   1.394685 A    
C62   C86   1.423972 A    
C78   C82   1.402854 A    
C61   C65   1.426830 A    
O26   Ba2   2.863722 S    
C47   C51   1.389792 A    
C87   O103  1.375802 S    
C75   C79   1.387833 A    
Ba4   O48   2.871177 S    
C15   O115  1.394218 S    
C9    O97   1.404682 S    
C73   C77   1.390117 A    
N27   O109  1.298902 A    
N18   O84   1.294028 A    
O7    Ba4   2.862198 S    
N20   O87   1.298179 A    
C25   H37   1.112322 S    
C27   H39   1.112282 S    
C16   C20   1.526690 S    
C32   N4    1.464168 S    
N7    O61   1.299144 A    
C12   H16   1.101116 S    
C88   O104  1.375533 S    
N2    O51   1.297708 A    
C11   O99   1.402939 S    
C21   C25   1.535301 S    
N15   O77   1.300712 A    
P4    Ba4   3.453142 S    
P1    O1    1.575039 D    
C48   C52   1.391556 A    
C4    C32   1.567955 S    
P3    O3    1.575039 D    
P4    O20   1.751342 S    
C63   C71   1.454813 A    
C18   H22   1.109092 S    
C29   N1    1.463721 S    
C61   C69   1.455395 A    
C31   N3    1.464192 S    
N24   O95   1.299912 A    
O9    P14   1.762443 S    
O11   Ba3   2.857193 S    
C64   C72   1.455838 A    
C12   O100  1.402739 S    
C75   H59   1.082758 S    
P6    O38   1.748020 S    
O18   C22   1.389369 S    
C66   C82   1.412928 A    
P1    C37   1.886022 S    
C80   C84   1.403157 A    
P8    Ba4   3.457880 S    
C86   O102  1.376313 S    
N17   O81   1.294188 A    
C50   H50   1.080370 S    
C11   N27   1.460630 S    
C6    C10   1.538296 S    
C33   C57   1.410451 A    
O104  H72   0.989734 S    
P1    O5    1.587267 S    
N11   O69   1.293963 A    
N6    O59   1.299126 A    
O98   H66   0.992371 S    
C13   H17   1.113389 S    
Ba3   O48   3.013863 S    
O29   Ba1   2.866162 S    
C17   N5    1.455639 S    
O100  H68   0.992198 S    
P9    C78   1.862497 S    
P12   O36   1.544168 D    
N23   O93   1.300003 A    
C9    H13   1.096405 S    
C73   H57   1.082530 S    
P7    O39   1.744646 S    
N8    O63   1.299836 A    
O21   P14   1.755933 S    
C36   H64   1.078033 S    
O9    Ba1   2.857193 S    
N9    O66   1.300900 A    
C3    H3    1.108996 S    
C8    H12   1.103844 S    
C45   C49   1.388495 A    
N10   O67   1.293378 A    
C22   N10   1.445880 S    
C44   H48   1.081886 S    
P12   C79   1.849202 S    
C29   N17   1.466553 S    
P15   C48   1.856039 S    
O22   C30   1.428240 S    
O8    Ba3   2.871056 S    
C28   H40   1.111655 S    
C1    C29   1.568316 S    
Ba1   Ba2   4.754369 S    
C2    H42   1.109589 S    
N12   O71   1.292778 A    
C53   C87   1.430574 A    
O116  H76   0.990210 S    
P10   O34   1.546573 D    
C11   H15   1.101719 S    
P11   O31   1.777190 S    
O28   Ba4   2.863722 S    
C5    H5    1.108754 S    
N22   O92   1.299142 A    
N26   O108  1.298548 A    
C7    H7    1.107506 S    
C55   C85   1.432046 A    
C41   C45   1.394080 A    
O115  H75   0.990088 S    
C56   C60   1.423441 A    
C33   H61   1.077577 S    
C36   C66   1.424034 A    
O103  H71   0.989962 S    
O13   P14   1.544484 D    
O30   Ba2   2.855299 S    
C12   N28   1.461990 S    
C4    N24   1.460171 S    
C8    C12   1.536017 S    
Ba2   O45   3.012070 S    
P1    O17   1.744014 S    
O99   H67   0.992409 S    
P3    O19   1.747317 S    
O24   C32   1.428556 S    
P4    O4    1.578418 D    
N25   O105  1.299238 A    
P5    O46   1.594354 S    
P7    Ba3   3.455919 S    
C84   H56   1.082886 S    
N19   O86   1.297919 A    
N11   O70   1.300913 A    
P7    O48   1.594354 S    
C23   N11   1.447684 S    
C20   H24   1.109191 S    
C5    H9    1.104918 S    
O37   C14   1.396863 S    
N3    O53   1.294610 A    
C25   H33   1.112808 S    
O39   C16   1.395340 S    
C14   C18   1.528100 S    
C27   N15   1.454060 S    
C16   H20   1.113507 S    
C71   C75   1.395936 A    
C21   H29   1.110623 S    
P2    O2    1.578418 D    
C82   H54   1.082612 S    
O4    Ba4   2.859459 S    
O40   C15   1.394742 S    
C35   C59   1.411726 A    
C63   C67   1.427635 A    
C85   O101  1.375377 S    
O43   C7    1.405604 S    
N27   O110  1.299878 A    
P6    O26   1.574076 D    
C81   H53   1.083335 S    
N14   O76   1.296570 A    
C74   C78   1.391993 A    
Ba1   O45   2.862318 S    
P3    Ba3   3.455075 S    
N21   O89   1.299373 A    
C67   C83   1.409087 A    
P11   C80   1.851767 S    
N13   O74   1.296231 A    
P6    Ba2   3.457880 S    
C51   C55   1.406841 A    
N28   O111  1.300065 A    
C25   N13   1.453822 S    
C2    N22   1.463561 S    
C54   C88   1.431942 A    
C74   H58   1.082514 S    
C20   N8    1.457205 S    
N19   O85   1.294776 A    
O27   Ba3   2.863326 S    
C34   C58   1.412664 A    
N20   O88   1.294883 A    
C3    C31   1.568596 S    
P2    O6    1.590246 S    
O38   C13   1.396604 S    
P10   O42   1.753623 S    
N2    O52   1.296859 A    
P5    O37   1.748607 S    
P6    C69   1.881272 S    
P3    C39   1.886974 S    
C42   H46   1.081835 S    
C20   H28   1.106364 S    
N1    O50   1.295672 A    
O22   P13   1.762560 S    
N15   O78   1.296639 A    
C18   N6    1.455856 S    
C77   C81   1.402349 A    
C36   C60   1.413084 A    
C83   H55   1.083066 S    
O16   P15   1.544770 D    
C35   H63   1.076554 S    
N16   O79   1.300534 A    
O12   Ba4   2.868072 S    
P14   C45   1.846059 S    
O32   Ba4   2.855299 S    
C38   C42   1.399185 A    
O6    Ba1   2.871056 S    
C23   H31   1.111225 S    
C26   H38   1.112215 S    
O12   P15   1.766427 S    
C76   H60   1.082773 S    
C28   H36   1.112153 S    
