data_mof_unit_37835.cif
_audit_creation_date              2012-10-26T19:04:40-0400
_audit_creation_method            fapswitch 2.2
_symmetry_space_group_name_H-M    P1
_symmetry_Int_Tables_number       1
_space_group_crystal_system       triclinic
_cell_length_a                    9.616597
_cell_length_b                    10.774034
_cell_length_c                    13.427063
_cell_angle_alpha                 92.707471
_cell_angle_beta                  72.557451
_cell_angle_gamma                 90.225471
_cell_volume                      1325.64515991

loop_
_atom_site_label
_atom_site_type_symbol
_atom_type_description
_atom_site_fract_x
_atom_site_fract_y
_atom_site_fract_z
_atom_type_partial_charge
C1    C     C_R   0.498537 0.737384 0.503930 0.556520
C2    C     C_R   0.374330 0.485775 0.814236 -0.000638
C3    C     C_R   0.281951 0.879787 0.669915 -0.089697
C4    C     C_R   0.421813 0.493460 0.699642 0.533625
C5    C     C_R   0.177423 0.948933 0.746861 -0.106174
C6    C     C_R   0.176933 0.078006 0.746499 -0.116629
C7    C     C_R   0.280960 0.138742 0.669168 -0.103278
C8    C     C_R   0.386503 0.070538 0.589129 0.027990
C9    C     C_R   0.386963 0.939244 0.589511 0.032584
C10   C     C_R   0.495931 0.871635 0.511374 0.016358
C11   C     C_R   0.605638 0.932636 0.438124 -0.134366
C12   C     C_R   0.433084 0.475376 0.978988 0.037053
C13   C     C_R   0.605227 0.060625 0.437735 -0.147614
C14   C     C_R   0.495138 0.129570 0.510631 0.005501
C15   C     C_R   0.913571 0.336519 0.359715 -0.092130
C16   C     C_R   0.498420 0.262961 0.503257 0.513430
C17   C     C_R   0.013778 0.256472 0.290793 -0.172834
C18   C     C_R   0.156858 0.255277 0.291341 -0.162792
C19   C     C_R   0.200714 0.334286 0.360672 -0.074198
C20   C     C_R   0.102794 0.418799 0.431480 0.139405
C21   C     C_R   0.953439 0.419321 0.431236 0.118516
C22   C     C_R   0.900470 0.577390 0.565485 0.332649
C23   C     C_R   0.471215 0.449194 0.869555 0.039051
C24   C     C_R   0.047952 0.576851 0.565166 0.026843
C25   C     C_R   0.578290 0.497413 0.300084 0.528477
C26   C     C_R   0.787256 0.394498 0.024360 -0.135118
C27   C     C_R   0.621991 0.479686 0.186124 -0.003492
C28   C     C_R   0.232512 0.525980 0.870044 -0.140572
C29   C     C_R   0.188933 0.536394 0.978353 -0.143657
C30   C     C_R   0.288083 0.513988 0.032582 -0.118866
C31   C     C_R   0.541198 0.460856 0.030449 0.031249
C32   C     C_R   0.679225 0.408071 0.974700 0.053318
C33   C     C_R   0.706944 0.367294 0.870603 -0.124245
C34   C     C_R   0.603894 0.385837 0.819145 -0.094578
C35   C     C_R   0.517258 0.499509 0.135376 -0.131684
C36   C     C_R   0.758562 0.429645 0.129814 -0.147631
Cl1   Cl    Cl    0.781925 0.683389 0.653778 -0.587018
Cu1   Cu    Cu3+1 0.359340 0.500010 0.500010 0.910665
Cu2   Cu    Cu3+1 0.640660 0.499990 0.499990 0.991607
H1    H     H_    0.841085 0.413797 0.167827 0.121234
H2    H     H_    0.312582 0.324662 0.355099 0.185232
H3    H     H_    0.809198 0.321383 0.828452 0.108957
H4    H     H_    0.082098 0.639738 0.618404 0.138337
H5    H     H_    0.892841 0.354288 0.982130 0.106504
H6    H     H_    0.417189 0.545345 0.180022 0.126273
H7    H     H_    0.155437 0.551853 0.829862 0.132872
H8    H     H_    0.246601 0.524752 0.116515 0.109356
H9    H     H_    0.078627 0.565904 0.020567 0.126081
H10   H     H_    0.628839 0.346628 0.740204 0.149891
H11   H     H_    0.690092 0.880618 0.379246 0.129929
H12   H     H_    0.281030 0.780039 0.675669 0.131726
H13   H     H_    0.097705 0.902173 0.807868 0.124369
H14   H     H_    0.096806 0.131439 0.807219 0.109699
H15   H     H_    0.279017 0.239106 0.674320 0.139247
H16   H     H_    0.689495 0.106132 0.378615 0.112207
H17   H     H_    0.806510 0.329538 0.353361 0.175857
H18   H     H_    0.979723 0.194569 0.236778 0.114805
H19   H     H_    0.234745 0.192330 0.237791 0.125014
N1    N     N_R   0.852480 0.498790 0.499000 -0.239477
N2    N     N_R   0.148360 0.498710 0.498970 -0.274238
O1    O     O_R   0.381190 0.680360 0.500010 -0.509890
O2    O     O_R   0.618760 0.680340 0.500000 -0.435136
O3    O     O_R   0.323240 0.499990 0.650990 -0.527354
O4    O     O_R   0.560820 0.499960 0.650980 -0.447396
O5    O     O_R   0.381240 0.319660 0.500000 -0.526763
O6    O     O_R   0.618810 0.319640 0.499990 -0.528067
O7    O     O_R   0.439180 0.500040 0.349020 -0.521878
O8    O     O_R   0.676760 0.500010 0.349010 -0.525023

loop_
_geom_bond_atom_site_label_1
_geom_bond_atom_site_label_2
_ccdc_geom_bond_type
C2    C4    S    
C5    H13   S    
C26   C32   A    
C6    C7    A    
C3    C9    A    
C27   C36   A    
C20   N2    A    
C2    C28   A    
C9    C10   A    
C4    O4    A    
C19   C20   A    
C25   O7    A    
Cu1   O5    S    
C15   C21   A    
C24   N2    A    
Cu1   O1    S    
Cu2   N1    S    
C32   C33   A    
C23   C34   A    
C17   C18   A    
C26   H5    S    
C7    C8    A    
C11   H11   S    
C13   C14   A    
C1    O2    A    
Cu2   O4    S    
C11   C13   A    
C12   C23   A    
C28   H7    S    
C29   C30   A    
C25   O8    A    
Cu1   N2    S    
C33   H3    S    
C22   C24   A    
C4    O3    A    
C28   C29   A    
C33   C34   A    
C21   N1    A    
C15   H17   S    
C31   C35   A    
C2    C23   A    
C12   C31   A    
C5    C6    A    
C24   H4    S    
Cu2   O6    S    
C14   C16   S    
C16   O6    A    
C10   C11   A    
C6    H14   S    
C35   H6    S    
C3    C5    A    
C30   H8    S    
C36   H1    S    
Cu1   Cu2   S    
Cu1   O7    S    
Cu1   O3    S    
Cu2   O8    S    
C26   C36   A    
C22   N1    A    
C15   C17   A    
Cu2   O2    S    
C3    H12   S    
C18   C19   A    
C34   H10   S    
C8    C14   A    
C16   O5    A    
C29   H9    S    
C7    H15   S    
C27   C35   A    
C20   C21   A    
C22   Cl1   S    
C12   C30   A    
C18   H19   S    
C31   C32   A    
C1    C10   S    
C19   H2    S    
C17   H18   S    
C8    C9    A    
C13   H16   S    
C25   C27   S    
C1    O1    A    
