data_mof_unit_68040.cif
_audit_creation_date              2012-12-11T14:37:44-0500
_audit_creation_method            fapswitch 2.2
_symmetry_space_group_name_H-M    P1
_symmetry_Int_Tables_number       1
_space_group_crystal_system       triclinic
_cell_length_a                    14.728214
_cell_length_b                    15.969845
_cell_length_c                    6.968489
_cell_angle_alpha                 90.424657
_cell_angle_beta                  80.644545
_cell_angle_gamma                 89.953795
_cell_volume                      1617.19054448

loop_
_atom_site_label
_atom_site_type_symbol
_atom_type_description
_atom_site_fract_x
_atom_site_fract_y
_atom_site_fract_z
_atom_type_partial_charge
O1    O     O_R   0.337080 0.165770 0.524980 -0.546242
O2    O     O_R   0.662920 0.834230 0.475020 -0.526424
O3    O     O_R   0.662920 0.665770 0.475020 -0.537906
O4    O     O_R   0.337080 0.334230 0.524980 -0.513662
O5    O     O_R   0.348340 0.341430 0.191390 -0.560901
O6    O     O_R   0.651660 0.658570 0.808610 -0.555574
O7    O     O_R   0.651660 0.841430 0.808610 -0.556517
O8    O     O_R   0.348340 0.158570 0.191390 -0.532321
O9    O     O_R   0.165780 0.339950 0.082750 -0.550677
O10   O     O_R   0.834220 0.660050 0.917250 -0.545839
O11   O     O_R   0.834220 0.839950 0.917250 -0.550307
O12   O     O_R   0.165780 0.160050 0.082750 -0.547168
C1    C     C_R   0.368984 0.364720 0.356572 0.607925
C2    C     C_R   0.630862 0.635141 0.643275 0.611132
C3    C     C_R   0.630233 0.864275 0.644375 0.612944
C4    C     C_R   0.370224 0.136143 0.355171 0.694733
O13   O     O_3   0.191540 0.250000 0.407620 -0.377200
O14   O     O_3   0.808460 0.750000 0.592380 -0.363676
V1    V     V_3+5 0.262540 0.250000 0.108780 1.407104
V2    V     V_3+5 0.737460 0.750000 0.891220 1.394857
O15   O     O_R   0.154530 0.164290 0.756910 -0.554752
O16   O     O_R   0.845470 0.835710 0.243090 -0.527944
O17   O     O_R   0.845470 0.664290 0.243090 -0.526182
O18   O     O_R   0.154530 0.335710 0.756910 -0.533000
C5    C     C_R   0.130986 0.133999 0.932105 0.688732
C6    C     C_R   0.867703 0.866617 0.067759 0.719352
C7    C     C_R   0.870295 0.635479 0.066221 0.707155
C8    C     C_R   0.129630 0.364766 0.934465 0.709204
H1    H     H_    0.551494 0.357530 0.377196 0.130540
H2    H     H_    0.564220 0.171205 0.518118 0.135610
H3    H     H_    0.479754 0.929366 0.318512 0.145813
H4    H     H_    0.516845 0.758094 0.096110 0.109227
V3    V     V_3+5 0.240320 0.250000 0.616280 1.401168
V4    V     V_3+5 0.759680 0.750000 0.383720 1.447977
O19   O     O_3   0.311330 0.250000 0.867310 -0.373656
O20   O     O_3   0.688670 0.750000 0.132690 -0.381659
C9    C     C_3   0.022324 0.475961 0.174030 -0.234673
C10   C     C_3   0.977801 0.525201 0.830866 -0.223075
C11   C     C_3   0.959358 0.985703 0.837764 -0.279477
C12   C     C_3   0.038309 0.012887 0.155933 -0.201964
C13   C     C_3   0.040163 0.562980 0.082297 0.518228
C14   C     C_3   0.959917 0.438462 0.924662 0.521190
C15   C     C_3   0.956825 0.068443 0.954045 0.506741
C16   C     C_3   0.041289 0.930749 0.035992 0.514771
H5    H     H_    0.036302 0.454039 0.317136 0.137050
H6    H     H_    0.959035 0.544367 0.689526 0.142719
H7    H     H_    0.929039 0.970244 0.706143 0.133955
H8    H     H_    0.070960 0.021903 0.287371 0.129387
C17   C     C_3   0.942346 0.565958 0.032310 -0.124815
C18   C     C_3   0.058513 0.435508 0.971202 -0.115426
C19   C     C_3   0.060261 0.062875 0.963017 -0.110368
C20   C     C_3   0.937809 0.937291 0.032248 -0.117002
C21   C     C_3   0.923691 0.479309 0.124962 -0.270544
C22   C     C_3   0.077272 0.523531 0.880992 -0.295731
C23   C     C_3   0.064423 0.980005 0.843704 -0.310477
C24   C     C_3   0.933491 0.020483 0.148272 -0.238017
C25   C     C_2   0.586039 0.207255 0.224551 0.314820
C26   C     C_2   0.539053 0.328832 0.671066 0.352359
C27   C     C_2   0.466534 0.759329 0.393005 0.347746
C28   C     C_2   0.461730 0.916197 0.028209 0.277214
H9    H     H_    0.859485 0.472572 0.229149 0.134201
H10   H     H_    0.141542 0.540408 0.783482 0.119539
H11   H     H_    0.112458 0.964212 0.709820 0.139022
H12   H     H_    0.878925 0.037536 0.271758 0.125911
C29   C     C_2   0.566625 0.221942 0.415227 -0.258415
C30   C     C_2   0.551500 0.308560 0.483371 -0.232020
C31   C     C_2   0.489027 0.796381 0.221076 -0.200175
C32   C     C_2   0.477502 0.887003 0.197476 -0.115487
O21   O     O_3   0.523960 0.411537 0.725608 -0.576044
C33   C     C_3   0.515220 0.418197 0.929659 0.095282
H13   H     H_    0.498420 0.357898 0.006997 0.087037
H14   H     H_    0.457341 0.461239 0.980762 0.152692
C34   C     C_3   0.604087 0.452077 0.986888 -0.369741
H15   H     H_    0.642951 0.397012 0.023693 0.156798
H16   H     H_    0.646280 0.484444 0.862762 0.213000
C35   C     C_3   0.587611 0.511893 0.161918 -0.791728
H17   H     H_    0.566269 0.574401 0.117726 0.234873
H18   H     H_    0.652438 0.519505 0.222300 0.223467
H19   H     H_    0.533192 0.488354 0.277630 0.209972
O22   O     O_3   0.606533 0.127993 0.151822 -0.560582
C36   C     C_3   0.623131 0.133901 0.947364 0.124651
H20   H     H_    0.664958 0.189996 0.894651 0.064657
H21   H     H_    0.556444 0.137390 0.892569 0.128531
C37   C     C_3   0.676196 0.056380 0.863185 -0.275963
H22   H     H_    0.743536 0.054430 0.915168 0.201561
H23   H     H_    0.637469 0.999500 0.917162 0.217864
C38   C     C_3   0.691830 0.056263 0.640956 -0.881014
H24   H     H_    0.626318 0.043078 0.587455 0.225173
H25   H     H_    0.742348 0.006769 0.584529 0.221599
H26   H     H_    0.719202 0.117425 0.583013 0.230081
O23   O     O_3   0.444232 0.999773 0.002513 -0.569950
C39   C     C_3   0.420127 0.008075 0.815605 0.096057
H27   H     H_    0.469894 0.974855 0.702347 0.088297
H28   H     H_    0.424145 0.075400 0.776852 0.135050
C40   C     C_3   0.321020 0.978197 0.813027 -0.272184
H29   H     H_    0.311776 0.914723 0.875656 0.174201
H30   H     H_    0.272476 0.019940 0.907591 0.180525
C41   C     C_3   0.297115 0.975711 0.607212 -0.768864
H31   H     H_    0.248488 0.026804 0.588486 0.211700
H32   H     H_    0.265336 0.915092 0.577454 0.230049
H33   H     H_    0.358575 0.982913 0.495602 0.210721
O24   O     O_3   0.421000 0.802030 0.553198 -0.577675
C42   C     C_3   0.428423 0.755865 0.721697 0.060478
H34   H     H_    0.393603 0.792029 0.848367 0.128957
H35   H     H_    0.501264 0.749568 0.740364 0.107257
C43   C     C_3   0.381882 0.670013 0.728605 -0.367023
H36   H     H_    0.307469 0.678502 0.725487 0.197396
H37   H     H_    0.413607 0.630577 0.603719 0.197014
C44   C     C_3   0.393935 0.624362 0.912707 -0.876981
H38   H     H_    0.467768 0.612280 0.913450 0.239597
H39   H     H_    0.357483 0.563546 0.916449 0.236204
H40   H     H_    0.365897 0.662419 0.042775 0.231238
O25   O     O_3   0.076920 0.630112 0.177412 -0.576603
C45   C     C_3   0.172228 0.618670 0.175618 0.051668
H41   H     H_    0.199375 0.679679 0.217809 0.161463
H42   H     H_    0.208888 0.604242 0.027502 0.112746
C46   C     C_3   0.192560 0.552185 0.321525 -0.317040
H43   H     H_    0.138841 0.555426 0.452619 0.206091
H44   H     H_    0.191661 0.488834 0.256009 0.193564
C47   C     C_3   0.286623 0.564161 0.381516 -0.883859
H45   H     H_    0.341718 0.541074 0.265734 0.228629
H46   H     H_    0.290166 0.528142 0.515790 0.230072
H47   H     H_    0.298644 0.631240 0.409560 0.235604
O26   O     O_3   0.919336 0.371812 0.834751 -0.581255
C48   C     C_3   0.826783 0.360762 0.924255 0.046821
H48   H     H_    0.788311 0.335803 0.811857 0.105375
H49   H     H_    0.791999 0.421060 0.970070 0.115001
C49   C     C_3   0.820420 0.296649 0.090774 -0.270938
H50   H     H_    0.782358 0.240988 0.051556 0.203343
H51   H     H_    0.890719 0.276444 0.106170 0.249870
C50   C     C_3   0.771694 0.327071 0.289781 -0.858664
H52   H     H_    0.713418 0.368963 0.277051 0.236516
H53   H     H_    0.818991 0.359851 0.372213 0.227412
H54   H     H_    0.746595 0.272099 0.379261 0.240912
O27   O     O_3   0.911157 0.143484 0.922752 -0.597640
C51   C     C_3   0.898076 0.152298 0.727178 0.003667
H55   H     H_    0.842953 0.199331 0.725064 0.160045
H56   H     H_    0.872356 0.094778 0.665219 0.117301
C52   C     C_3   0.985238 0.182845 0.598069 -0.241892
H57   H     H_    0.017831 0.232013 0.676995 0.249224
H58   H     H_    0.032853 0.129119 0.560783 0.180570
C53   C     C_3   0.964215 0.220778 0.411230 -0.819813
H59   H     H_    0.916020 0.180417 0.345802 0.234183
H60   H     H_    0.028230 0.228324 0.305245 0.253415
H61   H     H_    0.933919 0.283637 0.444053 0.243024
O28   O     O_3   0.082537 0.856220 0.089527 -0.571193
C54   C     C_3   0.127453 0.812505 0.923332 0.075616
H62   H     H_    0.170551 0.763102 0.972621 0.146921
H63   H     H_    0.176733 0.852697 0.830222 0.110692
C55   C     C_3   0.059586 0.771321 0.806052 -0.311733
H64   H     H_    0.016040 0.726534 0.899717 0.206599
H65   H     H_    0.014274 0.818620 0.754748 0.196822
C56   C     C_3   0.109706 0.725827 0.627382 -0.789481
H66   H     H_    0.150732 0.770771 0.527771 0.239146
H67   H     H_    0.058578 0.695074 0.549565 0.266286
H68   H     H_    0.156003 0.677481 0.670848 0.218238

loop_
_geom_bond_atom_site_label_1
_geom_bond_atom_site_label_2
_ccdc_geom_bond_type
O10   C7    A    
C38   H24   S    
C34   H15   S    
C40   H29   S    
C53   H61   S    
C37   C38   S    
C50   H54   S    
C49   H50   S    
C45   H41   S    
C40   C41   S    
C14   O26   S    
O27   C51   S    
C10   C17   S    
C19   C23   S    
C18   C22   S    
C54   H63   S    
C35   H18   S    
C10   C14   S    
C44   H39   S    
C14   C21   S    
C52   C53   S    
O15   V3    S    
C43   H36   S    
O4    C1    A    
C27   C31   D    
C21   H9    S    
C26   C30   D    
C11   C23   S    
C54   H62   S    
O10   V2    S    
C12   C24   S    
C55   C56   S    
C23   H11   S    
C48   C49   S    
C16   O28   S    
C24   H12   S    
C33   H13   S    
O17   C7    A    
C56   H67   S    
O14   V2    S    
C47   H47   S    
C9    C21   S    
O2    V4    S    
O7    C3    A    
C11   C20   S    
O8    C4    A    
C34   H16   S    
C25   O22   S    
O24   C42   S    
O13   V3    S    
C51   C52   S    
C13   C17   S    
C36   H21   S    
O9    V1    S    
C36   H20   S    
H3    C32   S    
O16   V4    S    
O11   V2    S    
O8    V1    S    
O28   C54   S    
O1    V3    S    
C31   C32   S    
H2    C29   S    
C54   C55   S    
C37   H22   S    
C51   H56   S    
C44   H40   S    
C13   O25   S    
O23   C39   S    
C8    C18   S    
C51   H55   S    
C11   C15   S    
C22   H10   S    
O3    V4    S    
O7    V2    S    
C39   C40   S    
C5    C19   S    
C6    C20   S    
O6    C2    A    
C10   C22   S    
O17   V4    S    
C33   C34   S    
C39   H28   S    
C42   H35   S    
O1    C4    A    
C35   H17   S    
C56   H68   S    
C15   O27   S    
O2    C3    A    
O14   V4    S    
O3    C2    A    
C14   C18   S    
H4    C31   S    
C29   C30   S    
C41   H32   S    
C38   H25   S    
C48   H48   S    
C34   C35   S    
C55   H65   S    
C46   C47   S    
C9    H5    S    
C50   H52   S    
C12   C19   S    
C49   C50   S    
C36   C37   S    
C47   H45   S    
C47   H46   S    
C11   H7    S    
O25   C45   S    
C28   O23   S    
C12   H8    S    
O15   C5    A    
O4    V3    S    
C53   H59   S    
C27   O24   S    
O5    C1    A    
O18   C8    A    
C25   C29   D    
O22   C36   S    
C50   H53   S    
C49   H51   S    
C16   C20   S    
C45   H42   S    
C52   H57   S    
C40   H30   S    
C26   O21   S    
O5    V1    S    
C41   H33   S    
O6    V2    S    
O18   V3    S    
O11   C6    A    
O12   C5    A    
C46   H44   S    
V1    O19   S    
C46   H43   S    
C9    C18   S    
C52   H58   S    
C16   C23   S    
C15   C19   S    
C43   H37   S    
C17   C21   S    
O12   V1    S    
C39   H27   S    
V3    O19   S    
C42   C43   S    
V4    O20   S    
C9    C13   S    
O21   C33   S    
C13   C22   S    
C10   H6    S    
C45   C46   S    
H1    C30   S    
V2    O20   S    
O13   V1    S    
C20   C24   S    
C15   C24   S    
C12   C16   S    
C35   H19   S    
C28   C32   D    
C41   H31   S    
O16   C6    A    
C38   H26   S    
C42   H34   S    
C48   H49   S    
C55   H64   S    
C37   H23   S    
C33   H14   S    
C56   H66   S    
C44   H38   S    
C53   H60   S    
C7    C17   S    
O9    C8    A    
O26   C48   S    
C43   C44   S    
