data_mof_unit_59479.cif
_audit_creation_date              2012-12-11T14:06:45-0500
_audit_creation_method            fapswitch 2.2
_symmetry_space_group_name_H-M    P1
_symmetry_Int_Tables_number       1
_space_group_crystal_system       triclinic
_cell_length_a                    11.85854
_cell_length_b                    11.829437
_cell_length_c                    19.329531
_cell_angle_alpha                 89.859055
_cell_angle_beta                  90.274968
_cell_angle_gamma                 119.72097
_cell_volume                      2354.81336456

loop_
_atom_site_label
_atom_site_type_symbol
_atom_type_description
_atom_site_fract_x
_atom_site_fract_y
_atom_site_fract_z
_atom_type_partial_charge
C1    C     C_R   0.551873 0.477232 0.596824 0.539007
C2    C     C_R   0.406443 0.843654 0.133506 0.544311
C3    C     C_R   0.157605 0.561916 0.133507 0.541232
C4    C     C_R   0.474426 0.547906 0.123229 0.566328
C5    C     C_R   0.549978 0.478342 0.404967 0.563553
C6    C     C_R   0.521321 0.072458 0.404087 0.571689
C7    C     C_R   0.924855 0.448698 0.403840 0.576606
C8    C     C_1   0.111295 0.546729 0.848018 -0.013169
C9    C     C_1   0.453755 0.563993 0.848031 -0.010973
C10   C     C_1   0.434990 0.889006 0.848043 -0.012469
C11   C     C_1   0.037550 0.514584 0.718901 -0.023568
C12   C     C_R   0.523134 0.074313 0.596810 0.538094
C13   C     C_1   0.486205 0.522419 0.719036 -0.023592
C14   C     C_1   0.478133 0.963042 0.719046 -0.023226
C15   C     C_1   0.079803 0.534879 0.788127 -0.027286
C16   C     C_1   0.465842 0.544313 0.788226 -0.026840
C17   C     C_1   0.455195 0.920698 0.788235 -0.026823
C18   C     C_1   0.992741 0.489409 0.661443 0.010176
C19   C     C_1   0.511213 0.502922 0.661584 0.010020
C20   C     C_1   0.498129 0.007745 0.661570 0.010747
C21   C     C_2   0.986932 0.492574 0.338151 -0.071394
C22   C     C_2   0.496661 0.510619 0.345765 -0.074485
C23   C     C_R   0.925892 0.448443 0.596768 0.537580
C24   C     C_2   0.480341 0.978256 0.347673 -0.068192
C25   C     C_2   0.114215 0.546832 0.203658 -0.153674
C26   C     C_2   0.487112 0.522942 0.194883 -0.149610
C27   C     C_2   0.436985 0.882768 0.204827 -0.170153
C28   C     C_2   0.989758 0.463159 0.216346 -0.138346
C29   C     C_2   0.528683 0.624228 0.238524 -0.164677
C30   C     C_2   0.342282 0.867000 0.247318 -0.178499
C31   C     C_3   0.906948 0.203199 0.255364 -0.003908
C32   C     C_3   0.846637 0.066368 0.284477 -0.345033
C33   C     C_3   0.790178 0.725917 0.291965 0.001898
C34   C     C_2   0.950642 0.409283 0.285134 0.225819
C35   C     C_3   0.916753 0.798290 0.332393 -0.347818
C36   C     C_3   0.300726 0.086586 0.280768 0.012345
C37   C     C_3   0.222237 0.148661 0.305209 -0.369023
C38   C     C_2   0.569899 0.617207 0.308036 0.233033
C39   C     C_2   0.371213 0.945037 0.310251 0.241027
C40   C     C_R   0.408893 0.851670 0.919125 0.513664
C41   C     C_R   0.148322 0.557273 0.919166 0.515682
C42   C     C_R   0.442854 0.590679 0.919074 0.512562
Cr1   Cr    Cr6+3 0.468420 0.238090 0.499960 1.042013
Cr2   Cr    Cr6+3 0.761910 0.230330 0.499960 1.055036
Cr3   Cr    Cr6+3 0.769670 0.531580 0.499960 1.039530
Cr4   Cr    Cr6+3 0.515700 0.760130 0.026360 1.020996
Cr5   Cr    Cr6+3 0.239870 0.755570 0.026360 1.026183
Cr6   Cr    Cr6+3 0.244430 0.484300 0.026360 1.016774
H1    H     H_    0.920292 0.417987 0.174293 0.167218
H2    H     H_    0.014596 0.245712 0.257572 0.126741
H3    H     H_    0.875529 0.196831 0.200518 0.144984
H4    H     H_    0.739822 0.016406 0.278745 0.154197
H5    H     H_    0.883786 0.010856 0.255520 0.086453
H6    H     H_    0.872233 0.069780 0.340065 0.173962
H7    H     H_    0.798690 0.779779 0.243284 0.127899
H8    H     H_    0.776310 0.627933 0.278740 0.135137
H9    H     H_    0.914795 0.740061 0.377884 0.189660
H10   H     H_    0.999630 0.815523 0.298889 0.117127
H11   H     H_    0.930527 0.892842 0.351052 0.148810
H12   H     H_    0.552226 0.720456 0.220372 0.144001
H13   H     H_    0.264653 0.044560 0.228475 0.137393
H14   H     H_    0.404358 0.164870 0.277095 0.137449
H15   H     H_    0.253313 0.188987 0.358084 0.183390
H16   H     H_    0.237100 0.228446 0.269434 0.081410
H17   H     H_    0.117511 0.075415 0.305752 0.134886
H18   H     H_    0.242318 0.817958 0.229025 0.137435
H19   H     H_    0.186555 0.584452 0.244702 0.057640
H20   H     H_    0.465826 0.426540 0.211434 0.075978
H21   H     H_    0.538465 0.938261 0.219696 0.104029
H22   H     H_    0.044089 0.597111 0.329568 0.052751
H23   H     H_    0.401621 0.437173 0.327158 0.043374
H24   H     H_    0.542938 0.938799 0.335044 0.061635
O1    O     O_R   0.434830 0.101190 0.575190 -0.503765
O2    O     O_R   0.664850 0.560590 0.424150 -0.456076
O3    O     O_R   0.484380 0.363570 0.430280 -0.523147
O4    O     O_R   0.636430 0.120810 0.430280 -0.489325
O5    O     O_R   0.879190 0.515620 0.430280 -0.526021
O6    O     O_3   0.666667 0.333333 0.499980 -0.280794
O7    O     O_R   0.548200 0.655360 0.951320 -0.482261
O8    O     O_R   0.344640 0.892840 0.951320 -0.476261
O9    O     O_R   0.107160 0.451800 0.951320 -0.474531
O10   O     O_R   0.505020 0.871000 0.955840 -0.478936
O11   O     O_R   0.129000 0.634020 0.955840 -0.482714
O12   O     O_R   0.898810 0.333640 0.575190 -0.509343
O13   O     O_R   0.365980 0.494980 0.955840 -0.490215
O14   O     O_R   0.543640 0.655270 0.102360 -0.512813
O15   O     O_R   0.344730 0.888370 0.102360 -0.486289
O16   O     O_R   0.111630 0.456360 0.102360 -0.489874
O17   O     O_R   0.500790 0.870920 0.095850 -0.469510
O18   O     O_R   0.129080 0.629870 0.095850 -0.482326
O19   O     O_R   0.370130 0.499210 0.095850 -0.501786
O20   O     O_3   0.865253 0.276751 0.294353 -0.528484
O21   O     O_3   0.687299 0.717780 0.332533 -0.531293
O22   O     O_3   0.285924 0.988705 0.328103 -0.532649
O23   O     O_R   0.666360 0.565170 0.575190 -0.502741
O24   O     O_3   0.333333 0.666667 0.026340 -0.345445
O25   O     O_R   0.480130 0.360720 0.570290 -0.497866
O26   O     O_R   0.639280 0.119410 0.570290 -0.498875
O27   O     O_R   0.880590 0.519870 0.570290 -0.497306
O28   O     O_R   0.439410 0.104260 0.424150 -0.457195
O29   O     O_R   0.895740 0.335150 0.424150 -0.458866

loop_
_geom_bond_atom_site_label_1
_geom_bond_atom_site_label_2
_ccdc_geom_bond_type
C33   H7    S    
C23   O27   A    
C11   C18   T    
Cr1   O1    S    
C32   H5    S    
C25   H19   S    
Cr4   O17   S    
Cr1   O6    S    
C9    C42   S    
C3    O18   A    
C35   H11   S    
C36   C37   S    
C9    C16   T    
Cr4   O7    S    
C4    O14   A    
C10   C17   T    
C22   C38   D    
C24   C39   D    
Cr6   O9    S    
C10   C40   S    
C5    O2    A    
Cr2   O4    S    
C32   H4    S    
Cr4   O10   S    
C11   C15   S    
C5    C22   S    
Cr6   O19   S    
C37   H17   S    
C29   C38   S    
Cr5   O24   S    
C40   O8    A    
Cr3   O6    S    
Cr5   O11   S    
C12   O26   A    
C27   H21   S    
C7    O5    A    
C4    O19   A    
C33   H8    S    
C28   C34   S    
C42   O7    A    
C12   O1    A    
C27   C30   D    
C14   C17   S    
Cr2   O26   S    
Cr5   O8    S    
C36   H14   S    
C32   H6    S    
C37   H15   S    
Cr1   O3    S    
C1    C19   S    
C23   O12   A    
C13   C19   T    
C18   C23   S    
C40   O10   A    
C3    C25   S    
Cr1   O28   S    
Cr3   O27   S    
C1    O25   A    
C21   C34   D    
C7    C21   S    
Cr3   O2    S    
C25   C28   D    
Cr5   O15   S    
C5    O3    A    
C2    O17   A    
C39   O22   S    
C14   C20   T    
C28   H1    S    
C31   C32   S    
C29   H12   S    
C1    O23   A    
C41   O9    A    
C12   C20   S    
Cr6   O16   S    
C2    O15   A    
C42   O13   A    
C8    C41   S    
C30   H18   S    
C8    C15   T    
C35   H10   S    
C2    C27   S    
Cr5   O18   S    
C31   H2    S    
C36   H13   S    
Cr3   O23   S    
C22   H23   S    
C37   H16   S    
C24   H24   S    
Cr6   O24   S    
C3    O16   A    
Cr1   O25   S    
C31   H3    S    
Cr2   O12   S    
C33   O21   S    
C4    C26   S    
Cr2   O29   S    
C6    O4    A    
C6    C24   S    
C21   H22   S    
C35   H9    S    
C26   H20   S    
Cr2   O6    S    
C38   O21   S    
C33   C35   S    
C30   C39   S    
C34   O20   S    
C36   O22   S    
Cr4   O24   S    
C26   C29   D    
C31   O20   S    
C7    O29   A    
C13   C16   S    
Cr6   O13   S    
Cr3   O5    S    
C6    O28   A    
Cr4   O14   S    
C41   O11   A    
