data_mof_unit_15939.cif
_audit_creation_date              2012-12-10T19:27:33-0500
_audit_creation_method            fapswitch 2.2
_symmetry_space_group_name_H-M    P1
_symmetry_Int_Tables_number       1
_space_group_crystal_system       triclinic
_cell_length_a                    23.417661
_cell_length_b                    10.489046
_cell_length_c                    9.746113
_cell_angle_alpha                 90.48109
_cell_angle_beta                  89.944516
_cell_angle_gamma                 90.012905
_cell_volume                      2393.8416761

loop_
_atom_site_label
_atom_site_type_symbol
_atom_type_description
_atom_site_fract_x
_atom_site_fract_y
_atom_site_fract_z
_atom_type_partial_charge
C1    C     C_R   0.500021 0.257453 0.499367 0.867622
C2    C     C_R   0.499978 0.742546 0.500636 0.867366
C3    C     C_R   0.238070 0.491241 0.376119 -0.131206
C4    C     C_R   0.761824 0.487514 0.375640 -0.133589
C5    C     C_R   0.297202 0.493208 0.375822 -0.225206
C6    C     C_R   0.702704 0.486495 0.375902 -0.223744
C7    C     C_R   0.327087 0.498341 0.500249 -0.064123
C8    C     C_R   0.672870 0.501232 0.499709 -0.064229
C9    C     C_R   0.297121 0.501498 0.624997 -0.248428
C10   C     C_R   0.702857 0.517437 0.623219 -0.248063
C11   C     C_R   0.237516 0.500079 0.626409 0.148470
C12   C     C_R   0.762473 0.519003 0.623933 0.145792
C13   C     C_R   0.208242 0.494677 0.500183 0.311438
C14   C     C_R   0.791695 0.503844 0.498350 0.311006
C15   C     C_3   0.546968 0.043084 0.564667 -0.174249
C16   C     C_3   0.453028 0.956915 0.435349 -0.174188
C17   C     C_3   0.547036 0.956916 0.435460 -0.171753
C18   C     C_3   0.452959 0.043084 0.564557 -0.172286
C19   C     C_3   0.499983 0.877654 0.501813 0.024261
C20   C     C_3   0.500012 0.122345 0.498201 0.024991
C21   C     C_3   0.499915 0.961113 0.631183 -0.143545
C22   C     C_3   0.500081 0.038885 0.368833 -0.142539
C23   C     C_R   0.389380 0.499707 0.500077 0.874445
C24   C     C_R   0.610605 0.500244 0.499928 0.874228
C25   C     C_3   0.492274 0.386199 0.047569 -0.072184
C26   C     C_3   0.507727 0.613801 0.952427 -0.073367
C27   C     C_3   0.540253 0.428176 0.950506 -0.073644
C28   C     C_3   0.459747 0.571825 0.049490 -0.073398
C29   C     C_3   0.451978 0.458064 0.951173 -0.075603
C30   C     C_3   0.548022 0.541937 0.048823 -0.076477
C31   C     C_R   0.881018 0.614952 0.481142 0.484668
C32   C     C_R   0.118926 0.382306 0.502980 0.485286
C33   C     C_R   0.879948 0.387853 0.502902 0.498436
C34   C     C_R   0.119986 0.609689 0.484599 0.497034
C35   C     C_R   0.939520 0.383816 0.501240 -0.012709
C36   C     C_R   0.060421 0.613347 0.481774 -0.012558
C37   C     C_R   0.969987 0.499200 0.490538 -0.024494
C38   C     C_R   0.029957 0.497842 0.491038 -0.024457
C39   C     C_R   0.940625 0.615987 0.479931 -0.013174
C40   C     C_R   0.059320 0.381030 0.501352 -0.013296
C41   C     C_R   0.969150 0.267926 0.510795 -0.164894
C42   C     C_R   0.030793 0.729107 0.470657 -0.165811
C43   C     C_R   0.028586 0.266526 0.510632 -0.163205
C44   C     C_R   0.971360 0.730397 0.469523 -0.163215
H1    H     H_    0.946563 0.178157 0.518818 0.191867
H2    H     H_    0.053379 0.818924 0.463212 0.191852
H3    H     H_    0.574117 0.367814 0.903666 0.117216
H4    H     H_    0.425891 0.632209 0.096324 0.118250
H5    H     H_    0.485743 0.290379 0.092498 0.117065
H6    H     H_    0.514259 0.709619 0.907494 0.116972
H7    H     H_    0.411564 0.422751 0.905061 0.117280
H8    H     H_    0.588437 0.577249 0.094928 0.119447
H9    H     H_    0.215130 0.487430 0.279770 0.133671
H10   H     H_    0.784740 0.475078 0.280055 0.138320
H11   H     H_    0.319399 0.490572 0.278281 0.161980
H12   H     H_    0.680472 0.473490 0.279379 0.160770
H13   H     H_    0.319947 0.505016 0.721646 0.155733
H14   H     H_    0.680025 0.529846 0.719196 0.158399
H15   H     H_    0.585274 0.916896 0.383227 0.140443
H16   H     H_    0.414721 0.083104 0.616793 0.139296
H17   H     H_    0.585148 0.083108 0.616998 0.138394
H18   H     H_    0.414847 0.916890 0.383021 0.139324
H19   H     H_    0.499843 0.925388 0.738105 0.135648
H20   H     H_    0.500152 0.074608 0.261910 0.135872
N1    N     N_R   0.852364 0.502217 0.494007 -0.360938
N2    N     N_R   0.147572 0.495541 0.496045 -0.360791
N3    N     N_3   0.499960 0.500030 0.863290 -0.072989
N4    N     N_3   0.500040 0.499970 0.136710 -0.073138
O1    O     O_R   0.500000 0.313960 0.616610 -0.620001
O2    O     O_R   0.500000 0.686040 0.383390 -0.619745
O3    O     O_R   0.500030 0.313950 0.383350 -0.627589
O4    O     O_R   0.499970 0.686050 0.616650 -0.627903
O5    O     O_R   0.416140 0.499970 0.616650 -0.624869
O6    O     O_R   0.583860 0.500030 0.383350 -0.623246
O7    O     O_R   0.416170 0.499960 0.383400 -0.622037
O8    O     O_R   0.583830 0.500040 0.616600 -0.623553
O9    O     O_2   0.851738 0.725279 0.470797 -0.554814
O10   O     O_2   0.148208 0.271902 0.512399 -0.555157
O11   O     O_2   0.849652 0.278904 0.513794 -0.564265
O12   O     O_2   0.150275 0.718874 0.476410 -0.565084
Zn1   Zn    Zn3+2 0.499980 0.500010 0.655740 0.937351
Zn2   Zn    Zn3+2 0.500020 0.499990 0.344260 0.939247
H21   H     H_    0.050306 0.175716 0.518519 0.191152
H22   H     H_    0.949640 0.821176 0.461268 0.191515
C45   C     C_3   0.206570 0.503984 0.762762 -0.426814
C46   C     C_3   0.210164 0.637102 0.828375 -0.346342
C47   C     C_3   0.178981 0.641553 0.965895 -0.844347
H23   H     H_    0.133063 0.618369 0.951681 0.265702
H24   H     H_    0.198289 0.572505 0.038083 0.253474
H25   H     H_    0.182448 0.738728 0.011190 0.262053
H26   H     H_    0.255570 0.663823 0.845302 0.219543
H27   H     H_    0.190609 0.708136 0.758637 0.261480
H28   H     H_    0.160956 0.477357 0.751034 0.212308
H29   H     H_    0.226003 0.432524 0.832261 0.203904
C48   C     C_3   0.793564 0.537698 0.758611 -0.421332
C49   C     C_3   0.789622 0.417917 0.847148 -0.341661
C50   C     C_3   0.822994 0.434802 0.980440 -0.865270
H30   H     H_    0.869115 0.448501 0.958201 0.269390
H31   H     H_    0.806763 0.518774 0.038634 0.258687
H32   H     H_    0.817944 0.348566 0.044644 0.256875
H33   H     H_    0.744235 0.397691 0.872478 0.215931
H34   H     H_    0.807274 0.334817 0.789650 0.261089
H35   H     H_    0.839245 0.561134 0.741882 0.213099
H36   H     H_    0.774483 0.620217 0.814454 0.205879

loop_
_geom_bond_atom_site_label_1
_geom_bond_atom_site_label_2
_ccdc_geom_bond_type
C47   H23   S    
C8    C24   S    
C49   H34   S    
C18   C21   S    
C43   H21   S    
C36   C42   A    
C48   C49   S    
C34   N2    A    
C50   H30   S    
C33   N1    A    
C45   C46   S    
C6    H12   S    
C1    O3    A    
C16   H18   S    
C26   N3    S    
C28   C29   S    
C35   C37   A    
C23   O5    A    
C46   H26   S    
C26   H6    S    
C33   C35   A    
C11   C13   A    
C18   C20   S    
C31   N1    A    
C42   H2    S    
C34   O12   S    
C29   N3    S    
C45   H28   S    
C40   C43   A    
C10   H14   S    
C12   C48   S    
C34   C36   A    
O4    Zn1   S    
C3    C13   A    
O3    Zn2   S    
C4    H10   S    
C49   H33   S    
C27   C30   S    
C41   C43   A    
C25   N4    S    
C42   C44   A    
O6    Zn2   S    
C2    O4    A    
O5    Zn1   S    
C50   H31   S    
C48   H35   S    
C31   O9    S    
C13   N2    S    
C25   C29   S    
C15   C20   S    
C27   N3    S    
C4    C6    A    
C23   O7    A    
C5    C7    A    
C46   C47   S    
C24   O8    A    
C6    C8    A    
C3    C5    A    
C22   H20   S    
C1    O1    A    
C37   C38   A    
C45   H29   S    
C49   C50   S    
C15   H17   S    
C9    C11   A    
C10   C12   A    
C17   H15   S    
C18   H16   S    
C20   C22   S    
C26   C30   S    
C47   H24   S    
C50   H32   S    
C48   H36   S    
C32   N2    A    
C29   H7    S    
O2    Zn2   S    
C27   H3    S    
C15   C17   S    
C30   H8    S    
C28   H4    S    
C1    C20   S    
C16   C22   S    
C28   N4    S    
C2    C19   S    
C5    H11   S    
C8    C10   A    
C33   O11   S    
C12   C14   A    
C44   H22   S    
O8    Zn1   S    
O7    Zn2   S    
N3    Zn1   S    
C39   C44   A    
C25   C27   S    
C26   C28   S    
C17   C22   S    
N4    Zn2   S    
C36   C38   A    
C37   C39   A    
C46   H27   S    
C38   C40   A    
C3    H9    S    
C24   O6    A    
C11   C45   S    
C16   C19   S    
C7    C23   S    
C17   C19   S    
C14   N1    S    
C31   C39   A    
C9    H13   S    
C32   C40   A    
C4    C14   A    
C35   C41   A    
C25   H5    S    
C21   H19   S    
O1    Zn1   S    
C32   O10   S    
C7    C9    A    
C15   C21   S    
C16   C18   S    
C47   H25   S    
C41   H1    S    
C2    O2    A    
C30   N4    S    
C19   C21   S    
