data_mof_unit_57568.cif
_audit_creation_date              2012-12-10T17:07:45-0500
_audit_creation_method            fapswitch 2.2
_symmetry_space_group_name_H-M    P1
_symmetry_Int_Tables_number       1
_space_group_crystal_system       triclinic
_cell_length_a                    10.65034
_cell_length_b                    10.626785
_cell_length_c                    10.020101
_cell_angle_alpha                 89.183528
_cell_angle_beta                  90.18419
_cell_angle_gamma                 90.187195
_cell_volume                      1133.93685497

loop_
_atom_site_label
_atom_site_type_symbol
_atom_type_description
_atom_site_fract_x
_atom_site_fract_y
_atom_site_fract_z
_atom_type_partial_charge
C1    C     C_R   0.513026 0.263031 0.500855 0.935702
C2    C     C_2   0.582111 0.561124 0.074410 -0.138201
C3    C     C_R   0.257814 0.499314 0.499520 0.884197
C4    C     C_R   0.501568 0.737824 0.499093 0.949908
C5    C     C_R   0.742041 0.498227 0.499959 0.876864
C6    C     C_3   0.071002 0.398008 0.596302 -0.072663
C7    C     C_3   0.926833 0.391609 0.589230 -0.523792
C8    C     C_3   0.073568 0.635005 0.544066 -0.133926
C9    C     C_3   0.070390 0.478081 0.354783 -0.405475
C10   C     C_3   0.121110 0.502560 0.497895 0.098439
C11   C     C_3   0.126798 0.746381 0.456631 -0.389682
C12   C     C_3   0.878226 0.500660 0.499481 0.130670
C13   C     C_3   0.155684 0.864034 0.538699 -0.375963
C14   C     C_3   0.195482 0.973866 0.448302 -0.903038
C15   C     C_3   0.645234 0.132402 0.278243 -0.338177
C16   C     C_3   0.733581 0.051810 0.194053 -0.410058
C17   C     C_3   0.792672 0.129728 0.081319 -0.887436
C18   C     C_3   0.926570 0.628529 0.555770 -0.066211
C19   C     C_3   0.927924 0.479991 0.355299 -0.410238
C20   C     C_2   0.589554 0.929147 0.414641 -0.158905
C21   C     C_2   0.508075 0.870893 0.496269 -0.364536
C22   C     C_2   0.593153 0.067122 0.403347 0.126499
C23   C     C_2   0.545211 0.132183 0.506094 -0.407658
C24   C     C_2   0.586442 0.554675 0.924455 -0.135455
H1    H     H_    0.097469 0.424940 0.699841 0.151568
H2    H     H_    0.893814 0.300009 0.549065 0.175984
H3    H     H_    0.888580 0.398201 0.692197 0.175058
H4    H     H_    0.110775 0.648051 0.647131 0.129842
H5    H     H_    0.904065 0.628688 0.664381 0.133040
H6    H     H_    0.104885 0.550920 0.282804 0.176714
H7    H     H_    0.103830 0.386126 0.317273 0.180022
H8    H     H_    0.892283 0.388870 0.316325 0.170509
H9    H     H_    0.270177 0.944667 0.378244 0.274545
H10   H     H_    0.113665 0.008950 0.389857 0.254968
H11   H     H_    0.233192 0.051100 0.510127 0.258538
H12   H     H_    0.894531 0.555080 0.285498 0.176097
H13   H     H_    0.073467 0.892801 0.598371 0.218231
H14   H     H_    0.233172 0.842208 0.609769 0.214610
H15   H     H_    0.216769 0.719727 0.409741 0.201624
H16   H     H_    0.064857 0.769896 0.371090 0.209161
H17   H     H_    0.887454 0.820119 0.537574 0.194073
H18   H     H_    0.866634 0.739580 0.392619 0.176751
H19   H     H_    0.718580 0.169934 0.015238 0.266763
H20   H     H_    0.850236 0.207443 0.122689 0.254038
H21   H     H_    0.854408 0.068868 0.020946 0.247436
H22   H     H_    0.809961 0.012802 0.258137 0.219095
H23   H     H_    0.649706 0.872899 0.351984 0.152870
H24   H     H_    0.680147 0.973004 0.148928 0.224709
H25   H     H_    0.565477 0.163772 0.214283 0.215788
H26   H     H_    0.699624 0.216611 0.309625 0.204837
H27   H     H_    0.091046 0.238029 0.482397 0.195602
H28   H     H_    0.101334 0.212869 0.647976 0.187959
H29   H     H_    0.443616 0.918670 0.561325 0.147756
H30   H     H_    0.532051 0.088363 0.603483 0.149420
H31   H     H_    0.665135 0.599794 0.874441 0.156753
H32   H     H_    0.423181 0.464735 0.898146 0.158602
H33   H     H_    0.652769 0.618059 0.123459 0.150609
H34   H     H_    0.438944 0.441610 0.102821 0.158447
N1    N     N_2   0.501360 0.501330 0.852150 -0.193491
N2    N     N_2   0.501390 0.501360 0.147810 -0.195210
N3    N     N_3   0.857878 0.735551 0.496234 -0.475364
N4    N     N_3   0.127332 0.274788 0.570726 -0.466622
O1    O     O_R   0.499980 0.319060 0.613040 -0.606290
O2    O     O_R   0.500020 0.319100 0.386900 -0.618804
O3    O     O_R   0.314770 0.499960 0.613070 -0.626663
O4    O     O_R   0.314820 0.500000 0.386930 -0.631692
O5    O     O_R   0.499980 0.680900 0.613100 -0.607482
O6    O     O_R   0.500020 0.680940 0.386960 -0.608085
O7    O     O_R   0.685180 0.500000 0.613070 -0.627199
O8    O     O_R   0.685230 0.500040 0.386930 -0.636127
Zn1   Zn    Zn3+2 0.499970 0.499970 0.650990 0.933133
Zn2   Zn    Zn3+2 0.500030 0.500030 0.349010 0.917013

loop_
_geom_bond_atom_site_label_1
_geom_bond_atom_site_label_2
_ccdc_geom_bond_type
C6    C10   S    
C4    O5    A    
C11   H15   S    
C17   H19   S    
C18   N3    S    
C14   H10   S    
C6    C7    S    
O4    Zn2   S    
C9    C10   S    
C13   H13   S    
H32   N1    S    
H17   N3    S    
O6    Zn2   S    
N1    Zn1   S    
C6    N4    S    
C14   H9    S    
C15   H25   S    
C2    H33   S    
C18   H5    S    
H28   N4    S    
C13   C14   S    
C24   H31   S    
C21   H29   S    
C4    C21   S    
C11   C13   S    
H18   N3    S    
C16   H24   S    
C13   H14   S    
C3    O3    A    
H27   N4    S    
C7    H2    S    
C9    H6    S    
C5    C12   S    
C24   N1    D    
C19   H8    S    
C1    O1    A    
C12   C19   S    
C20   C22   S    
C1    C23   S    
O5    Zn1   S    
C19   H12   S    
O2    Zn2   S    
N2    Zn2   S    
C2    C24   S    
C11   H16   S    
C8    H4    S    
C2    N2    D    
C7    C12   S    
C17   H20   S    
C6    H1    S    
O7    Zn1   S    
C8    C11   S    
H34   N2    S    
C15   C16   S    
C3    O4    A    
C1    O2    A    
C7    H3    S    
C20   C21   D    
C23   H30   S    
C8    C10   S    
C9    C19   S    
C15   H26   S    
C16   H22   S    
C14   H11   S    
C3    C10   S    
C9    H7    S    
C22   C23   D    
O8    Zn2   S    
O3    Zn1   S    
C4    O6    A    
C5    O7    A    
C15   C22   S    
C8    C18   S    
C20   H23   S    
C17   H21   S    
O1    Zn1   S    
C16   C17   S    
C5    O8    A    
C12   C18   S    
