data_mof_unit_15330.cif
_audit_creation_date              2012-12-10T21:07:42-0500
_audit_creation_method            fapswitch 2.2
_symmetry_space_group_name_H-M    P1
_symmetry_Int_Tables_number       1
_space_group_crystal_system       triclinic
_cell_length_a                    8.588387
_cell_length_b                    17.466961
_cell_length_c                    16.843024
_cell_angle_alpha                 87.867569
_cell_angle_beta                  97.838362
_cell_angle_gamma                 92.413256
_cell_volume                      2499.58149539

loop_
_atom_site_label
_atom_site_type_symbol
_atom_type_description
_atom_site_fract_x
_atom_site_fract_y
_atom_site_fract_z
_atom_type_partial_charge
C1    C     C_R   0.506474 0.353251 0.502125 0.998637
C2    C     C_R   0.491330 0.646308 0.497936 0.986656
C3    C     C_1   0.441361 0.962827 0.529444 0.235691
C4    C     C_1   0.443360 0.031116 0.528347 0.257068
C5    C     C_R   0.401427 0.456113 0.830583 -0.251079
C6    C     C_R   0.598609 0.542994 0.169133 -0.262222
C7    C     C_R   0.396948 0.453622 0.746915 0.563019
C8    C     C_R   0.603767 0.545668 0.252834 0.507982
C9    C     C_R   0.606838 0.547045 0.752127 -0.017901
C10   C     C_R   0.391449 0.453648 0.248010 -0.012813
C11   C     C_R   0.612955 0.549562 0.836771 -0.214615
C12   C     C_R   0.384326 0.451123 0.163308 -0.209182
C13   C     C_R   0.508103 0.503307 0.876676 0.055440
C14   C     C_R   0.490049 0.496599 0.123189 0.058515
C15   C     C_1   0.503643 0.501882 0.963892 0.034706
C16   C     C_1   0.493843 0.497963 0.035920 0.032077
C17   C     C_R   0.200980 0.497957 0.479511 1.011834
C18   C     C_R   0.798988 0.500640 0.520590 1.014416
C19   C     C_2   0.036422 0.491976 0.469046 -0.252703
C20   C     C_2   0.963517 0.503636 0.531586 -0.247983
C21   C     C_R   0.586918 0.846165 0.554501 0.339938
C22   C     C_R   0.406746 0.150517 0.449707 0.434186
C23   C     C_R   0.599746 0.769336 0.540808 -0.270554
C24   C     C_R   0.427169 0.229516 0.443904 -0.308427
C25   C     C_R   0.478236 0.728721 0.495385 -0.256971
C26   C     C_R   0.507683 0.269906 0.507665 -0.282492
C27   C     C_R   0.337336 0.764458 0.462663 0.232863
C28   C     C_R   0.573442 0.230890 0.578822 0.337209
C29   C     C_R   0.316212 0.840401 0.484960 0.314173
C30   C     C_R   0.530417 0.152848 0.590113 0.315231
C31   C     C_R   0.445945 0.881823 0.525577 -0.195923
C32   C     C_R   0.454941 0.112472 0.523611 -0.234812
H1    H     H_    0.975509 0.477514 0.410413 0.200357
H2    H     H_    0.024367 0.517665 0.590415 0.205488
H3    H     H_    0.704478 0.740061 0.566706 0.209759
H4    H     H_    0.378573 0.260005 0.389555 0.218048
H5    H     H_    0.318878 0.420674 0.860531 0.201504
H6    H     H_    0.682212 0.577526 0.138995 0.201708
H7    H     H_    0.688169 0.583144 0.722443 0.162964
H8    H     H_    0.309454 0.418117 0.277850 0.158976
H9    H     H_    0.698537 0.587407 0.870438 0.176418
H10   H     H_    0.297347 0.413858 0.129774 0.177659
N1    N     N_R   0.500040 0.500030 0.707230 -0.151327
N2    N     N_R   0.499960 0.499970 0.292770 -0.149844
O1    O     O_R   0.500000 0.389130 0.566570 -0.513761
O2    O     O_R   0.500000 0.610870 0.433430 -0.533300
O3    O     O_R   0.499990 0.389100 0.433480 -0.658820
O4    O     O_R   0.500010 0.610900 0.566520 -0.647332
O5    O     O_R   0.271750 0.500010 0.550980 -0.588167
O6    O     O_R   0.728250 0.499990 0.449020 -0.582588
O7    O     O_R   0.271740 0.499980 0.417890 -0.602822
O8    O     O_R   0.728260 0.500020 0.582110 -0.605778
Zn1   Zn    Zn3+2 0.500010 0.500020 0.588860 1.072275
Zn2   Zn    Zn3+2 0.499990 0.499980 0.411140 1.058898
S1    S     S_3+6 0.743481 0.894498 0.614493 0.130963
O9    O     O_2   0.689272 0.911177 0.692937 -0.203225
O10   O     O_2   0.885377 0.845919 0.630698 -0.197982
O11   O     O_3   0.792506 0.977616 0.568932 -0.473329
H11   H     H_    0.790380 0.965363 0.511834 0.362731
S2    S     S_3+6 0.311102 0.102177 0.364807 0.066836
O12   O     O_2   0.143981 0.083072 0.377565 -0.251236
O13   O     O_2   0.311572 0.152632 0.290531 -0.257426
O14   O     O_3   0.402493 0.021014 0.352461 -0.548218
H12   H     H_    0.338116 0.996301 0.306432 0.411178
S3    S     S_3+6 0.188336 0.713480 0.398230 0.112562
O15   O     O_2   0.257259 0.659535 0.346295 -0.260229
O16   O     O_2   0.086631 0.668028 0.450004 -0.257452
O17   O     O_3   0.075042 0.772461 0.336275 -0.405140
H13   H     H_    0.144960 0.794527 0.298460 0.372920
S4    S     S_3+6 0.722623 0.277412 0.646954 0.117414
O18   O     O_2   0.811602 0.336656 0.602155 -0.333901
O19   O     O_2   0.647649 0.315933 0.709707 -0.222967
O20   O     O_3   0.852514 0.214832 0.691928 -0.444938
H14   H     H_    0.927815 0.245875 0.728652 0.417641
S5    S     S_3+6 0.127607 0.882226 0.471291 0.111654
O21   O     O_2   0.100759 0.920683 0.389538 -0.254424
O22   O     O_2   0.998803 0.822481 0.478419 -0.189562
O23   O     O_3   0.118395 0.947319 0.541655 -0.474612
H15   H     H_    0.088674 0.995641 0.511912 0.395979
S6    S     S_3+6 0.558588 0.106961 0.687214 0.149706
O24   O     O_2   0.716964 0.071785 0.700464 -0.142498
O25   O     O_2   0.549863 0.163848 0.751081 -0.183428
O26   O     O_3   0.418611 0.037805 0.695083 -0.513038
H16   H     H_    0.449891 0.011793 0.747758 0.410003
S7    S     S_3+6 0.244058 0.389223 0.703286 0.067967
O27   O     O_2   0.255430 0.315905 0.753117 -0.256800
O28   O     O_2   0.090383 0.423783 0.712319 -0.310957
O29   O     O_3   0.237751 0.365104 0.607724 -0.541163
H17   H     H_    0.146713 0.328370 0.597749 0.393178
S8    S     S_3+6 0.759639 0.608261 0.296587 0.097495
O30   O     O_2   0.911473 0.569914 0.292519 -0.261480
O31   O     O_2   0.759182 0.679736 0.243796 -0.268435
O32   O     O_3   0.759766 0.635749 0.390772 -0.496407
H18   H     H_    0.767932 0.692516 0.388627 0.408342

loop_
_geom_bond_atom_site_label_1
_geom_bond_atom_site_label_2
_ccdc_geom_bond_type
S1    O9    D    
O32   H18   S    
C5    H5    S    
C27   C29   A    
O20   H14   S    
C19   C20   D    
C17   O7    A    
C18   O8    A    
S7    O27   D    
C2    O2    A    
C21   C31   A    
O6    Zn2   S    
C22   C32   A    
S2    O14   S    
S2    O13   D    
C24   C26   A    
C22   S2    S    
C15   C16   T    
C9    H7    S    
C18   C20   S    
C10   H8    S    
C12   H10   S    
N1    Zn1   S    
O17   H13   S    
S3    O16   D    
C6    H6    S    
S4    O18   D    
C7    N1    A    
C5    C13   A    
C30   S6    S    
O1    Zn1   S    
S6    O26   S    
S7    O28   D    
C21   C23   A    
O4    Zn1   S    
C9    N1    A    
C10   N2    A    
S6    O25   D    
C19   H1    S    
C17   O5    A    
C5    C7    A    
O23   H15   S    
C1    O3    A    
C6    C8    A    
C2    O4    A    
O11   H11   S    
S2    O12   D    
S5    O21   D    
C27   S3    S    
C6    C14   A    
C9    C11   A    
S8    O31   D    
O26   H16   S    
S3    O17   S    
O2    Zn2   S    
S4    O20   S    
S1    O10   D    
C24   H4    S    
C3    C31   S    
S5    O22   D    
C4    C32   S    
C10   C12   A    
O3    Zn2   S    
C12   C14   A    
C23   H3    S    
C13   C15   S    
C1    C26   S    
C14   C16   S    
C8    S8    S    
C3    C4    T    
O8    Zn1   S    
C18   O6    A    
S8    O32   S    
C21   S1    S    
S7    O29   S    
C28   S4    S    
C8    N2    A    
S6    O24   D    
C29   S5    S    
C25   C27   A    
C26   C28   A    
O7    Zn2   S    
C28   C30   A    
C20   H2    S    
C29   C31   A    
C30   C32   A    
C11   C13   A    
C1    O1    A    
S8    O30   D    
C7    S7    S    
O5    Zn1   S    
C17   C19   S    
C11   H9    S    
C2    C25   S    
C22   C24   A    
C23   C25   A    
S5    O23   S    
O14   H12   S    
N2    Zn2   S    
O29   H17   S    
S3    O15   D    
S1    O11   S    
S4    O19   D    
