data_mof_unit_8616.cif
_audit_creation_date              2012-12-10T20:32:44-0500
_audit_creation_method            fapswitch 2.2
_symmetry_space_group_name_H-M    P1
_symmetry_Int_Tables_number       1
_space_group_crystal_system       triclinic
_cell_length_a                    11.49159
_cell_length_b                    10.687805
_cell_length_c                    9.980805
_cell_angle_alpha                 90.406606
_cell_angle_beta                  91.916165
_cell_angle_gamma                 90.635679
_cell_volume                      1225.04613641

loop_
_atom_site_label
_atom_site_type_symbol
_atom_type_description
_atom_site_fract_x
_atom_site_fract_y
_atom_site_fract_z
_atom_type_partial_charge
C1    C     C_R   0.502826 0.260512 0.499816 0.869435
C2    C     C_R   0.517567 0.129025 0.501279 -0.081123
C3    C     C_R   0.545834 0.064096 0.384721 -0.225405
C4    C     C_R   0.544407 0.934733 0.385465 -0.204689
C5    C     C_R   0.514231 0.871686 0.502614 -0.117112
C6    C     C_R   0.504622 0.937725 0.622822 0.009841
C7    C     C_3   0.413692 0.935954 0.729257 0.279147
C8    C     C_3   0.417875 0.078728 0.725828 -0.465732
C9    C     C_R   0.414623 0.438558 0.066125 0.010646
C10   C     C_R   0.585849 0.558195 0.078746 0.124718
C11   C     C_R   0.592965 0.548443 0.935576 0.125666
C12   C     C_R   0.282263 0.500400 0.498230 0.884003
C13   C     C_R   0.416876 0.434966 0.924747 0.032167
C14   C     C_3   0.288292 0.447090 0.906340 -0.093201
C15   C     C_3   0.284447 0.462734 0.059293 0.240257
C16   C     C_R   0.501378 0.739647 0.500536 0.855730
C17   C     C_R   0.717766 0.500422 0.501805 0.907314
C18   C     C_1   0.161648 0.501360 0.495487 -0.224250
C19   C     C_1   0.059351 0.501879 0.497736 -0.003114
C20   C     C_1   0.940751 0.501866 0.502541 -0.004744
C21   C     C_1   0.838426 0.501326 0.504707 -0.202852
C22   C     C_R   0.506733 0.065427 0.621270 0.058939
H1    H     H_    0.562386 0.112256 0.292004 0.169198
H2    H     H_    0.560706 0.884994 0.293125 0.170872
H3    H     H_    0.336444 0.122273 0.686090 0.177878
H4    H     H_    0.456266 0.124666 0.817559 0.190427
H5    H     H_    0.261936 0.530935 0.847807 0.176183
N1    N     N_R   0.499240 0.499140 0.142800 -0.119238
N2    N     N_R   0.499240 0.499180 0.857150 -0.127946
O1    O     O_R   0.500010 0.316790 0.614690 -0.611071
O2    O     O_R   0.500000 0.316760 0.385350 -0.620499
O3    O     O_R   0.334450 0.500030 0.614670 -0.626648
O4    O     O_R   0.334440 0.500000 0.385330 -0.635280
O5    O     O_R   0.500000 0.683240 0.614650 -0.640933
O6    O     O_R   0.499990 0.683210 0.385310 -0.604354
O7    O     O_R   0.665560 0.500000 0.614670 -0.618691
O8    O     O_R   0.665550 0.499970 0.385330 -0.593909
Zn1   Zn    Zn3+2 0.500010 0.500020 0.653130 0.920381
Zn2   Zn    Zn3+2 0.499990 0.499980 0.346870 0.938464
N3    N     N_3   0.231825 0.331715 0.854889 -0.427150
H6    H     H_    0.275054 0.253028 0.892321 0.183904
H7    H     H_    0.239457 0.329063 0.750972 0.206593
C23   C     C_3   0.249643 0.597924 0.097905 -0.389835
C24   C     C_3   0.119437 0.621094 0.074688 -0.863900
H8    H     H_    0.092292 0.601628 0.968725 0.263248
H9    H     H_    0.067609 0.561103 0.141377 0.269377
H10   H     H_    0.100502 0.720462 0.097698 0.244464
H11   H     H_    0.273065 0.619901 0.203435 0.243885
H12   H     H_    0.298965 0.665706 0.037419 0.188227
N4    N     N_3   0.215492 0.364769 0.124177 -0.408701
H13   H     H_    0.260565 0.280221 0.125707 0.166682
H14   H     H_    0.203730 0.389156 0.224092 0.210796
N5    N     N_3   0.300175 0.884649 0.682274 -0.441464
H15   H     H_    0.279389 0.917034 0.585775 0.170102
H16   H     H_    0.305445 0.787265 0.675684 0.193617
C25   C     C_3   0.457264 0.880304 0.864035 -0.354466
C26   C     C_3   0.377118 0.911257 0.978701 -0.889100
H17   H     H_    0.375677 0.013619 0.997927 0.254884
H18   H     H_    0.287007 0.877637 0.954754 0.276496
H19   H     H_    0.409615 0.864952 0.071706 0.241866
H20   H     H_    0.462796 0.777039 0.854256 0.222490
H21   H     H_    0.545970 0.916997 0.890831 0.188190
N6    N     N_3   0.665555 0.634632 0.157937 -0.395787
H22   H     H_    0.672955 0.722765 0.114319 0.161453
H23   H     H_    0.746954 0.592491 0.166228 0.182014
C27   C     C_3   0.713424 0.571252 0.881105 -0.321117
C28   C     C_3   0.731524 0.700220 0.819777 -0.834103
H24   H     H_    0.824396 0.711932 0.794550 0.237379
H25   H     H_    0.679202 0.712451 0.726990 0.292470
H26   H     H_    0.709824 0.774959 0.891978 0.222749
H27   H     H_    0.781517 0.564019 0.961416 0.157864
H28   H     H_    0.740403 0.491980 0.819303 0.226401

loop_
_geom_bond_atom_site_label_1
_geom_bond_atom_site_label_2
_ccdc_geom_bond_type
N2    Zn1   S    
C2    C22   A    
C1    O1    A    
C8    C22   S    
C23   C24   S    
N6    H23   S    
C6    C7    S    
C17   O7    A    
O3    Zn1   S    
C14   H5    S    
C17   C21   S    
C8    H4    S    
C23   H11   S    
N4    H14   S    
C27   H27   S    
C14   C15   S    
C24   H10   S    
C13   N2    A    
C28   H26   S    
C26   H19   S    
C10   N6    S    
N3    H7    S    
N4    H13   S    
C9    C15   S    
C15   C23   S    
C7    C8    S    
O8    Zn2   S    
C17   O8    A    
N5    H15   S    
C12   O3    A    
C8    H3    S    
O1    Zn1   S    
C26   H17   S    
O4    Zn2   S    
C7    C25   S    
C12   C18   S    
C5    C6    A    
O7    Zn1   S    
N3    H6    S    
C24   H9    S    
C2    C3    A    
N5    H16   S    
C16   O6    A    
O6    Zn2   S    
C4    H2    S    
C25   H21   S    
C26   H18   S    
C24   H8    S    
C10   C11   A    
C7    N5    S    
C14   N3    S    
C28   H24   S    
C6    C22   A    
C1    O2    A    
C27   C28   S    
C20   C21   T    
C11   N2    A    
C1    C2    S    
C15   N4    S    
C10   N1    A    
C25   C26   S    
C18   C19   T    
C9    C13   A    
C25   H20   S    
C23   H12   S    
C5    C16   S    
N1    Zn2   S    
C16   O5    A    
C12   O4    A    
C13   C14   S    
C4    C5    A    
C3    H1    S    
C27   H28   S    
C3    C4    A    
C19   C20   S    
C9    N1    A    
O2    Zn2   S    
N6    H22   S    
C28   H25   S    
C11   C27   S    
O5    Zn1   S    
