data_mof_unit_57092.cif
_audit_creation_date              2012-12-11T14:41:12-0500
_audit_creation_method            fapswitch 2.2
_symmetry_space_group_name_H-M    P1
_symmetry_Int_Tables_number       1
_space_group_crystal_system       triclinic
_cell_length_a                    24.70817
_cell_length_b                    17.788976
_cell_length_c                    15.562683
_cell_angle_alpha                 90.24734
_cell_angle_beta                  129.588943
_cell_angle_gamma                 89.834181
_cell_volume                      5271.34419899

loop_
_atom_site_label
_atom_site_type_symbol
_atom_type_description
_atom_site_fract_x
_atom_site_fract_y
_atom_site_fract_z
_atom_type_partial_charge
C1    C     C_R   0.334786 0.387992 0.202642 -0.135758
C2    C     C_R   0.681551 0.611365 0.489960 -0.022052
C3    C     C_1   0.204073 0.732935 0.295651 0.013053
C4    C     C_1   0.700039 0.615456 0.308183 0.049717
C5    C     C_1   0.773456 0.420679 0.416086 0.025880
C6    C     C_1   0.199833 0.115601 0.307928 0.049722
C7    C     C_1   0.273147 0.920630 0.415528 0.025722
C8    C     C_1   0.198128 0.610707 0.973369 0.058618
C9    C     C_1   0.195851 0.387092 0.978795 0.052467
C10   C     C_1   0.698155 0.110696 0.973373 0.058623
C11   C     C_1   0.695817 0.887080 0.978794 0.052515
C12   C     C_1   0.342696 0.711038 0.996768 0.037214
C13   C     C_R   0.184715 0.884786 0.497323 -0.031485
C14   C     C_1   0.339202 0.296247 0.988397 0.036071
C15   C     C_1   0.842712 0.211108 0.996825 0.037261
C16   C     C_1   0.839174 0.796327 0.988329 0.036074
C17   C     C_1   0.414527 0.208672 0.655173 0.059255
C18   C     C_1   0.422739 0.774920 0.708229 0.043753
C19   C     C_1   0.914585 0.708665 0.655252 0.059247
C20   C     C_1   0.922597 0.274606 0.708525 0.043566
C21   C     C_R   0.181555 0.111324 0.489946 -0.022026
C22   C     C_R   0.341617 0.334011 0.493793 0.016223
C23   C     C_R   0.355476 0.677348 0.502019 0.025817
C24   C     C_R   0.841671 0.833956 0.493802 0.016237
C25   C     C_R   0.855417 0.177277 0.502050 0.025850
C26   C     C_3   0.344682 0.197555 0.545119 -0.114054
C27   C     C_3   0.361413 0.800063 0.595973 -0.122871
C28   C     C_3   0.844729 0.697523 0.545221 -0.114227
C29   C     C_R   0.334839 0.611248 0.201621 -0.132319
C30   C     C_3   0.861400 0.299872 0.596249 -0.122793
C31   C     C_3   0.802477 0.641053 0.557238 -0.429909
C32   C     C_3   0.813232 0.345654 0.608306 -0.422313
C33   C     C_3   0.302435 0.141013 0.557048 -0.430027
C34   C     C_3   0.313268 0.845834 0.608113 -0.422265
C35   C     C_3   0.272920 0.298339 0.548941 -0.418252
C36   C     C_3   0.268099 0.699238 0.523266 -0.420831
C37   C     C_3   0.772921 0.798351 0.548872 -0.418217
C38   C     C_3   0.767910 0.199166 0.523005 -0.420853
C39   C     C_3   0.234405 0.250668 0.360837 0.037553
C40   C     C_R   0.834777 0.888020 0.202623 -0.135814
C41   C     C_3   0.264968 0.780449 0.383714 0.026762
C42   C     C_3   0.734487 0.750576 0.360857 0.037507
C43   C     C_3   0.765085 0.280538 0.383878 0.026842
C44   C     C_3   0.299793 0.271392 0.487116 0.212265
C45   C     C_3   0.314547 0.738200 0.501435 0.224948
C46   C     C_3   0.799843 0.771350 0.487133 0.212294
C47   C     C_3   0.814510 0.238134 0.501493 0.224921
C48   C     C_3   0.724739 0.666240 0.484471 0.262550
C49   C     C_3   0.735195 0.336959 0.499776 0.282903
C50   C     C_3   0.224717 0.166232 0.484438 0.262533
C51   C     C_R   0.834846 0.111274 0.201640 -0.132252
C52   C     C_3   0.235196 0.836975 0.499725 0.282986
C53   C     C_3   0.720256 0.742090 0.530580 -0.427120
C54   C     C_3   0.713189 0.254833 0.500123 -0.436619
C55   C     C_3   0.220295 0.242043 0.530700 -0.427005
C56   C     C_3   0.213340 0.754843 0.500379 -0.436633
C57   C     C_R   0.652189 0.364622 0.762911 -0.137384
C58   C     C_R   0.652035 0.635778 0.762272 -0.136980
C59   C     C_R   0.152194 0.864627 0.762925 -0.137389
C60   C     C_R   0.152020 0.135795 0.762225 -0.136916
C61   C     C_3   0.696178 0.681681 0.362402 -0.146291
C62   C     C_R   0.622208 0.326710 0.800593 0.147229
C63   C     C_3   0.734177 0.351530 0.398560 -0.179405
C64   C     C_3   0.196082 0.181770 0.362349 -0.146278
C65   C     C_3   0.234019 0.851431 0.398326 -0.179370
C66   C     C_2   0.649533 0.258193 0.865868 -0.191742
C67   C     C_2   0.649501 0.741179 0.867975 -0.195601
C68   C     C_2   0.149544 0.758208 0.865898 -0.191758
C69   C     C_2   0.149462 0.241229 0.867870 -0.195674
C70   C     C_2   0.694545 0.214815 0.867273 -0.157272
C71   C     C_2   0.692120 0.786654 0.866784 -0.158310
C72   C     C_2   0.194537 0.714816 0.867278 -0.157243
C73   C     C_R   0.622740 0.672787 0.802183 0.148669
C74   C     C_2   0.192129 0.286670 0.866751 -0.158312
C75   C     C_2   0.308263 0.664640 0.025916 -0.040123
C76   C     C_2   0.305581 0.338952 0.022713 -0.038834
C77   C     C_2   0.808279 0.164682 0.025950 -0.040151
C78   C     C_2   0.805556 0.839002 0.022675 -0.038818
C79   C     C_2   0.236961 0.659844 0.956262 0.027599
C80   C     C_2   0.234281 0.341818 0.956148 0.032252
C81   C     C_2   0.736979 0.159858 0.956276 0.027604
C82   C     C_2   0.734256 0.841829 0.956143 0.032208
C83   C     C_R   0.613668 0.395295 0.406653 0.030310
C84   C     C_R   0.122218 0.826724 0.800620 0.147228
C85   C     C_R   0.611891 0.596491 0.401575 0.012768
C86   C     C_R   0.113648 0.895275 0.406632 0.030283
C87   C     C_R   0.111895 0.096457 0.401571 0.012714
C88   C     C_R   0.398520 0.370393 0.589731 -0.118558
C89   C     C_R   0.404749 0.633334 0.593393 -0.133020
C90   C     C_R   0.898547 0.870366 0.589735 -0.118554
C91   C     C_R   0.904694 0.133259 0.593405 -0.133155
C92   C     C_R   0.689944 0.401204 0.590111 0.025949
C93   C     C_R   0.689275 0.598015 0.585927 0.024748
C94   C     C_R   0.189940 0.901200 0.590080 0.026043
C95   C     C_R   0.122709 0.172828 0.802096 0.148665
C96   C     C_R   0.189281 0.097980 0.585919 0.024692
C97   C     C_R   0.325493 0.372230 0.403800 -0.143371
C98   C     C_R   0.335800 0.639062 0.408241 -0.119248
C99   C     C_R   0.825536 0.872177 0.403803 -0.143352
C100  C     C_R   0.835752 0.139027 0.408252 -0.119301
C101  C     C_R   0.563832 0.366557 0.768734 -0.134920
C102  C     C_R   0.565076 0.632343 0.771523 -0.136768
C103  C     C_R   0.063841 0.866569 0.768757 -0.134903
C104  C     C_R   0.065049 0.132381 0.771453 -0.136850
C105  C     C_R   0.422248 0.391516 0.196141 -0.107782
C106  C     C_R   0.684731 0.384800 0.497363 -0.031417
C107  C     C_R   0.424163 0.610910 0.199035 -0.118293
C108  C     C_R   0.922234 0.891545 0.196117 -0.107702
C109  C     C_R   0.924171 0.110928 0.199050 -0.118328
C110  C     C_R   0.352541 0.370164 0.136962 0.073598
C111  C     C_R   0.354074 0.631318 0.138534 0.079732
C112  C     C_R   0.852523 0.870206 0.136929 0.073583
C113  C     C_R   0.854086 0.131351 0.138561 0.079733
C114  C     C_1   0.683089 0.814179 0.306304 0.005770
C115  C     C_1   0.704149 0.233171 0.295575 0.013031
C116  C     C_1   0.183031 0.314294 0.306374 0.005807
H1    H     H_    0.284395 0.384135 0.181829 0.104051
H2    H     H_    0.829902 0.405580 0.627614 0.169635
H3    H     H_    0.306223 0.083991 0.532565 0.168929
H4    H     H_    0.329844 0.905796 0.627201 0.169564
H5    H     H_    0.325374 0.137286 0.645526 0.181618
H6    H     H_    0.319565 0.822102 0.679586 0.179199
H7    H     H_    0.825381 0.637490 0.645715 0.181638
H8    H     H_    0.819376 0.321829 0.679600 0.179184
H9    H     H_    0.317511 0.303512 0.639961 0.172164
H10   H     H_    0.301117 0.680046 0.611422 0.172245
H11   H     H_    0.817487 0.803528 0.639904 0.172163
H12   H     H_    0.283519 0.613195 0.178088 0.108058
H13   H     H_    0.800822 0.179847 0.611090 0.172280
H14   H     H_    0.730485 0.736096 0.610632 0.166876
H15   H     H_    0.707875 0.247494 0.565539 0.168859
H16   H     H_    0.230597 0.235995 0.610801 0.166869
H17   H     H_    0.208134 0.747568 0.565926 0.168839
H18   H     H_    0.639584 0.695721 0.310628 0.104833
H19   H     H_    0.681830 0.361656 0.319522 0.107605
H20   H     H_    0.139496 0.195841 0.310687 0.104845
H21   H     H_    0.181633 0.861433 0.319323 0.107591
H22   H     H_    0.247872 0.354797 0.519777 0.174367
H23   H     H_    0.784385 0.884185 0.181805 0.104071
H24   H     H_    0.241150 0.648444 0.469940 0.177498
H25   H     H_    0.747891 0.854815 0.519670 0.174380
H26   H     H_    0.740920 0.148452 0.469495 0.177482
H27   H     H_    0.699773 0.349730 0.778879 0.095030
H28   H     H_    0.698578 0.651778 0.775006 0.095123
H29   H     H_    0.199780 0.849733 0.778897 0.095026
H30   H     H_    0.198562 0.151787 0.774943 0.095113
H31   H     H_    0.666236 0.765615 0.470533 0.171905
H32   H     H_    0.661359 0.240608 0.419549 0.174970
H33   H     H_    0.166270 0.265574 0.470763 0.171857
H34   H     H_    0.783528 0.113241 0.178111 0.108049
H35   H     H_    0.161489 0.740509 0.419909 0.174979
H36   H     H_    0.707599 0.226728 0.814027 0.130192
H37   H     H_    0.703835 0.776054 0.811387 0.131261
H38   H     H_    0.207583 0.726721 0.814019 0.130195
H39   H     H_    0.203877 0.276048 0.811399 0.131259
H40   H     H_    0.636544 0.246168 0.919282 0.144296
H41   H     H_    0.637828 0.751581 0.923555 0.144275
H42   H     H_    0.136562 0.746191 0.919324 0.144273
H43   H     H_    0.137758 0.251651 0.923406 0.144287
H44   H     H_    0.418601 0.362165 0.674055 0.095419
H45   H     H_    0.354849 0.171228 0.491823 0.125513
H46   H     H_    0.421819 0.636384 0.676357 0.105022
H47   H     H_    0.918621 0.862141 0.674056 0.095428
H48   H     H_    0.921741 0.136229 0.676357 0.105118
H49   H     H_    0.280995 0.368374 0.317018 0.106898
H50   H     H_    0.295357 0.652245 0.322115 0.119238
H51   H     H_    0.781054 0.868286 0.317019 0.106905
H52   H     H_    0.795299 0.152208 0.322129 0.119219
H53   H     H_    0.532274 0.354849 0.792537 0.102157
H54   H     H_    0.535161 0.642432 0.798692 0.106843
H55   H     H_    0.032290 0.854871 0.792576 0.102144
H56   H     H_    0.384031 0.838551 0.570493 0.126461
H57   H     H_    0.035112 0.142503 0.798573 0.106944
H58   H     H_    0.447945 0.395874 0.160640 0.114234
H59   H     H_    0.452672 0.610811 0.167975 0.106613
H60   H     H_    0.947923 0.895922 0.160605 0.114194
H61   H     H_    0.952682 0.110834 0.167993 0.106609
H62   H     H_    0.227488 0.260137 0.217155 0.105078
H63   H     H_    0.309903 0.237070 0.335724 0.102147
H64   H     H_    0.272114 0.833089 0.271892 0.119794
H65   H     H_    0.350056 0.827648 0.402603 0.107997
H66   H     H_    0.727619 0.759986 0.217218 0.105075
H67   H     H_    0.854878 0.671123 0.491938 0.125616
H68   H     H_    0.810028 0.736978 0.335842 0.102166
H69   H     H_    0.772521 0.333350 0.272468 0.119840
H70   H     H_    0.850384 0.327580 0.403242 0.107960
H71   H     H_    0.585219 0.411648 0.252140 0.087376
H72   H     H_    0.584483 0.319256 0.284510 0.102990
H73   H     H_    0.624387 0.526917 0.311693 0.117418
H74   H     H_    0.568964 0.602397 0.237236 0.088563
H75   H     H_    0.085059 0.911484 0.252010 0.087378
H76   H     H_    0.084473 0.819111 0.284643 0.103022
H77   H     H_    0.124388 0.026829 0.311723 0.117476
H78   H     H_    0.884157 0.338366 0.571017 0.126464
H79   H     H_    0.068976 0.102316 0.237244 0.088632
H80   H     H_    0.769487 0.360533 0.740905 0.082238
H81   H     H_    0.743105 0.444461 0.744988 0.107342
H82   H     H_    0.775325 0.641959 0.730074 0.086774
H83   H     H_    0.746701 0.563719 0.746270 0.102660
H84   H     H_    0.269453 0.860399 0.740776 0.082243
H85   H     H_    0.243153 0.944356 0.745032 0.107332
H86   H     H_    0.275414 0.141818 0.730083 0.086806
H87   H     H_    0.246687 0.063651 0.746240 0.102663
H88   H     H_    0.806321 0.583972 0.532973 0.168979
N1    N     N_R   0.389430 0.421450 0.294590 -0.044621
N2    N     N_R   0.581780 0.577610 0.443390 -0.048819
N3    N     N_R   0.081780 0.922390 0.443390 -0.047468
N4    N     N_R   0.081780 0.077610 0.443390 -0.048819
N5    N     N_R   0.419850 0.423100 0.556610 -0.040184
N6    N     N_R   0.419850 0.576900 0.556610 -0.041436
N7    N     N_R   0.919850 0.923100 0.556610 -0.040188
N8    N     N_R   0.919850 0.076900 0.556610 -0.041423
N9    N     N_R   0.627410 0.423100 0.556610 -0.062669
N10   N     N_R   0.627410 0.576900 0.556610 -0.062353
N11   N     N_R   0.127410 0.923100 0.556610 -0.062664
N12   N     N_R   0.389430 0.578550 0.294590 -0.044970
N13   N     N_R   0.127410 0.076900 0.556610 -0.062350
N14   N     N_R   0.374220 0.422390 0.443390 -0.038996
N15   N     N_R   0.374220 0.577610 0.443390 -0.043831
N16   N     N_R   0.874220 0.922390 0.443390 -0.039000
N17   N     N_R   0.874220 0.077610 0.443390 -0.043817
N18   N     N_R   0.555000 0.424040 0.705410 -0.043798
N19   N     N_R   0.555000 0.575960 0.705410 -0.043203
N20   N     N_R   0.055000 0.924040 0.705410 -0.043794
N21   N     N_R   0.055000 0.075960 0.705410 -0.043202
N22   N     N_R   0.446630 0.421450 0.294590 -0.041344
N23   N     N_R   0.889430 0.921450 0.294590 -0.044620
N24   N     N_R   0.446630 0.578550 0.294590 -0.041714
N25   N     N_R   0.946630 0.921450 0.294590 -0.041340
N26   N     N_R   0.946630 0.078550 0.294590 -0.041718
N27   N     N_1   0.643267 0.863312 0.264047 -0.083974
N28   N     N_1   0.656748 0.196616 0.226858 -0.094048
N29   N     N_1   0.143229 0.363446 0.264188 -0.083949
N30   N     N_1   0.156709 0.696257 0.227133 -0.093987
N31   N     N_3   0.256202 0.231679 0.293352 -0.214543
N32   N     N_3   0.303283 0.799094 0.342789 -0.221731
N33   N     N_3   0.756325 0.731557 0.293438 -0.214558
N34   N     N_R   0.889430 0.078550 0.294590 -0.044970
N35   N     N_3   0.803547 0.299191 0.343209 -0.221653
N36   N     N_1   0.701739 0.565684 0.261839 -0.088627
N37   N     N_1   0.806584 0.472800 0.431855 -0.096053
N38   N     N_1   0.201437 0.065884 0.261411 -0.088579
N39   N     N_1   0.306151 0.972801 0.431034 -0.096022
N40   N     N_1   0.165281 0.573632 0.985765 -0.080725
N41   N     N_1   0.163455 0.420719 0.995887 -0.083869
N42   N     N_1   0.665317 0.073597 0.985762 -0.080732
N43   N     N_1   0.663413 0.920687 0.995888 -0.083848
N44   N     N_1   0.370110 0.748000 0.973498 -0.097809
N45   N     N_R   0.612200 0.424040 0.705410 -0.049062
N46   N     N_1   0.365969 0.262229 0.961025 -0.100371
N47   N     N_1   0.870126 0.248091 0.973574 -0.097758
N48   N     N_1   0.865939 0.762333 0.960934 -0.100382
N49   N     N_3   0.574940 0.374981 0.292164 -0.223306
N50   N     N_3   0.586140 0.562329 0.298490 -0.218534
N51   N     N_3   0.074882 0.874838 0.292186 -0.223302
N52   N     N_3   0.086145 0.062259 0.298507 -0.218532
N53   N     N_3   0.753929 0.412624 0.701306 -0.213804
N54   N     N_3   0.755240 0.588786 0.695605 -0.215290
N55   N     N_3   0.253936 0.912530 0.701287 -0.213832
N56   N     N_R   0.612200 0.575960 0.705410 -0.048750
N57   N     N_3   0.255247 0.088674 0.695574 -0.215278
N58   N     N_1   0.469273 0.216260 0.741689 -0.096330
N59   N     N_1   0.470806 0.757400 0.797649 -0.101999
N60   N     N_1   0.969337 0.716270 0.741756 -0.096315
N61   N     N_1   0.970554 0.256993 0.797971 -0.102046
N62   N     N_R   0.112200 0.924040 0.705410 -0.049057
N63   N     N_R   0.112200 0.075960 0.705410 -0.048753
N64   N     N_R   0.581780 0.422390 0.443390 -0.047478
Ni1   Ni    Ni4+2 0.382890 0.500000 0.370170 0.218473
Ni2   Ni    Ni4+2 0.882890 0.000000 0.370170 0.218469
Ni3   Ni    Ni4+2 0.618740 0.500000 0.629830 0.199540
Ni4   Ni    Ni4+2 0.118740 0.000000 0.629830 0.199547
Ni5   Ni    Ni4+2 0.514090 0.500000 0.370170 0.217088
Ni6   Ni    Ni4+2 0.014090 0.000000 0.370170 0.217072
Ni7   Ni    Ni4+2 0.487550 0.500000 0.629830 0.210993
Ni8   Ni    Ni4+2 0.987550 0.000000 0.629830 0.211001

loop_
_geom_bond_atom_site_label_1
_geom_bond_atom_site_label_2
_ccdc_geom_bond_type
C101  N18   A    
C102  H54   S    
C49   C106  S    
C33   H5    S    
C105  C110  A    
C64   H20   S    
H66   N33   S    
C92   N9    A    
C96   N57   S    
C23   C45   S    
C24   C99   A    
C50   C64   S    
C32   H8    S    
C92   N53   S    
C21   C87   A    
C56   H17   S    
C16   N48   T    
C26   C44   S    
C57   C62   A    
C40   C112  A    
C20   C30   S    
C39   C64   S    
N9    N64   A    
C28   C46   S    
C85   N50   S    
C51   C113  A    
C37   H25   S    
N10   Ni3   S    
C83   N49   S    
C49   C63   S    
N5    N14   A    
C1    H1    S    
H72   N49   S    
C28   H67   S    
C55   H16   S    
C72   C79   S    
C36   H10   S    
C35   H22   S    
N20   N62   A    
C90   N7    A    
C1    C110  A    
C77   C113  S    
C87   N4    A    
C8    N40   T    
C37   C46   S    
C49   C54   S    
C71   H37   S    
C40   H23   S    
C87   N52   S    
C53   H31   S    
C5    C63   S    
C2    C85   A    
N34   Ni2   S    
C42   C46   S    
C6    C64   S    
N18   Ni7   S    
C35   H9    S    
C70   C81   S    
N45   Ni3   S    
C34   C52   S    
C26   C33   S    
C43   C115  S    
C19   N60   T    
C89   N6    A    
C42   C114  S    
C22   C44   S    
C29   H12   S    
C51   H34   S    
N5    Ni7   S    
C13   C86   A    
C85   N2    A    
C8    C79   S    
H85   N55   S    
C23   C89   A    
C101  H53   S    
H73   N50   S    
C67   C73   S    
N22   Ni5   S    
C22   C88   A    
N11   Ni4   S    
H71   N49   S    
N16   Ni2   S    
C25   C47   S    
C67   C71   D    
N2    Ni5   S    
C109  C113  A    
N8    N17   A    
C71   C82   S    
C65   H21   S    
C27   C45   S    
N4    Ni6   S    
C15   C77   S    
C11   C82   S    
C22   C97   A    
C74   C80   S    
C98   N15   A    
N26   Ni6   S    
C103  H55   S    
C38   H26   S    
C31   C48   S    
C60   H30   S    
C68   H42   S    
C107  H59   S    
C21   C50   S    
C42   N33   S    
C29   C111  A    
C102  N19   A    
C55   H33   S    
N3    Ni6   S    
C99   H51   S    
C108  N25   A    
N8    Ni8   S    
C27   C34   S    
C34   H4    S    
C48   C53   S    
N20   Ni8   S    
N1    Ni1   S    
N25   Ni6   S    
C25   C91   A    
N14   Ni1   S    
C72   H38   S    
C62   C66   S    
C35   C55   S    
N7    Ni8   S    
C68   C84   S    
H77   N52   S    
C30   C47   S    
C104  N21   A    
C100  H52   S    
C70   H36   S    
C59   C84   A    
H63   N31   S    
H69   N35   S    
C114  N27   T    
C57   H27   S    
C29   N12   A    
C41   C65   S    
C21   C96   A    
C2    C48   S    
C33   C50   S    
C12   N44   T    
C4    C61   S    
H75   N51   S    
N6    N15   A    
C108  C112  A    
C58   N56   A    
N15   Ni1   S    
C9    C80   S    
C14   C76   S    
N64   Ni5   S    
C54   H15   S    
N7    N16   A    
C30   C32   S    
C58   H28   S    
C103  N20   A    
C7    C65   S    
C13   C52   S    
N12   Ni1   S    
N63   Ni4   S    
C78   C82   D    
C25   C100  A    
C94   N55   S    
C38   C54   S    
N56   Ni3   S    
C77   C81   D    
N24   Ni5   S    
C68   C72   D    
H76   N51   S    
C107  N24   A    
N9    Ni3   S    
N3    N11   A    
N6    Ni7   S    
C94   N11   A    
C36   C45   S    
C67   H41   S    
N12   N24   A    
C105  N22   A    
C99   N16   A    
C56   H35   S    
C37   H11   S    
C35   C44   S    
C36   H24   S    
C42   C61   S    
C115  N28   T    
C98   H50   S    
C43   N35   S    
C19   C28   S    
C10   N42   T    
C59   H29   S    
C92   C106  A    
C73   C102  A    
N23   N25   A    
C93   N54   S    
C31   H88   S    
C33   H3    S    
C88   N5    A    
N1    N22   A    
N21   Ni8   S    
C91   H48   S    
N26   N34   A    
C75   C79   D    
C17   C26   S    
C39   C44   S    
C57   N45   A    
H86   N57   S    
H68   N33   S    
H82   N54   S    
C9    N41   T    
C95   C104  A    
H84   N55   S    
C54   H32   S    
N4    N13   A    
C96   N13   A    
N19   N56   A    
C83   N64   A    
C60   N63   A    
C61   H18   S    
C26   H45   S    
C59   N62   A    
C93   N10   A    
C97   N14   A    
C107  C111  A    
C109  N26   A    
C28   C31   S    
C89   H46   S    
C18   C27   S    
C76   C80   D    
C32   H2    S    
C91   N8    A    
C69   C95   S    
C24   C90   A    
C20   N61   T    
C78   C112  S    
H87   N57   S    
C104  H57   S    
C14   N46   T    
C41   N32   S    
C4    N36   T    
N13   Ni4   S    
C90   H47   S    
C10   C81   S    
C75   C111  S    
C50   C55   S    
C83   C106  A    
C38   C47   S    
C13   C94   A    
C105  H58   S    
C24   C46   S    
C62   C101  A    
H81   N53   S    
C2    C93   A    
C86   N51   S    
C86   N3    A    
C37   C53   S    
C18   N59   T    
C3    N30   T    
N62   Ni4   S    
C17   N58   T    
C39   N31   S    
H65   N32   S    
N2    N10   A    
C48   C61   S    
C30   H78   S    
C11   N43   T    
C15   N47   T    
C100  N17   A    
C40   N23   A    
C97   H49   S    
C108  H60   S    
C36   C56   S    
C69   H43   S    
C74   H39   S    
C76   C110  S    
C51   N34   A    
C16   C78   S    
C1    N1    A    
C88   H44   S    
H80   N53   S    
C116  N29   T    
N23   Ni2   S    
C32   C49   S    
C3    C41   S    
N17   Ni2   S    
C31   H7    S    
H70   N35   S    
C60   C95   A    
C109  H61   S    
N18   N45   A    
C23   C98   A    
N19   Ni7   S    
C66   C70   D    
H64   N32   S    
C34   H6    S    
C39   C116  S    
C43   C63   S    
C12   C75   S    
C7    N39   T    
H74   N50   S    
C84   C103  A    
C41   C45   S    
H62   N31   S    
C6    N38   T    
C38   H13   S    
C53   H14   S    
C66   H40   S    
C5    N37   T    
C69   C74   D    
H79   N52   S    
C43   C47   S    
C27   H56   S    
N21   N63   A    
C52   C65   S    
C52   C56   S    
C58   C73   A    
C63   H19   S    
H83   N54   S    
