data_mof_unit_34943.cif
_audit_creation_date              2012-12-10T16:54:57-0500
_audit_creation_method            fapswitch 2.2
_symmetry_space_group_name_H-M    P1
_symmetry_Int_Tables_number       1
_space_group_crystal_system       triclinic
_cell_length_a                    7.979397
_cell_length_b                    8.546567
_cell_length_c                    15.688178
_cell_angle_alpha                 92.808285
_cell_angle_beta                  85.129967
_cell_angle_gamma                 92.557189
_cell_volume                      1063.85523881

loop_
_atom_site_label
_atom_site_type_symbol
_atom_type_description
_atom_site_fract_x
_atom_site_fract_y
_atom_site_fract_z
_atom_type_partial_charge
C1    C     C_R   0.543463 0.793607 0.502752 0.948265
C2    C     C_3   0.386816 0.567193 0.055973 -0.522561
C3    C     C_3   0.517595 0.451163 0.082014 0.077839
C4    C     C_3   0.462538 0.279593 0.045834 0.249114
C5    C     C_3   0.450437 0.290866 0.944352 0.410074
C6    C     C_1   0.506336 0.464968 0.174224 0.093160
C7    C     C_1   0.510653 0.473438 0.823770 0.135867
C8    C     C_1   0.502759 0.487581 0.749427 -0.106931
C9    C     C_2   0.562924 0.957473 0.503109 -0.378621
C10   C     C_2   0.438856 0.050000 0.535010 -0.039020
C11   C     C_R   0.500710 0.499795 0.661080 0.877207
C12   C     C_R   0.456443 0.207535 0.509116 0.908767
C13   C     C_R   0.499371 0.498054 0.338914 0.879589
C14   C     C_3   0.415372 0.594460 0.960449 0.096071
C15   C     C_3   0.704545 0.494454 0.940513 -0.235644
C16   C     C_3   0.702347 0.509438 0.042763 0.329925
C17   C     C_1   0.498700 0.482476 0.249931 -0.195809
C18   C     C_3   0.519755 0.458714 0.914567 0.009474
H1    H     H_    0.394753 0.682449 0.092063 0.249287
H2    H     H_    0.256485 0.522914 0.071753 0.208030
H3    H     H_    0.672021 0.000641 0.463911 0.157021
H4    H     H_    0.490829 0.706456 0.953430 0.222105
H5    H     H_    0.743593 0.612128 0.916329 0.234444
N1    N     N_2   0.950340 0.457950 0.477370 0.006325
N2    N     N_2   0.049660 0.542050 0.522630 0.054696
O1    O     O_R   0.389240 0.738570 0.505550 -0.611200
O2    O     O_R   0.678400 0.711630 0.491050 -0.573669
O3    O     O_R   0.355360 0.513470 0.630110 -0.592721
O4    O     O_R   0.644510 0.486530 0.615610 -0.580463
O5    O     O_R   0.321600 0.288370 0.508950 -0.651599
O6    O     O_R   0.610760 0.261430 0.494450 -0.625728
O7    O     O_R   0.355490 0.513470 0.384390 -0.654937
O8    O     O_R   0.644640 0.486530 0.369890 -0.617570
Zn1   Zn    Zn3+2 0.306930 0.517990 0.509680 0.980558
Zn2   Zn    Zn3+2 0.693070 0.482010 0.490320 1.001108
Br1   Br    Br    0.211433 0.655231 0.912558 -0.458311
Br2   Br    Br    0.626461 0.125825 0.070465 -0.468466
C19   C     C_3   0.294054 0.002444 0.600418 -0.351430
C20   C     C_3   0.275047 0.118231 0.677746 -0.741598
H6    H     H_    0.398988 0.145704 0.703358 0.275577
H7    H     H_    0.219806 0.227915 0.660559 0.265721
H8    H     H_    0.188612 0.065718 0.728853 0.300871
H9    H     H_    0.174477 0.993105 0.568702 0.239059
H10   H     H_    0.314413 0.888387 0.627876 0.261143
C21   C     C_3   0.022520 0.374391 0.401174 -0.182452
C22   C     C_3   0.922955 0.223113 0.381331 -0.859596
H11   H     H_    0.911254 0.150560 0.438398 0.262149
H12   H     H_    0.797951 0.245736 0.360396 0.289173
H13   H     H_    0.991391 0.155536 0.328150 0.227705
H14   H     H_    0.028397 0.451142 0.345849 0.174534
H15   H     H_    0.146788 0.334609 0.409620 0.234803
Br3   Br    Br    0.957156 0.678823 0.609487 -0.406940
C23   C     C_3   0.843129 0.389853 0.894787 -0.349041
C24   C     C_3   0.870700 0.396158 0.797139 -0.660542
H16   H     H_    0.779780 0.316328 0.765248 0.262459
H17   H     H_    0.862215 0.517885 0.776849 0.277153
H18   H     H_    0.998179 0.356045 0.774976 0.274057
H19   H     H_    0.961668 0.437366 0.916931 0.275525
H20   H     H_    0.831713 0.267302 0.914148 0.289468
Br4   Br    Br    0.739888 0.734766 0.074608 -0.468014
C25   C     C_3   0.861418 0.437105 0.077183 -0.341689
C26   C     C_3   0.873470 0.438061 0.174127 -0.786010
H21   H     H_    0.838509 0.551895 0.206059 0.290037
H22   H     H_    0.795638 0.340079 0.202523 0.278815
H23   H     H_    0.005293 0.419821 0.187115 0.223546
H24   H     H_    0.886316 0.317800 0.051088 0.243206
H25   H     H_    0.973254 0.507905 0.052547 0.239413
Br5   Br    Br    0.223474 0.252104 0.907684 -0.563167
Br6   Br    Br    0.552582 0.116246 0.874686 -0.437427
C27   C     C_3   0.291984 0.208209 0.089593 -0.288496
C28   C     C_3   0.280026 0.177772 0.185853 -0.835103
H26   H     H_    0.399254 0.140371 0.208211 0.292585
H27   H     H_    0.238061 0.283098 0.224305 0.230011
H28   H     H_    0.182726 0.083313 0.199547 0.259709
H29   H     H_    0.183758 0.279060 0.079460 0.203899
H30   H     H_    0.267548 0.092125 0.056663 0.285213

loop_
_geom_bond_atom_site_label_1
_geom_bond_atom_site_label_2
_ccdc_geom_bond_type
C28   H28   S    
C14   Br1   S    
C23   H19   S    
C19   H10   S    
C26   H21   S    
C3    C16   S    
C15   C18   S    
C9    C10   D    
C14   C18   S    
C13   O7    A    
C13   C17   S    
N2    Zn1   S    
C10   C19   S    
C7    C18   S    
C9    H3    S    
C28   H26   S    
C3    C6    S    
C15   H5    S    
C2    C3    S    
C23   H20   S    
N2    Br3   S    
O3    Zn1   S    
C19   H9    S    
C20   H7    S    
C21   C22   S    
N1    N2    D    
C13   O8    A    
C22   H13   S    
C14   H4    S    
C1    O1    A    
C10   C12   S    
C21   H14   S    
C8    C11   S    
N1    C21   S    
C11   O3    A    
C12   O5    A    
C4    C27   S    
O8    Zn2   S    
C20   H8    S    
O6    Zn2   S    
C5    Br5   S    
C12   O6    A    
C27   H30   S    
C25   C26   S    
C2    C14   S    
C24   H17   S    
N1    Zn2   S    
C16   C25   S    
C21   H15   S    
C2    H2    S    
C3    C4    S    
O4    Zn2   S    
C22   H12   S    
C15   C23   S    
C7    C8    T    
C27   C28   S    
C19   C20   S    
C4    Br2   S    
C11   O4    A    
C28   H27   S    
C16   Br4   S    
C20   H6    S    
C1    O2    A    
C6    C17   T    
C25   H25   S    
C22   H11   S    
O5    Zn1   S    
C27   H29   S    
C26   H22   S    
C5    C18   S    
C26   H23   S    
O2    Zn2   S    
C2    H1    S    
C24   H16   S    
C5    Br6   S    
C25   H24   S    
O1    Zn1   S    
C1    C9    S    
C15   C16   S    
C23   C24   S    
C4    C5    S    
C24   H18   S    
O7    Zn1   S    
