data_mof_unit_62429.cif
_audit_creation_date              2012-12-10T17:52:49-0500
_audit_creation_method            fapswitch 2.2
_symmetry_space_group_name_H-M    P1
_symmetry_Int_Tables_number       1
_space_group_crystal_system       triclinic
_cell_length_a                    18.666711
_cell_length_b                    18.833662
_cell_length_c                    18.730476
_cell_angle_alpha                 109.748001
_cell_angle_beta                  109.258013
_cell_angle_gamma                 109.687868
_cell_volume                      5051.39549747

loop_
_atom_site_label
_atom_site_type_symbol
_atom_type_description
_atom_site_fract_x
_atom_site_fract_y
_atom_site_fract_z
_atom_type_partial_charge
C1    C     C_R   0.117950 0.120111 0.497702 0.884243
C2    C     C_R   0.270483 0.013628 0.679695 0.064799
C3    C     C_R   0.195431 0.008740 0.686367 -0.091424
C4    C     C_R   0.182224 0.997457 0.751598 -0.225845
C5    C     C_R   0.241727 0.989677 0.810550 -0.224566
C6    C     C_R   0.313483 0.989385 0.803012 -0.097094
C7    C     C_R   0.176043 0.176982 0.416133 0.103563
C8    C     C_R   0.241476 0.242186 0.418049 -0.220052
C9    C     C_R   0.312570 0.313546 0.498488 -0.031481
C10   C     C_R   0.319070 0.322193 0.577570 -0.193264
C11   C     C_R   0.253308 0.259165 0.576411 -0.232066
C12   C     C_R   0.123828 0.003762 0.620246 0.920573
C13   C     C_R   0.182918 0.186293 0.496266 -0.038184
C14   C     C_R   0.740623 0.922553 0.245349 -0.225452
C15   C     C_R   0.675739 0.922075 0.182228 -0.189994
C16   C     C_R   0.687569 0.000812 0.186175 -0.037388
C17   C     C_R   0.763585 0.080258 0.253073 -0.219055
C18   C     C_R   0.828427 0.081673 0.318155 0.108088
C19   C     C_R   0.815954 0.001929 0.313428 -0.025163
C20   C     C_R   0.822365 0.742766 0.500113 -0.184184
C21   C     C_R   0.759200 0.679564 0.501707 -0.184743
C22   C     C_R   0.687085 0.686915 0.501308 -0.008750
C23   C     C_R   0.879895 0.879867 0.500238 0.857285
C24   C     C_R   0.678319 0.757631 0.501026 -0.185757
C25   C     C_R   0.742833 0.822176 0.502145 -0.186321
C26   C     C_R   0.814096 0.813994 0.500846 -0.008270
C27   C     C_R   0.500563 0.879826 0.880369 0.900442
C28   C     C_R   0.379731 0.995311 0.875390 0.912265
C29   C     C_R   0.499402 0.120034 0.119677 0.877148
C30   C     C_R   0.620591 0.000202 0.120189 0.862108
C31   C     C_R   0.500307 0.620347 0.620335 0.884225
C32   C     C_R   0.379555 0.379836 0.499692 0.871243
C33   C     C_R   0.499839 0.379802 0.379619 0.872468
C34   C     C_R   0.880520 0.000571 0.379713 0.867110
C35   C     C_R   0.620454 0.620401 0.500439 0.859337
C36   C     C_R   0.581228 0.821019 0.823690 0.074659
C37   C     C_R   0.580375 0.756217 0.759263 -0.224801
C38   C     C_R   0.500474 0.686199 0.686568 -0.062174
C39   C     C_R   0.420550 0.678291 0.677109 -0.227946
C40   C     C_R   0.419522 0.741130 0.741530 0.076738
C41   C     C_R   0.500427 0.813260 0.814113 -0.059416
C42   C     C_R   0.483094 0.249079 0.169109 0.107428
C43   C     C_R   0.483343 0.312903 0.234157 -0.218161
C44   C     C_R   0.499278 0.313469 0.312772 -0.043580
C45   C     C_R   0.293652 0.038214 0.622973 0.093848
C46   C     C_R   0.513953 0.250287 0.327097 -0.182991
C47   C     C_R   0.512200 0.185729 0.262257 -0.229475
C48   C     C_R   0.497861 0.185865 0.184327 -0.021513
C49   C     C_R   0.361710 0.031502 0.611368 -0.204896
C50   C     C_R   0.407216 0.000787 0.654482 -0.206808
C51   C     C_R   0.390251 0.982080 0.715167 0.096176
C52   C     C_R   0.325769 0.994905 0.733564 0.065101
H1    H     H_    0.258355 0.265990 0.637972 0.160501
H2    H     H_    0.616993 0.860489 0.129880 0.152395
H3    H     H_    0.771544 0.140766 0.255090 0.143294
H4    H     H_    0.878026 0.736952 0.499569 0.145125
H5    H     H_    0.765509 0.624387 0.501560 0.144992
H6    H     H_    0.622427 0.763230 0.501103 0.143513
H7    H     H_    0.736554 0.877403 0.502416 0.144248
H8    H     H_    0.641654 0.760523 0.765128 0.146306
H9    H     H_    0.472148 0.362471 0.224093 0.146498
H10   H     H_    0.525588 0.250343 0.387756 0.154866
H11   H     H_    0.378741 0.049512 0.567643 0.146567
H12   H     H_    0.232372 0.985223 0.863352 0.161523
O1    O     O_R   0.091590 0.143330 0.551700 -0.623769
O2    O     O_R   0.551760 0.960180 0.908450 -0.615088
O3    O     O_R   0.356660 0.948290 0.908410 -0.627711
O4    O     O_R   0.460090 0.051750 0.908420 -0.609273
O5    O     O_R   0.448250 0.039900 0.091630 -0.629280
O6    O     O_R   0.551680 0.143360 0.091630 -0.601119
O7    O     O_R   0.539910 0.948330 0.091670 -0.626290
O8    O     O_R   0.643340 0.051790 0.091670 -0.624192
O9    O     O_R   0.448280 0.591700 0.540000 -0.625161
O10   O     O_R   0.551730 0.591680 0.643420 -0.623460
O11   O     O_R   0.356670 0.408480 0.448390 -0.624183
O12   O     O_R   0.091620 0.039900 0.448280 -0.607584
O13   O     O_R   0.460120 0.408460 0.551810 -0.623380
O14   O     O_R   0.448270 0.408490 0.356760 -0.625978
O15   O     O_R   0.551720 0.408480 0.460170 -0.624451
O16   O     O_R   0.539880 0.591710 0.448370 -0.622855
O17   O     O_R   0.643330 0.591700 0.551790 -0.623284
O18   O     O_R   0.091610 0.051730 0.643330 -0.626147
O19   O     O_R   0.091640 0.948310 0.539920 -0.614074
O20   O     O_R   0.908380 0.960100 0.551720 -0.624721
O21   O     O_R   0.908410 0.856670 0.448300 -0.623683
O22   O     O_R   0.908360 0.051690 0.460080 -0.600761
O23   O     O_R   0.908390 0.948270 0.356670 -0.627013
O24   O     O_R   0.448330 0.856720 0.908450 -0.606003
Zn1   Zn    Zn3+2 0.999980 0.069060 0.569050 0.965758
Zn2   Zn    Zn3+2 0.000020 0.930940 0.430950 0.961756
Zn3   Zn    Zn3+2 0.430940 0.930960 0.000040 0.962673
Zn4   Zn    Zn3+2 0.569060 0.069120 0.000040 0.967189
Zn5   Zn    Zn3+2 0.430920 0.500100 0.431040 0.948103
Zn6   Zn    Zn3+2 0.569080 0.500080 0.569140 0.951433
H13   H     H_    0.124973 0.993962 0.756491 0.158234
H14   H     H_    0.731460 0.861385 0.242232 0.151652
N1    N     N_3   0.906779 0.162827 0.388187 -0.435849
H15   H     H_    0.959480 0.162326 0.380213 0.160787
H16   H     H_    0.903438 0.215522 0.383499 0.179655
N2    N     N_3   0.663161 0.893390 0.899672 -0.434161
H17   H     H_    0.716315 0.890939 0.894091 0.180365
H18   H     H_    0.666457 0.886578 0.953630 0.174180
N3    N     N_3   0.253752 0.076763 0.582057 -0.457820
H19   H     H_    0.302561 0.140672 0.607558 0.175285
H20   H     H_    0.232839 0.042433 0.515369 0.210735
H21   H     H_    0.359290 0.622482 0.620341 0.146834
N4    N     N_3   0.337193 0.732065 0.733926 -0.428238
H22   H     H_    0.330173 0.780873 0.723246 0.182224
H23   H     H_    0.284454 0.672394 0.679177 0.179079
N5    N     N_3   0.466967 0.247125 0.087687 -0.437925
H24   H     H_    0.460689 0.300563 0.088845 0.179962
H25   H     H_    0.406382 0.191151 0.038302 0.170529
H26   H     H_    0.523499 0.136584 0.273247 0.148716
H27   H     H_    0.457022 0.992239 0.641461 0.145220
N6    N     N_3   0.435059 0.944603 0.752711 -0.460782
H28   H     H_    0.419837 0.886718 0.701552 0.164620
H29   H     H_    0.502487 0.987483 0.782808 0.215731
N7    N     N_3   0.102589 0.102434 0.334032 -0.437106
H30   H     H_    0.110153 0.104336 0.281703 0.178758
H31   H     H_    0.046558 0.106769 0.327072 0.164267
H32   H     H_    0.237853 0.237055 0.357387 0.138941
H33   H     H_    0.374151 0.378161 0.639740 0.150794

loop_
_geom_bond_atom_site_label_1
_geom_bond_atom_site_label_2
_ccdc_geom_bond_type
C39   H21   S    
C49   H11   S    
O13   Zn6   S    
O9    Zn5   S    
C20   H4    S    
C32   O11   A    
C30   O7    A    
C35   O17   A    
C7    C8    A    
O1    Zn1   S    
C22   C35   S    
C43   H9    S    
O18   Zn1   S    
C46   H10   S    
C36   C37   A    
C28   O4    A    
C38   C39   A    
O8    Zn4   S    
C8    H32   S    
C31   O9    A    
O14   Zn5   S    
C16   C30   S    
C15   C16   A    
N1    H15   S    
C35   O16   A    
C18   C19   A    
C34   O22   A    
C23   C26   S    
C14   H14   S    
O10   Zn6   S    
N7    H30   S    
C3    C12   S    
C45   N3    S    
C9    C32   S    
C32   O13   A    
N5    H24   S    
C6    C28   S    
C16   C17   A    
N6    H29   S    
C1    O1    A    
N4    H22   S    
C18   N1    S    
C9    C10   A    
C17   H3    S    
C11   H1    S    
O20   Zn1   S    
C21   C22   A    
N4    H23   S    
C7    N7    S    
C36   C41   A    
N2    H18   S    
N1    H16   S    
C44   C46   A    
C50   C51   A    
C29   O5    A    
C2    C45   A    
C23   O20   A    
C29   C48   S    
C51   C52   A    
C15   H2    S    
C28   O3    A    
C24   C25   A    
O15   Zn6   S    
C36   N2    S    
C39   C40   A    
C8    C9    A    
C31   O10   A    
O2    Zn4   S    
C25   C26   A    
C19   C34   S    
C51   N6    S    
C5    H12   S    
C50   H27   S    
C43   C44   A    
C21   H5    S    
C37   C38   A    
C4    H13   S    
C27   C41   S    
C47   C48   A    
O24   Zn3   S    
C45   C49   A    
O3    Zn3   S    
C17   C18   A    
C12   O18   A    
N3    H20   S    
C42   C48   A    
C2    C52   A    
C40   N4    S    
N7    H31   S    
C40   C41   A    
C22   C24   A    
C1    C13   S    
C42   C43   A    
C3    C4    A    
O11   Zn5   S    
C29   O6    A    
C47   H26   S    
O19   Zn2   S    
C46   C47   A    
C1    O12   A    
C14   C19   A    
O6    Zn4   S    
C33   O15   A    
C4    C5    A    
C10   H33   S    
O22   Zn1   S    
C30   O8    A    
O21   Zn2   S    
C31   C38   S    
C2    C3    A    
C42   N5    S    
C27   O2    A    
O17   Zn6   S    
C11   C13   A    
C5    C6    A    
C20   C26   A    
N2    H17   S    
O4    Zn4   S    
C34   O23   A    
C27   O24   A    
C33   O14   A    
C33   C44   S    
N5    H25   S    
C37   H8    S    
C10   C11   A    
C7    C13   A    
O7    Zn3   S    
C20   C21   A    
C12   O19   A    
C24   H6    S    
C49   C50   A    
C23   O21   A    
O23   Zn2   S    
N3    H19   S    
C14   C15   A    
C25   H7    S    
C6    C52   A    
O16   Zn5   S    
O5    Zn3   S    
N6    H28   S    
O12   Zn2   S    
