data_mof_unit_11015.cif
_audit_creation_date              2012-12-11T14:08:23-0500
_audit_creation_method            fapswitch 2.2
_symmetry_space_group_name_H-M    P1
_symmetry_Int_Tables_number       1
_space_group_crystal_system       triclinic
_cell_length_a                    28.216749
_cell_length_b                    7.17849
_cell_length_c                    17.202035
_cell_angle_alpha                 89.999964
_cell_angle_beta                  102.152279
_cell_angle_gamma                 90.000356
_cell_volume                      3406.25649255

loop_
_atom_site_label
_atom_site_type_symbol
_atom_type_description
_atom_site_fract_x
_atom_site_fract_y
_atom_site_fract_z
_atom_type_partial_charge
O1    O     O_R   0.000700 0.436510 0.857920 -0.531581
O2    O     O_R   0.999300 0.563490 0.142080 -0.530913
O3    O     O_R   0.999300 0.936510 0.642080 -0.530918
O4    O     O_R   0.000700 0.063490 0.357920 -0.531604
O5    O     O_R   0.930080 0.766380 0.721890 -0.542108
O6    O     O_R   0.069920 0.233620 0.278110 -0.538832
O7    O     O_R   0.069920 0.266380 0.778110 -0.538820
O8    O     O_R   0.930080 0.733620 0.221890 -0.542111
C1    C     C_R   0.910594 0.597352 0.706627 0.683247
C2    C     C_R   0.089117 0.402225 0.292553 0.694819
C3    C     C_R   0.089115 0.097777 0.792565 0.694921
C4    C     C_R   0.910593 0.902647 0.206634 0.683245
O9    O     O_R   0.996180 0.766230 0.862310 -0.544755
O10   O     O_R   0.003820 0.233770 0.137690 -0.549187
O11   O     O_R   0.003820 0.266230 0.637690 -0.549194
O12   O     O_R   0.996180 0.733770 0.362310 -0.544707
O13   O     O_R   0.065870 0.936460 0.783500 -0.535849
O14   O     O_R   0.934130 0.063540 0.216500 -0.542275
O15   O     O_R   0.934130 0.436460 0.716500 -0.542278
O16   O     O_R   0.065870 0.563540 0.283500 -0.535834
C5    C     C_R   0.998382 0.596380 0.894493 0.761260
C6    C     C_R   0.001533 0.403529 0.105483 0.757324
C7    C     C_R   0.001533 0.096471 0.605483 0.757335
C8    C     C_R   0.998381 0.903620 0.394492 0.761310
O17   O     O_3   0.022790 0.603020 0.723980 -0.371695
O18   O     O_3   0.977210 0.396980 0.276020 -0.378620
O19   O     O_3   0.977210 0.103020 0.776020 -0.378622
O20   O     O_3   0.022790 0.896980 0.223980 -0.371696
V1    V     V_3+5 0.995770 0.877900 0.754830 1.387068
V2    V     V_3+5 0.004230 0.122100 0.245170 1.382007
V3    V     V_3+5 0.004230 0.377900 0.745170 1.382068
V4    V     V_3+5 0.995770 0.622100 0.254830 1.387089
C9    C     C_2   0.002095 0.082818 0.519720 -0.348487
C10   C     C_2   0.997687 0.917669 0.480200 -0.346211
C11   C     C_2   0.997689 0.582331 0.980201 -0.346105
C12   C     C_2   0.002094 0.417181 0.019719 -0.348464
H1    H     H_    0.006037 0.211576 0.488523 0.157612
H2    H     H_    0.993323 0.789324 0.511325 0.149969
H3    H     H_    0.993332 0.710675 0.011328 0.149982
H4    H     H_    0.006033 0.288423 0.988521 0.157619
C13   C     C_R   0.676556 0.780632 0.063685 0.577967
C14   C     C_R   0.321886 0.196013 0.928001 0.582048
C15   C     C_R   0.321896 0.303904 0.427843 0.582059
C16   C     C_R   0.676564 0.719325 0.563562 0.577967
O21   O     O_2   0.700553 0.630533 0.044592 -0.530973
O22   O     O_2   0.298195 0.350642 0.943222 -0.513094
O23   O     O_2   0.298205 0.149272 0.443065 -0.513087
O24   O     O_2   0.700562 0.869429 0.544477 -0.530969
N1    N     N_R   0.701726 0.922627 0.107314 -0.551416
N2    N     N_R   0.296546 0.052409 0.886247 -0.558766
N3    N     N_R   0.296554 0.447524 0.386106 -0.558767
N4    N     N_R   0.701731 0.577348 0.607207 -0.551416
C17   C     C_R   0.677775 0.076164 0.127048 0.584224
C18   C     C_R   0.319725 0.894440 0.869602 0.594014
C19   C     C_R   0.319734 0.605490 0.369456 0.594018
C20   C     C_R   0.677779 0.423804 0.626932 0.584220
C21   C     C_R   0.777756 0.770427 0.176830 -0.098890
C22   C     C_R   0.222322 0.161431 0.794523 -0.074933
C23   C     C_R   0.222310 0.338508 0.294429 -0.074927
C24   C     C_R   0.777752 0.729566 0.676755 -0.098897
C25   C     C_R   0.828265 0.768262 0.200034 -0.233367
C26   C     C_R   0.171752 0.173240 0.772905 -0.229119
C27   C     C_R   0.171739 0.326718 0.272844 -0.229134
C28   C     C_R   0.828260 0.731732 0.699987 -0.233360
C29   C     C_R   0.832992 0.060488 0.128810 0.035574
C30   C     C_R   0.164847 0.993205 0.890239 0.046464
C31   C     C_R   0.164868 0.506805 0.390181 0.046421
C32   C     C_R   0.833003 0.439512 0.628766 0.035575
C33   C     C_R   0.781872 0.057351 0.105451 -0.093936
C34   C     C_R   0.215735 0.980861 0.910446 -0.109231
C35   C     C_R   0.215758 0.519134 0.410353 -0.109254
C36   C     C_R   0.781883 0.442646 0.605381 -0.093929
C37   C     C_R   0.754142 0.915592 0.129856 0.333379
C38   C     C_R   0.244488 0.063871 0.863010 0.353385
C39   C     C_R   0.244494 0.436087 0.362899 0.353384
C40   C     C_R   0.754147 0.584399 0.629771 0.333380
C41   C     C_R   0.600840 0.951211 0.054623 -0.047021
C42   C     C_R   0.397052 0.020716 0.940057 -0.045725
C43   C     C_R   0.397063 0.479189 0.439885 -0.045723
C44   C     C_R   0.600849 0.548718 0.554472 -0.047021
C45   C     C_R   0.625777 0.791836 0.037164 -0.037666
C46   C     C_R   0.372435 0.182408 0.955964 -0.043867
C47   C     C_R   0.372446 0.317497 0.455793 -0.043868
C48   C     C_R   0.625786 0.708099 0.537019 -0.037672
C49   C     C_R   0.599689 0.648275 0.992740 -0.135061
C50   C     C_R   0.398594 0.326217 0.999951 -0.138279
C51   C     C_R   0.398605 0.173681 0.499773 -0.138283
C52   C     C_R   0.599701 0.851642 0.492578 -0.135060
C53   C     C_R   0.627260 0.094050 0.100400 -0.033127
C54   C     C_R   0.370333 0.876228 0.895721 -0.038193
C55   C     C_R   0.370343 0.623686 0.395558 -0.038203
C56   C     C_R   0.627267 0.405894 0.600261 -0.033120
C57   C     C_R   0.856710 0.912506 0.177996 -0.086468
C58   C     C_R   0.142466 0.087992 0.819454 -0.057849
C59   C     C_R   0.142469 0.412002 0.319411 -0.057768
C60   C     C_R   0.856712 0.587491 0.677965 -0.086467
H5    H     H_    0.762413 0.165493 0.068251 0.138659
H6    H     H_    0.233420 0.910267 0.964471 0.125308
H7    H     H_    0.233458 0.589750 0.464362 0.125299
H8    H     H_    0.762430 0.334504 0.568172 0.138653
H9    H     H_    0.617816 0.523336 0.978874 0.171742
H10   H     H_    0.380637 0.452444 0.012840 0.172875
H11   H     H_    0.380648 0.047454 0.512661 0.172875
H12   H     H_    0.617828 0.976579 0.478713 0.171744
C61   C     C_R   0.472427 0.839205 0.951636 0.029283
C62   C     C_R   0.525345 0.131526 0.043704 0.029450
C63   C     C_R   0.525355 0.368381 0.543531 0.029453
C64   C     C_R   0.472439 0.660694 0.451458 0.029280
C65   C     C_R   0.474380 0.149980 0.014156 0.029477
C66   C     C_R   0.523529 0.821649 0.980449 0.028797
C67   C     C_R   0.523541 0.678253 0.480273 0.028792
C68   C     C_R   0.474392 0.349918 0.513976 0.029480
C69   C     C_R   0.448183 0.003245 0.968709 0.067095
C70   C     C_R   0.549672 0.968113 0.026173 0.065727
C71   C     C_R   0.549682 0.531798 0.526006 0.065726
C72   C     C_R   0.448195 0.496655 0.468531 0.067097
C73   C     C_R   0.444390 0.698357 0.905718 -0.188558
C74   C     C_R   0.553151 0.271006 0.090840 -0.186968
C75   C     C_R   0.553160 0.228908 0.590674 -0.186960
C76   C     C_R   0.444402 0.801544 0.405542 -0.188561
C77   C     C_R   0.394531 0.716485 0.878800 -0.133036
C78   C     C_R   0.602888 0.252358 0.118383 -0.132810
C79   C     C_R   0.602895 0.247575 0.618235 -0.132795
C80   C     C_R   0.394542 0.783424 0.378633 -0.133046
O25   O     O_2   0.293893 0.755098 0.828173 -0.511406
O26   O     O_2   0.702743 0.211596 0.172564 -0.525859
O27   O     O_2   0.702744 0.288388 0.672462 -0.525864
O28   O     O_2   0.293900 0.744848 0.328043 -0.511390
C81   C     C_R   0.549759 0.662032 0.965280 -0.186349
C82   C     C_R   0.448371 0.311043 0.028264 -0.187309
C83   C     C_R   0.448383 0.188852 0.528081 -0.187308
C84   C     C_R   0.549772 0.837868 0.465103 -0.186348
H13   H     H_    0.155355 0.247207 0.719042 0.131033
H14   H     H_    0.845140 0.654177 0.236944 0.146233
H15   H     H_    0.845128 0.845816 0.736904 0.146231
H16   H     H_    0.155328 0.252736 0.218993 0.130996
H17   H     H_    0.244297 0.227435 0.757825 0.135441
H18   H     H_    0.756920 0.659731 0.196327 0.160722
H19   H     H_    0.756911 0.840258 0.696241 0.160718
H20   H     H_    0.244272 0.272474 0.257717 0.135450
H21   H     H_    0.374924 0.603292 0.844665 0.172609
H22   H     H_    0.622286 0.364433 0.153606 0.171073
H23   H     H_    0.622291 0.135509 0.653466 0.171071
H24   H     H_    0.374935 0.896623 0.344503 0.172612
H25   H     H_    0.459616 0.570378 0.889515 0.130800
H26   H     H_    0.537814 0.397784 0.108005 0.129855
H27   H     H_    0.537822 0.102127 0.607836 0.129853
H28   H     H_    0.459628 0.929524 0.389340 0.130801
H29   H     H_    0.532987 0.543733 0.932114 0.128810
H30   H     H_    0.465242 0.430112 0.060700 0.129167
H31   H     H_    0.465254 0.069780 0.560513 0.129169
H32   H     H_    0.533002 0.956151 0.431924 0.128808
C85   C     C_3   0.862071 0.218368 0.101460 -0.343023
C86   C     C_3   0.833532 0.355273 0.040141 -0.332991
C87   C     C_3   0.867173 0.498472 0.014337 -0.739591
H33   H     H_    0.887197 0.577426 0.066562 0.229808
H34   H     H_    0.893495 0.428139 0.984390 0.224687
H35   H     H_    0.845485 0.598323 0.971904 0.226453
H36   H     H_    0.814489 0.277935 0.986627 0.207786
H37   H     H_    0.806521 0.431686 0.066674 0.231836
H38   H     H_    0.879095 0.301845 0.154384 0.202003
H39   H     H_    0.891029 0.155236 0.074978 0.174321
C88   C     C_3   0.136219 0.917224 0.948533 -0.364004
C89   C     C_3   0.120441 0.075845 0.997250 -0.332752
C90   C     C_3   0.094323 0.001377 0.059920 -0.720345
H40   H     H_    0.059952 0.932631 0.030824 0.220311
H41   H     H_    0.117563 0.900239 0.099572 0.228919
H42   H     H_    0.085848 0.118677 0.096717 0.216396
H43   H     H_    0.152897 0.155370 0.027709 0.206564
H44   H     H_    0.095838 0.172910 0.957494 0.190354
H45   H     H_    0.104363 0.836324 0.917478 0.188770
H46   H     H_    0.158941 0.817855 0.990093 0.179513
C91   C     C_3   0.136260 0.582886 0.448484 -0.363922
C92   C     C_3   0.120365 0.424285 0.497091 -0.332693
C93   C     C_3   0.094475 0.498874 0.560031 -0.720525
H47   H     H_    0.117968 0.598980 0.599859 0.228887
H48   H     H_    0.060232 0.568864 0.531194 0.220483
H49   H     H_    0.085801 0.381499 0.596610 0.216429
H50   H     H_    0.095571 0.327912 0.457286 0.190292
H51   H     H_    0.152745 0.343996 0.527301 0.206583
H52   H     H_    0.159028 0.681982 0.490119 0.179610
H53   H     H_    0.104457 0.664098 0.417441 0.188656
C94   C     C_3   0.862088 0.281640 0.601426 -0.343019
C95   C     C_3   0.833558 0.144740 0.540095 -0.333002
C96   C     C_3   0.867204 0.001555 0.514299 -0.739583
H54   H     H_    0.893528 0.071901 0.484358 0.224704
H55   H     H_    0.887226 0.922604 0.566526 0.229807
H56   H     H_    0.845521 0.901700 0.471861 0.226450
H57   H     H_    0.806542 0.068316 0.566614 0.231830
H58   H     H_    0.814521 0.222085 0.486578 0.207789
H59   H     H_    0.891052 0.344780 0.574960 0.174328
H60   H     H_    0.879105 0.198157 0.654353 0.201998

loop_
_geom_bond_atom_site_label_1
_geom_bond_atom_site_label_2
_ccdc_geom_bond_type
O17   V3    S    
C47   C51   A    
C61   C66   A    
N1    C17   A    
C32   C94   S    
O1    C5    A    
C90   H40   S    
C92   H51   S    
C87   H34   S    
O13   V1    S    
C63   C68   A    
C64   C76   A    
O3    C7    A    
C11   C12   D    
C14   C46   A    
C44   C48   A    
O15   V3    S    
C94   H60   S    
C36   H8    S    
O4    V2    S    
C93   H48   S    
C91   C92   S    
C42   C54   A    
O7    C3    A    
C41   C53   A    
C32   C60   A    
C62   C70   A    
C23   H20   S    
C26   H13   S    
C73   H25   S    
C89   C90   S    
N3    C39   S    
C18   C54   A    
N2    C38   S    
C74   C78   A    
O4    C8    A    
C25   C57   A    
C96   H55   S    
C31   C35   A    
O19   V1    S    
C53   C78   A    
C21   C37   A    
C81   H29   S    
C27   C59   A    
O1    V3    S    
C15   C47   A    
C95   C96   S    
C66   C81   A    
O2    V4    S    
C14   O22   S    
C20   O27   S    
C51   C83   A    
O3    V1    S    
C73   C77   A    
C34   C38   A    
C31   C91   S    
C29   C85   S    
C49   C81   A    
C92   C93   S    
C83   H31   S    
C1    O15   A    
C82   H30   S    
C88   C89   S    
C2    O16   A    
C7    C9    S    
O2    C6    A    
C19   C55   A    
C33   C37   A    
O14   V2    S    
C41   C45   A    
C88   H45   S    
C66   C70   A    
C43   C55   A    
C65   C69   A    
C30   C58   A    
C16   N4    A    
O11   C7    A    
C28   H15   S    
C91   H52   S    
O12   C8    A    
C43   C72   A    
C62   C74   A    
C87   H35   S    
C31   C59   A    
C61   C73   A    
C89   H43   S    
O10   V2    S    
C63   C75   A    
C52   H12   S    
C25   H14   S    
C93   H49   S    
O5    V1    S    
C30   C88   S    
C18   O25   S    
C87   H33   S    
O7    V3    S    
C86   H37   S    
O8    V4    S    
C77   H21   S    
C12   H4    S    
C28   C60   A    
C56   C79   A    
O18   V4    S    
C50   C82   A    
C96   H56   S    
N4    C40   S    
C46   C50   A    
C35   H7    S    
C24   C40   A    
C8    C10   S    
O9    V1    S    
C85   H38   S    
C32   C36   A    
C52   C84   A    
C44   C56   A    
C11   H3    S    
C94   C95   S    
O5    C1    A    
C42   C46   A    
C93   H47   S    
C44   C71   A    
C74   H26   S    
O8    C4    A    
C13   C45   A    
C9    C10   D    
O9    C5    A    
C36   C40   A    
N2    C18   A    
O11   V3    S    
C88   H46   S    
C1    C60   S    
C63   C71   A    
C86   C87   S    
C22   C26   A    
C14   N2    A    
C51   H11   S    
C22   H17   S    
O6    V2    S    
C91   H53   S    
C76   H28   S    
C90   H42   S    
C55   C80   A    
C26   C58   A    
C17   C53   A    
C84   H32   S    
C54   C77   A    
N1    C37   S    
C4    C57   S    
C42   C69   A    
C78   H22   S    
C79   H23   S    
C41   C70   A    
C50   H10   S    
C23   C39   A    
C68   C72   A    
C49   H9    S    
C22   C38   A    
O16   V4    S    
C61   C69   A    
C3    O13   A    
C95   H58   S    
C10   H2    S    
C48   C52   A    
C3    C58   S    
C16   C48   A    
C94   H59   S    
O6    C2    A    
C21   C25   A    
C5    C11   S    
C75   C79   A    
O12   V4    S    
C13   N1    A    
C6    C12   S    
C89   H44   S    
C23   C27   A    
C64   C67   A    
C85   H39   S    
C24   C28   A    
C27   H16   S    
C64   C72   A    
O20   V2    S    
C75   H27   S    
C86   H36   S    
C35   C39   A    
O10   C6    A    
C96   H54   S    
C30   C34   A    
N4    C20   A    
C2    C59   S    
C15   N3    A    
C29   C33   A    
C29   C57   A    
C21   H18   S    
N3    C19   A    
C68   C83   A    
C76   C80   A    
C9    H1    S    
C17   O26   S    
C24   H19   S    
C43   C47   A    
C16   O24   S    
C67   C84   A    
C20   C56   A    
C19   O28   S    
C90   H41   S    
C4    O14   A    
C65   C82   A    
C13   O21   S    
C95   H57   S    
C80   H24   S    
C67   C71   A    
C85   C86   S    
C15   O23   S    
C92   H50   S    
C45   C49   A    
C34   H6    S    
C62   C65   A    
C33   H5    S    
