data_mof_unit_40098.cif
_audit_creation_date              2012-12-10T18:57:42-0500
_audit_creation_method            fapswitch 2.2
_symmetry_space_group_name_H-M    P1
_symmetry_Int_Tables_number       1
_space_group_crystal_system       triclinic
_cell_length_a                    10.914597
_cell_length_b                    10.813178
_cell_length_c                    9.557993
_cell_angle_alpha                 90.265354
_cell_angle_beta                  88.274553
_cell_angle_gamma                 90.294112
_cell_volume                      1127.51084373

loop_
_atom_site_label
_atom_site_type_symbol
_atom_type_description
_atom_site_fract_x
_atom_site_fract_y
_atom_site_fract_z
_atom_type_partial_charge
C1    C     C_R   0.502417 0.262383 0.499520 0.782923
C2    C     C_R   0.516151 0.129498 0.497653 -0.071474
C3    C     C_R   0.522574 0.063920 0.370378 -0.217785
C4    C     C_R   0.522724 0.935038 0.370989 -0.185507
C5    C     C_R   0.518008 0.870807 0.498828 -0.124774
C6    C     C_R   0.532972 0.937361 0.622802 -0.013100
C7    C     C_3   0.463123 0.932931 0.761428 0.319270
C8    C     C_3   0.458510 0.073668 0.758047 -0.497478
C9    C     C_R   0.590485 0.559711 0.070980 0.264837
C10   C     C_R   0.406468 0.448045 0.077101 -0.078175
C11   C     C_R   0.406389 0.448191 0.928484 -0.085170
C12   C     C_R   0.265523 0.504134 0.502581 0.839885
C13   C     C_R   0.590597 0.559685 0.923520 0.313686
C14   C     C_3   0.723963 0.529816 0.913937 -0.513397
C15   C     C_3   0.723652 0.530246 0.072031 -0.510050
C16   C     C_R   0.503560 0.737681 0.500063 0.804743
C17   C     C_R   0.734319 0.497098 0.497698 0.748873
C18   C     C_2   0.935511 0.567564 0.423757 0.068611
C19   C     C_2   0.866613 0.479428 0.488762 0.307121
C20   C     C_2   0.068583 0.553039 0.405865 -0.175314
C21   C     C_2   0.134092 0.516974 0.513403 -0.272156
C22   C     C_R   0.529068 0.064794 0.622017 0.015764
Cu1   Cu    Cu3+1 0.499990 0.499980 0.640670 0.941632
Cu2   Cu    Cu3+1 0.500010 0.500020 0.359330 0.945638
H1    H     H_    0.511600 0.120376 0.840688 0.207286
H2    H     H_    0.332202 0.402885 0.134549 0.147201
H3    H     H_    0.332082 0.403460 0.875224 0.142694
H4    H     H_    0.742465 0.436711 0.868348 0.217918
H5    H     H_    0.779368 0.606275 0.866627 0.195505
H6    H     H_    0.742318 0.437823 0.117071 0.218469
H7    H     H_    0.778135 0.607418 0.114949 0.204959
H8    H     H_    0.112900 0.579418 0.307054 0.156347
H9    H     H_    0.090572 0.504006 0.616178 0.181030
H10   H     H_    0.520146 0.111248 0.270877 0.167137
H11   H     H_    0.519459 0.886448 0.271861 0.183413
H12   H     H_    0.371095 0.889511 0.752285 0.106147
H13   H     H_    0.364431 0.110205 0.745534 0.166543
N1    N     N_R   0.500780 0.500930 0.147930 -0.189030
N2    N     N_R   0.500780 0.500890 0.852020 -0.189280
O1    O     O_R   0.500000 0.319640 0.618810 -0.581560
O2    O     O_R   0.500010 0.319680 0.381230 -0.588959
O3    O     O_R   0.321940 0.499980 0.618760 -0.590497
O4    O     O_R   0.321950 0.500020 0.381180 -0.580598
O5    O     O_R   0.499990 0.680320 0.618770 -0.571903
O6    O     O_R   0.500000 0.680360 0.381190 -0.574660
O7    O     O_R   0.678050 0.499980 0.618820 -0.602918
O8    O     O_R   0.678060 0.500020 0.381240 -0.576610
N3    N     N_3   0.880551 0.678077 0.371820 -0.625801
H14   H     H_    0.914327 0.752540 0.429451 0.215940
H15   H     H_    0.911486 0.690504 0.268335 0.212077
O9    O     O_3   0.922410 0.372249 0.538052 -0.603893
C23   C     C_3   0.840441 0.270967 0.552026 0.069373
H16   H     H_    0.789318 0.255796 0.454174 0.132285
H17   H     H_    0.775139 0.285823 0.641999 0.155189
C24   C     C_3   0.912564 0.154280 0.580431 -0.799250
H18   H     H_    0.963776 0.165382 0.678411 0.244228
H19   H     H_    0.848730 0.074366 0.592047 0.195356
H20   H     H_    0.978430 0.135638 0.492102 0.251947
O10   O     O_3   0.525021 0.886559 0.879687 -0.562717
C25   C     C_3   0.654509 0.897670 0.870330 0.106884
H21   H     H_    0.685890 0.987350 0.824979 0.138502
H22   H     H_    0.692824 0.820623 0.805532 0.149362
C26   C     C_3   0.705405 0.890376 0.016427 -0.834111
H23   H     H_    0.671277 0.805961 0.070361 0.252871
H24   H     H_    0.807107 0.888036 0.009632 0.200661
H25   H     H_    0.676133 0.972578 0.078745 0.243862

loop_
_geom_bond_atom_site_label_1
_geom_bond_atom_site_label_2
_ccdc_geom_bond_type
C16   O6    A    
C2    C22   A    
C8    C22   S    
C24   H18   S    
C26   H24   S    
C15   H7    S    
C6    C7    S    
C10   N1    A    
C7    H12   S    
C16   O5    A    
Cu2   N1    S    
C3    H10   S    
C23   C24   S    
C11   H3    S    
Cu1   Cu2   S    
C10   H2    S    
N3    H15   S    
C2    C3    A    
C9    C15   S    
C4    H11   S    
C7    C8    S    
Cu1   O7    S    
C13   C14   S    
C20   C21   D    
C11   N2    A    
C8    H1    S    
O9    C23   S    
C4    C5    A    
Cu1   O3    S    
Cu2   O2    S    
C25   C26   S    
Cu1   N2    S    
Cu2   O6    S    
C1    O2    A    
N3    H14   S    
C17   C19   S    
C23   H17   S    
C18   C19   D    
C12   O4    A    
C18   C20   S    
C24   H19   S    
C20   H8    S    
C5    C6    A    
C26   H25   S    
C13   N2    A    
C8    H13   S    
C14   H5    S    
Cu1   O1    S    
C6    C22   A    
C19   O9    S    
O10   C25   S    
C21   H9    S    
C17   O7    A    
C3    C4    A    
C15   H6    S    
C25   H22   S    
C1    C2    S    
C10   C11   A    
C24   H20   S    
C7    O10   S    
Cu2   O4    S    
C9    C13   A    
C14   C15   S    
C9    N1    A    
C5    C16   S    
C12   O3    A    
C1    O1    A    
C14   H4    S    
C26   H23   S    
Cu2   O8    S    
C12   C21   S    
Cu1   O5    S    
C17   O8    A    
C23   H16   S    
C25   H21   S    
C18   N3    S    
