data_mof_unit_44239.cif
_audit_creation_date              2012-10-26T21:20:12-0400
_audit_creation_method            fapswitch 2.2
_symmetry_space_group_name_H-M    P1
_symmetry_Int_Tables_number       1
_space_group_crystal_system       triclinic
_cell_length_a                    13.009674
_cell_length_b                    10.86541
_cell_length_c                    9.581535
_cell_angle_alpha                 88.851627
_cell_angle_beta                  95.614048
_cell_angle_gamma                 92.189323
_cell_volume                      1346.74071459

loop_
_atom_site_label
_atom_site_type_symbol
_atom_type_description
_atom_site_fract_x
_atom_site_fract_y
_atom_site_fract_z
_atom_type_partial_charge
C1    C     C_R   0.509085 0.262686 0.502746 0.561702
C2    C     C_R   0.698904 0.488417 0.526059 0.575465
C3    C     C_R   0.811859 0.471152 0.540661 -0.015033
C4    C     C_R   0.188141 0.528848 0.459339 -0.015033
C5    C     C_R   0.023644 0.553903 0.318568 0.149599
C6    C     C_R   0.976356 0.446098 0.681432 0.149599
C7    C     C_R   0.132426 0.557175 0.328657 0.064807
C8    C     C_R   0.867574 0.442825 0.671343 0.064807
C9    C     C_R   0.134332 0.520625 0.580014 0.232380
C10   C     C_R   0.865667 0.479376 0.419986 0.232380
C11   C     C_R   0.027959 0.492347 0.566567 -0.030026
C12   C     C_R   0.490915 0.737314 0.497253 0.561701
C13   C     C_R   0.972041 0.507654 0.433433 -0.030026
C14   C     C_R   0.528914 0.066036 0.382151 0.093447
C15   C     C_R   0.471085 0.933964 0.617849 0.093447
C16   C     C_R   0.501520 0.941206 0.371615 0.095629
C17   C     C_R   0.498480 0.058794 0.628385 0.095628
C18   C     C_R   0.482832 0.872089 0.493282 -0.038565
C19   C     C_R   0.517168 0.127911 0.506718 -0.038565
C20   C     C_R   0.432868 0.423904 0.066821 0.342293
C21   C     C_R   0.567132 0.576096 0.933179 0.342293
C22   C     C_R   0.432332 0.424743 0.918541 0.357496
C23   C     C_R   0.567667 0.575257 0.081459 0.357497
C24   C     C_R   0.301095 0.511583 0.473941 0.575465
Cl1   Cl    Cl    0.809201 0.410683 0.263012 -0.460456
Cl2   Cl    Cl    0.190799 0.589318 0.736988 -0.460456
Cl3   Cl    Cl    0.346371 0.321134 0.145034 -0.421161
Cl4   Cl    Cl    0.653629 0.678865 0.854966 -0.421161
Cl5   Cl    Cl    0.342357 0.326955 0.820931 -0.403903
Cl6   Cl    Cl    0.657643 0.673045 0.179069 -0.403903
Cu1   Cu    Cu3+1 0.500000 0.500020 0.640660 1.177127
Cu2   Cu    Cu3+1 0.500000 0.499980 0.359340 1.177127
I1    I     I_    0.791334 0.374970 0.848712 -0.070924
I2    I     I_    0.208665 0.625027 0.151287 -0.070923
I3    I     I_    0.940337 0.645677 0.143366 0.012899
I4    I     I_    0.059663 0.354324 0.856635 0.012899
I5    I     I_    0.616737 0.148141 0.224799 -0.054067
I6    I     I_    0.383263 0.851859 0.775201 -0.054067
I7    I     I_    0.454366 0.876003 0.166261 -0.072677
I8    I     I_    0.545634 0.123997 0.833739 -0.072677
N1    N     N_R   0.500030 0.500030 0.852080 -0.281135
N2    N     N_R   0.499970 0.499970 0.147920 -0.281135
O1    O     O_R   0.499990 0.319660 0.618740 -0.468905
O2    O     O_R   0.500010 0.680340 0.381260 -0.468905
O3    O     O_R   0.499990 0.319630 0.381170 -0.454155
O4    O     O_R   0.500010 0.680370 0.618830 -0.454155
O5    O     O_R   0.349000 0.499990 0.599490 -0.424569
O6    O     O_R   0.651000 0.500010 0.400510 -0.424569
O7    O     O_R   0.348990 0.499960 0.361920 -0.467268
O8    O     O_R   0.651010 0.500040 0.638080 -0.467268

loop_
_geom_bond_atom_site_label_1
_geom_bond_atom_site_label_2
_ccdc_geom_bond_type
C15   C18   A    
C20   N2    A    
C10   C13   A    
C15   I6    S    
C15   C17   A    
C22   Cl5   S    
Cu2   O6    S    
Cu2   O3    S    
C5    C13   A    
Cu1   Cu2   S    
C2    O6    A    
C2    C3    S    
Cu2   O2    S    
C12   O2    A    
C3    C10   A    
Cu1   O5    S    
C14   I5    S    
C9    C11   A    
C6    C11   A    
C1    O3    A    
C16   I7    S    
C23   N2    A    
Cu1   O1    S    
C4    C7    A    
C21   N1    A    
C5    I3    S    
C10   Cl1   S    
C12   O4    A    
C20   Cl3   S    
C21   Cl4   S    
C6    I4    S    
C9    Cl2   S    
C8    I1    S    
C21   C23   A    
C4    C24   S    
C7    I2    S    
C14   C16   A    
Cu2   O7    S    
C1    C19   S    
C22   N1    A    
Cu1   O8    S    
C23   Cl6   S    
C11   C13   A    
C16   C18   A    
C3    C8    A    
C12   C18   S    
C24   O7    A    
C5    C7    A    
Cu2   N2    S    
C6    C8    A    
C2    O8    A    
C17   C19   A    
C4    C9    A    
C17   I8    S    
C24   O5    A    
Cu1   N1    S    
C14   C19   A    
C1    O1    A    
C20   C22   A    
Cu1   O4    S    
