data_mof_unit_35323.cif
_audit_creation_date              2012-10-26T20:14:34-0400
_audit_creation_method            fapswitch 2.2
_symmetry_space_group_name_H-M    P1
_symmetry_Int_Tables_number       1
_space_group_crystal_system       triclinic
_cell_length_a                    7.773878
_cell_length_b                    9.09119
_cell_length_c                    17.394049
_cell_angle_alpha                 89.976346
_cell_angle_beta                  85.513516
_cell_angle_gamma                 90.003983
_cell_volume                      1225.53664872

loop_
_atom_site_label
_atom_site_type_symbol
_atom_type_description
_atom_site_fract_x
_atom_site_fract_y
_atom_site_fract_z
_atom_type_partial_charge
C1    C     C_R   0.499996 0.780002 0.500030 0.536351
C2    C     C_R   0.384615 0.467008 0.227975 -0.181395
C3    C     C_R   0.609974 0.502822 0.852601 -0.132506
C4    C     C_R   0.391369 0.450636 0.148675 -0.134613
C5    C     C_R   0.450841 0.512151 0.896157 -0.004112
C6    C     C_R   0.550181 0.456677 0.104960 -0.007162
C7    C     C_R   0.298763 0.526500 0.858871 -0.092344
C8    C     C_R   0.702634 0.475113 0.141364 -0.091043
C9    C     C_R   0.303746 0.529593 0.778509 0.266179
C10   C     C_R   0.697192 0.496644 0.220944 0.266842
C11   C     C_2   0.439578 0.511240 0.980659 -0.131436
C12   C     C_R   0.499990 0.219988 0.500030 0.554646
C13   C     C_2   0.559561 0.447579 0.020869 -0.131933
C14   C     C_3   0.882841 0.666056 0.266249 0.029008
C15   C     C_3   0.984549 0.732884 0.195615 -0.292288
C16   C     C_3   0.044718 0.888689 0.212095 -0.470566
C17   C     C_3   0.122486 0.689569 0.722722 0.029890
C18   C     C_3   0.021690 0.773277 0.788150 -0.292756
C19   C     C_3   0.968891 0.925801 0.761876 -0.467927
C20   C     C_1   0.499989 0.934617 0.500053 -0.060614
C21   C     C_1   0.499981 0.065356 0.500051 -0.053155
C22   C     C_R   0.476913 0.503207 0.650392 0.543140
C23   C     C_R   0.523102 0.498908 0.349571 0.543351
C24   C     C_R   0.463817 0.510583 0.734863 0.008000
C25   C     C_R   0.536357 0.489611 0.265154 0.007550
C26   C     C_R   0.615993 0.500286 0.772885 -0.181829
Cu1   Cu    Cu3+1 0.330920 0.500000 0.500000 1.019934
Cu2   Cu    Cu3+1 0.669080 0.500000 0.500000 1.021933
H1    H     H_    0.175400 0.535038 0.892217 0.104421
H2    H     H_    0.762906 0.730945 0.281242 0.117641
H3    H     H_    0.098959 0.663498 0.178993 0.169832
H4    H     H_    0.901954 0.736699 0.146367 0.149822
H5    H     H_    0.932155 0.960628 0.228254 0.159053
H6    H     H_    0.116150 0.934504 0.159694 0.151144
H7    H     H_    0.132078 0.887785 0.259681 0.156212
H8    H     H_    0.044309 0.687936 0.671899 0.173541
H9    H     H_    0.244271 0.749319 0.704138 0.118318
H10   H     H_    0.903972 0.710447 0.807911 0.171036
H11   H     H_    0.102728 0.785748 0.837565 0.150563
H12   H     H_    0.825943 0.477374 0.107657 0.104863
H13   H     H_    0.084877 0.991344 0.742454 0.160268
H14   H     H_    0.897714 0.984087 0.810627 0.153641
H15   H     H_    0.883382 0.916627 0.713825 0.156293
H16   H     H_    0.272378 0.431415 0.121786 0.121704
H17   H     H_    0.730689 0.498615 0.879476 0.116654
H18   H     H_    0.740872 0.489868 0.741063 0.168298
H19   H     H_    0.259876 0.460112 0.260215 0.168831
H20   H     H_    0.671669 0.394232 0.992144 0.117322
H21   H     H_    0.328629 0.564781 0.010540 0.111630
H22   H     H_    0.962036 0.675160 0.316531 0.172916
N1    N     N_1   0.923170 0.500000 0.500010 -0.083580
N2    N     N_1   0.076830 0.500000 0.499990 -0.084385
O1    O     O_R   0.357240 0.711600 0.500000 -0.510111
O2    O     O_3   0.149850 0.541406 0.743983 -0.564652
O3    O     O_R   0.642760 0.288400 0.500000 -0.492435
O4    O     O_R   0.642760 0.711600 0.500000 -0.508816
O5    O     O_R   0.357240 0.288400 0.500000 -0.493315
O6    O     O_R   0.340660 0.500000 0.613590 -0.467934
O7    O     O_R   0.659340 0.500000 0.386410 -0.466360
O8    O     O_R   0.626230 0.500000 0.613600 -0.520233
O9    O     O_R   0.373770 0.500000 0.386400 -0.519733
O10   O     O_3   0.851122 0.514477 0.254810 -0.563594

loop_
_geom_bond_atom_site_label_1
_geom_bond_atom_site_label_2
_ccdc_geom_bond_type
C22   O6    A    
C13   H20   S    
C2    C4    A    
C18   H11   S    
Cu1   O1    S    
C9    C24   A    
C15   H3    S    
C7    H1    S    
C17   H8    S    
C16   H5    S    
C8    H12   S    
C19   H14   S    
Cu2   O8    S    
C17   C18   S    
Cu2   O4    S    
C3    H17   S    
C15   H4    S    
C17   H9    S    
C20   C21   T    
C6    C13   S    
C23   O7    A    
C11   C13   D    
C10   O10   S    
C14   H2    S    
C11   H21   S    
C12   O5    A    
C6    C8    A    
C10   C25   A    
C4    C6    A    
Cu2   O3    S    
C19   H15   S    
C5    C11   S    
C2    C25   A    
C5    C7    A    
C23   C25   S    
C16   H7    S    
C22   O8    A    
C2    H19   S    
Cu2   N1    S    
C22   C24   S    
C12   O3    A    
C14   H22   S    
C15   C16   S    
C14   O10   S    
C19   H13   S    
C23   O9    A    
Cu1   N2    S    
C8    C10   A    
C18   C19   S    
Cu1   O5    S    
Cu2   O7    S    
Cu1   Cu2   S    
C7    C9    A    
C17   O2    S    
C26   H18   S    
C14   C15   S    
C1    C20   S    
C1    O1    A    
C9    O2    S    
C4    H16   S    
C16   H6    S    
C18   H10   S    
C12   C21   S    
C1    O4    A    
C3    C26   A    
N1    N2    T    
C24   C26   A    
C3    C5    A    
Cu1   O6    S    
Cu1   O9    S    
