data_mof_unit_28068.cif
_audit_creation_date              2012-12-11T17:04:53-0500
_audit_creation_method            fapswitch 2.2
_symmetry_space_group_name_H-M    P1
_symmetry_Int_Tables_number       1
_space_group_crystal_system       triclinic
_cell_length_a                    17.386987
_cell_length_b                    24.330441
_cell_length_c                    14.895554
_cell_angle_alpha                 90.202498
_cell_angle_beta                  125.241823
_cell_angle_gamma                 89.930726
_cell_volume                      5146.39724573

loop_
_atom_site_label
_atom_site_type_symbol
_atom_type_description
_atom_site_fract_x
_atom_site_fract_y
_atom_site_fract_z
_atom_type_partial_charge
C1    C     C_R   0.853366 0.652722 0.906530 -0.157603
C2    C     C_R   0.934844 0.502384 0.632174 0.078263
C3    C     C_R   0.761401 0.047632 0.295941 -0.132489
C4    C     C_R   0.820923 0.365254 0.911088 -0.126715
C5    C     C_R   0.187270 0.374367 0.089078 -0.122447
C6    C     C_R   0.316591 0.869759 0.912470 -0.122305
C7    C     C_R   0.684927 0.871196 0.090152 -0.127634
C8    C     C_R   0.942506 0.653524 0.089026 -0.141093
C9    C     C_R   0.061347 0.652198 0.910809 -0.123872
C10   C     C_R   0.439057 0.152283 0.090048 -0.123948
C11   C     C_R   0.557896 0.153491 0.911960 -0.140642
C12   C     C_R   0.882485 0.685035 0.996593 0.086310
C13   C     C_R   0.566387 0.002706 0.368323 0.079555
C14   C     C_R   0.123912 0.683240 0.003874 0.073192
C15   C     C_R   0.377068 0.183628 0.997691 0.074525
C16   C     C_R   0.618453 0.184707 0.005178 0.085193
C17   C     C_R   0.538897 0.002961 0.712395 0.072872
C18   C     C_R   0.674895 0.500857 0.707987 0.037125
C19   C     C_R   0.313157 0.501979 0.350293 0.040557
C20   C     C_R   0.174829 0.000779 0.704895 0.037778
C21   C     C_R   0.810963 0.002011 0.353280 0.041384
C22   C     C_3   0.512921 0.450273 0.575854 -0.167768
C23   C     C_3   0.482881 0.467896 0.460619 -0.152485
C24   C     C_3   0.013702 0.949695 0.572653 -0.169359
C25   C     C_R   0.151190 0.651611 0.094121 -0.145849
C26   C     C_3   0.980712 0.970206 0.458004 -0.149117
C27   C     C_3   0.433227 0.485117 0.564277 -0.145741
C28   C     C_3   0.547304 0.518556 0.508408 -0.139538
C29   C     C_3   0.934233 0.982245 0.566227 -0.148303
C30   C     C_3   0.043795 0.021293 0.507834 -0.141589
C31   C     C_3   0.405144 0.502648 0.450641 0.186179
C32   C     C_3   0.576450 0.501065 0.622592 0.185352
C33   C     C_3   0.903158 0.002674 0.453067 0.185226
C34   C     C_3   0.075993 0.000909 0.621478 0.186001
C35   C     C_3   0.468591 0.553446 0.497577 -0.167337
C36   C     C_R   0.349968 0.152030 0.906994 -0.153238
C37   C     C_3   0.499178 0.535960 0.613444 -0.154960
C38   C     C_3   0.965327 0.053897 0.502177 -0.167371
C39   C     C_3   0.998996 0.033500 0.617595 -0.152360
C40   C     C_R   0.774701 0.304022 0.108821 0.164087
C41   C     C_R   0.233069 0.310245 0.892440 0.164304
C42   C     C_R   0.271201 0.808185 0.109930 0.163883
C43   C     C_R   0.732157 0.807557 0.893353 0.165410
C44   C     C_R   0.756068 0.321575 0.008769 0.040588
C45   C     C_R   0.255319 0.333040 0.991262 0.033992
C46   C     C_R   0.248759 0.830095 0.010808 0.036252
C47   C     C_R   0.647606 0.152371 0.094662 -0.149937
C48   C     C_R   0.750881 0.826747 0.992918 0.036610
C49   C     C_R   0.666076 0.311361 0.912266 -0.203112
C50   C     C_R   0.342345 0.318847 0.088824 -0.201633
C51   C     C_R   0.160572 0.817029 0.913799 -0.202327
C52   C     C_R   0.839410 0.814715 0.090166 -0.202988
C53   C     C_R   0.914802 0.365095 0.094175 -0.143243
C54   C     C_R   0.095470 0.376938 0.905147 -0.147149
C55   C     C_R   0.406590 0.875435 0.095806 -0.147145
C56   C     C_R   0.589519 0.868058 0.906733 -0.141841
C57   C     C_R   0.110149 0.772036 0.912820 -0.203022
C58   C     C_R   0.828640 0.347885 0.004371 0.069743
C59   C     C_R   0.893848 0.772505 0.089925 -0.205169
C60   C     C_R   0.609051 0.271465 0.913297 -0.205913
C61   C     C_R   0.391247 0.272734 0.090115 -0.202446
C62   C     C_R   0.148207 0.740930 0.009093 0.034020
C63   C     C_R   0.859136 0.742842 0.992388 0.030734
C64   C     C_R   0.643412 0.242076 0.010609 0.030855
C65   C     C_R   0.353411 0.241574 0.993506 0.033380
C66   C     C_R   0.221315 0.764068 0.109062 0.156735
C67   C     C_R   0.786178 0.766270 0.892978 0.161302
C68   C     C_R   0.718774 0.264562 0.109997 0.159266
C69   C     C_R   0.183492 0.361571 0.995460 0.070921
C70   C     C_R   0.281838 0.265236 0.893637 0.158318
C71   C     C_3   0.307771 0.738542 0.206936 -0.520585
C72   C     C_3   0.702832 0.740958 0.790626 -0.523771
C73   C     C_3   0.801785 0.238364 0.211231 -0.522092
C74   C     C_3   0.195355 0.240302 0.794571 -0.522139
C75   C     C_3   0.862439 0.281778 0.209727 -0.529957
C76   C     C_3   0.141793 0.289263 0.793522 -0.522504
C77   C     C_3   0.362368 0.786753 0.207711 -0.522509
C78   C     C_3   0.643933 0.785906 0.791474 -0.530177
C79   C     C_R   0.897737 0.554724 0.469513 0.153657
C80   C     C_R   0.320303 0.857973 0.006097 0.070993
C81   C     C_R   0.904301 0.554929 0.381740 0.164959
C82   C     C_R   0.595259 0.054975 0.618242 0.164257
C83   C     C_R   0.603301 0.054988 0.531568 0.154566
C84   C     C_R   0.897942 0.504826 0.516264 0.031160
C85   C     C_R   0.911308 0.505246 0.339370 0.036783
C86   C     C_R   0.587016 0.005185 0.658794 0.037609
C87   C     C_R   0.603485 0.005178 0.484299 0.030590
C88   C     C_R   0.877848 0.456394 0.454422 -0.206713
C89   C     C_R   0.884401 0.456647 0.365231 -0.202168
C90   C     C_R   0.614421 0.956675 0.632920 -0.200500
C91   C     C_R   0.678082 0.853762 0.996943 0.071058
C92   C     C_R   0.622828 0.956660 0.545120 -0.211724
C93   C     C_3   0.966606 0.604651 0.423855 -0.524474
C94   C     C_3   0.959468 0.604465 0.519870 -0.518104
C95   C     C_3   0.542063 0.104842 0.481622 -0.518077
C96   C     C_3   0.533470 0.104826 0.576556 -0.524572
C97   C     C_R   0.982588 0.547869 0.249764 -0.149113
C98   C     C_R   0.950983 0.547289 0.697217 -0.145647
C99   C     C_R   0.549821 0.047477 0.303302 -0.144026
C100  C     C_R   0.516336 0.047835 0.749181 -0.149132
C101  C     C_R   0.730105 0.454947 0.735189 -0.130672
C102  C     C_R   0.959159 0.503030 0.285411 0.072118
C103  C     C_R   0.261829 0.455462 0.297254 -0.159584
C104  C     C_R   0.230131 0.954940 0.732501 -0.134303
C105  C     C_R   0.760676 0.955483 0.298704 -0.156803
C106  C     C_R   0.992579 0.456518 0.263981 -0.124787
C107  C     C_R   0.949446 0.455953 0.693819 -0.144115
C108  C     C_R   0.551138 0.956171 0.306254 -0.140014
C109  C     C_R   0.505555 0.956505 0.733820 -0.127727
C110  C     C_R   0.730339 0.547108 0.742064 -0.145242
C111  C     C_R   0.262717 0.547656 0.294034 -0.132797
C112  C     C_R   0.230158 0.047083 0.740307 -0.145716
H1    H     H_    0.821762 0.666363 0.823310 0.098997
H2    H     H_    0.509274 0.563469 0.679075 0.113691
H3    H     H_    0.944160 0.096631 0.471742 0.108650
H4    H     H_    0.010027 0.059092 0.685966 0.113935
H5    H     H_    0.644023 0.328941 0.834228 0.123281
H6    H     H_    0.366596 0.338374 0.166283 0.123911
H7    H     H_    0.136303 0.836510 0.836506 0.124070
H8    H     H_    0.861579 0.832534 0.168255 0.123946
H9    H     H_    0.048888 0.758167 0.834753 0.122957
H10   H     H_    0.955047 0.758792 0.167961 0.123925
H11   H     H_    0.546049 0.258748 0.835667 0.123892
H12   H     H_    0.185553 0.665444 0.177923 0.098597
H13   H     H_    0.451280 0.258346 0.168413 0.123038
H14   H     H_    0.327878 0.699086 0.187792 0.203637
H15   H     H_    0.682963 0.699843 0.803635 0.200823
H16   H     H_    0.819133 0.196666 0.197006 0.203768
H17   H     H_    0.173567 0.201211 0.812415 0.201357
H18   H     H_    0.305512 0.737675 0.280009 0.187095
H19   H     H_    0.707962 0.743717 0.719750 0.188383
H20   H     H_    0.798245 0.242025 0.283197 0.187299
H21   H     H_    0.198807 0.238999 0.722351 0.187992
H22   H     H_    0.912664 0.264227 0.193839 0.199688
H23   H     H_    0.316561 0.166169 0.823727 0.099560
H24   H     H_    0.089822 0.277668 0.811029 0.200287
H25   H     H_    0.413276 0.774535 0.188817 0.200529
H26   H     H_    0.592326 0.769454 0.805998 0.199225
H27   H     H_    0.893551 0.310646 0.280577 0.186266
H28   H     H_    0.114020 0.315885 0.720397 0.190632
H29   H     H_    0.391574 0.813517 0.281282 0.190637
H30   H     H_    0.614668 0.814454 0.720778 0.186271
H31   H     H_    0.869598 0.417316 0.482296 0.124630
H32   H     H_    0.880535 0.417859 0.327020 0.125540
H33   H     H_    0.617475 0.917833 0.670022 0.124394
H34   H     H_    0.680072 0.165751 0.178395 0.097633
H35   H     H_    0.631556 0.917644 0.517073 0.124315
H36   H     H_    0.931943 0.640883 0.369510 0.190657
H37   H     H_    0.028235 0.595883 0.599004 0.204381
H38   H     H_    0.473644 0.096465 0.401787 0.204389
H39   H     H_    0.568060 0.140913 0.631912 0.190553
H40   H     H_    0.948599 0.353751 0.178099 0.098175
H41   H     H_    0.069451 0.375179 0.819827 0.111269
H42   H     H_    0.432895 0.873925 0.181230 0.110791
H43   H     H_    0.557343 0.856861 0.823080 0.098726
H44   H     H_    0.039360 0.596110 0.448943 0.200075
H45   H     H_    0.532957 0.408165 0.610468 0.103766
H46   H     H_    0.920720 0.640610 0.520758 0.186498
H47   H     H_    0.581463 0.140978 0.482265 0.186452
H48   H     H_    0.460328 0.096373 0.550183 0.200065
H49   H     H_    0.966320 0.590420 0.251118 0.111435
H50   H     H_    0.930602 0.589304 0.670980 0.098861
H51   H     H_    0.570477 0.089519 0.329814 0.098111
H52   H     H_    0.532489 0.090389 0.747986 0.111481
H53   H     H_    0.706392 0.413888 0.704209 0.085114
H54   H     H_    0.278036 0.413775 0.327780 0.095136
H55   H     H_    0.206909 0.913920 0.700720 0.086108
H56   H     H_    0.473794 0.440281 0.395602 0.110311
H57   H     H_    0.776605 0.913721 0.328808 0.092933
H58   H     H_    0.708187 0.589597 0.725204 0.100272
H59   H     H_    0.278700 0.590211 0.319521 0.088274
H60   H     H_    0.207914 0.089550 0.723578 0.100841
H61   H     H_    0.776902 0.090210 0.321378 0.086626
H62   H     H_    0.767316 0.353484 0.827777 0.084052
H63   H     H_    0.245183 0.367616 0.173486 0.090944
H64   H     H_    0.262555 0.857005 0.830019 0.086082
H65   H     H_    0.743241 0.865764 0.174858 0.090292
H66   H     H_    0.383099 0.471584 0.583192 0.112822
H67   H     H_    0.035201 0.907082 0.603803 0.103096
H68   H     H_    0.596412 0.532151 0.487909 0.114532
H69   H     H_    0.885843 0.966499 0.586152 0.114627
H70   H     H_    0.090987 0.037166 0.486172 0.113825
H71   H     H_    0.995084 0.415780 0.292993 0.084460
H72   H     H_    0.929944 0.414252 0.663720 0.085509
H73   H     H_    0.570789 0.914533 0.336040 0.083888
H74   H     H_    0.501360 0.915867 0.702859 0.085155
H75   H     H_    0.988587 0.668241 0.172650 0.082938
H76   H     H_    0.016943 0.666529 0.826930 0.083251
H77   H     H_    0.483527 0.166503 0.174207 0.082824
H78   H     H_    0.970858 0.944484 0.390331 0.111296
H79   H     H_    0.512083 0.168320 0.828601 0.083350
H80   H     H_    0.449083 0.595699 0.463678 0.109032
N1    N     N_R   0.892620 0.603790 0.941770 -0.035881
N2    N     N_R   0.973690 0.529110 0.793240 -0.038705
N3    N     N_R   0.526310 0.029110 0.206760 -0.038339
N4    N     N_R   0.473690 0.029110 0.793240 -0.041577
N5    N     N_R   0.818570 0.472310 0.793020 -0.036987
N6    N     N_R   0.181430 0.472310 0.206980 -0.035799
N7    N     N_R   0.318570 0.972310 0.793020 -0.038051
N8    N     N_R   0.681430 0.972310 0.206980 -0.034330
N9    N     N_R   0.026930 0.472300 0.207330 -0.038933
N10   N     N_R   0.973070 0.472300 0.792670 -0.039025
N11   N     N_R   0.526930 0.972300 0.207330 -0.037956
N12   N     N_R   0.107380 0.603790 0.058230 -0.038339
N13   N     N_R   0.473070 0.972300 0.792670 -0.040065
N14   N     N_R   0.817960 0.529130 0.792460 -0.038085
N15   N     N_R   0.182040 0.529130 0.207540 -0.036850
N16   N     N_R   0.317960 0.029130 0.792460 -0.038787
N17   N     N_R   0.682040 0.029130 0.207540 -0.035822
N18   N     N_R   0.894850 0.397640 0.943830 -0.038857
N19   N     N_R   0.105150 0.397640 0.056170 -0.041390
N20   N     N_R   0.394850 0.897640 0.943830 -0.040365
N21   N     N_R   0.605150 0.897640 0.056170 -0.040467
N22   N     N_R   0.950040 0.603780 0.055950 -0.037616
N23   N     N_R   0.392620 0.103790 0.941770 -0.036712
N24   N     N_R   0.049960 0.603780 0.944050 -0.038975
N25   N     N_R   0.450040 0.103780 0.055950 -0.038614
N26   N     N_R   0.549960 0.103780 0.944050 -0.038192
N27   N     N_R   0.607380 0.103790 0.058230 -0.037608
N28   N     N_R   0.952270 0.397640 0.058010 -0.038817
N29   N     N_R   0.047730 0.397640 0.941990 -0.041973
N30   N     N_R   0.452270 0.897640 0.058010 -0.041293
N31   N     N_R   0.547730 0.897640 0.941990 -0.040066
N32   N     N_R   0.026310 0.529110 0.206760 -0.040802
Ni1   Ni    Ni4+2 0.934160 0.565860 0.869070 0.204166
Ni2   Ni    Ni4+2 0.065840 0.565860 0.130930 0.206401
Ni3   Ni    Ni4+2 0.434160 0.065860 0.869070 0.205732
Ni4   Ni    Ni4+2 0.565840 0.065860 0.130930 0.204711
Ni5   Ni    Ni4+2 0.067260 0.435560 0.132230 0.211211
Ni6   Ni    Ni4+2 0.932740 0.435560 0.867770 0.208732
Ni7   Ni    Ni4+2 0.567260 0.935560 0.132230 0.208084
Ni8   Ni    Ni4+2 0.432740 0.935560 0.867770 0.211878

loop_
_geom_bond_atom_site_label_1
_geom_bond_atom_site_label_2
_ccdc_geom_bond_type
C44   C49   A    
C3    N17   A    
C55   H42   S    
C83   C87   A    
C35   H80   S    
C38   H3    S    
C29   C33   S    
C5    H63   S    
C15   C36   A    
C2    C84   S    
C95   C96   S    
C27   H66   S    
C9    C14   A    
C25   N12   A    
C19   C31   S    
C54   H41   S    
C76   H24   S    
N6    Ni5   S    
N18   N28   A    
C57   C62   A    
N20   N30   A    
N5    Ni6   S    
C94   H37   S    
C98   N2    A    
C93   C94   S    
C49   C60   A    
C29   H69   S    
N3    Ni4   S    
C95   H47   S    
C64   C68   A    
N2    Ni1   S    
C35   C37   S    
C24   C26   S    
C105  H57   S    
C108  N11   A    
C8    N22   A    
C10   C15   A    
C78   H30   S    
C36   N23   A    
C38   C39   S    
N20   Ni8   S    
C101  N5    A    
N3    N11   A    
C65   C70   A    
C14   C62   S    
C74   H21   S    
C99   N3    A    
C2    C107  A    
C4    N18   A    
C7    H65   S    
C93   H36   S    
C67   C72   S    
C42   C46   A    
N4    N13   A    
C24   C29   S    
C5    C69   A    
N15   Ni2   S    
C13   C108  A    
C20   C112  A    
C19   C103  A    
C3    H61   S    
C105  N8    A    
C49   H5    S    
C101  H53   S    
C28   C35   S    
C44   C58   S    
C56   C91   A    
C48   C91   S    
N29   Ni6   S    
C70   C74   S    
C53   H40   S    
C51   H7    S    
C9    N24   A    
C71   H14   S    
C51   C57   A    
N8    Ni7   S    
N27   Ni4   S    
C43   C48   A    
C88   H31   S    
N23   Ni3   S    
C97   C102  A    
N21   Ni7   S    
C81   C85   A    
N10   Ni6   S    
C20   C34   S    
C9    H76   S    
C53   N28   A    
N9    Ni5   S    
N4    Ni3   S    
C83   C95   S    
C94   H46   S    
C4    H62   S    
C87   C92   A    
C92   H35   S    
C30   H70   S    
C29   C39   S    
N5    N14   A    
C112  H60   S    
C1    C12   A    
C1    H1    S    
N14   Ni1   S    
C56   H43   S    
C78   H26   S    
C16   C47   A    
C98   H50   S    
C22   H45   S    
C52   H8    S    
C100  N4    A    
C8    H75   S    
C26   H78   S    
C103  H54   S    
C5    N19   A    
C63   C67   A    
C75   H22   S    
C10   H77   S    
C82   C96   S    
C62   C66   A    
C72   H15   S    
C45   C69   S    
C34   C39   S    
C84   C88   A    
C108  H73   S    
C28   C32   S    
C112  N16   A    
C107  N10   A    
C110  N14   A    
C86   C90   A    
C79   C81   A    
C12   C63   S    
C30   C34   S    
C54   N29   A    
C37   H2    S    
C68   C73   S    
C82   C86   A    
C96   H39   S    
C47   N27   A    
C46   C51   A    
C24   C34   S    
C17   C86   S    
N32   Ni2   S    
C43   C78   S    
C103  N6    A    
C23   C31   S    
C13   C99   A    
C60   H11   S    
C1    N1    A    
N7    Ni8   S    
C52   C59   A    
N19   N29   A    
C81   C93   S    
C11   C16   A    
C26   C33   S    
C90   C92   A    
C66   C71   S    
C40   C44   A    
C8    C12   A    
C7    C91   A    
C13   C87   S    
C24   H67   S    
C11   H79   S    
N18   Ni6   S    
C100  H52   S    
C95   H38   S    
C32   C37   S    
C109  N13   A    
N11   Ni7   S    
C28   H68   S    
C11   N26   A    
C2    C98   A    
C25   H12   S    
C7    N21   A    
C22   C32   S    
C79   C94   S    
C55   N30   A    
C99   H51   S    
N28   Ni5   S    
C96   H48   S    
N30   Ni7   S    
C26   C30   S    
C97   H49   S    
C22   C27   S    
C27   C31   S    
N17   Ni4   S    
C6    C80   A    
C104  N7    A    
C31   C35   S    
C3    C21   A    
C23   C28   S    
C73   C75   S    
C76   H28   S    
N12   Ni2   S    
C73   H16   S    
C36   H23   S    
C111  N15   A    
N26   Ni3   S    
C71   C77   S    
N31   Ni8   S    
C72   H19   S    
C42   C66   A    
C85   C89   A    
N19   Ni5   S    
N1    N22   A    
N6    N15   A    
C50   H6    S    
C93   H44   S    
C18   C110  A    
C77   H25   S    
N13   Ni8   S    
C17   C109  A    
C56   N31   A    
C61   H13   S    
C53   C58   A    
C40   C75   S    
C4    C58   A    
C20   C104  A    
N24   Ni1   S    
C19   C111  A    
C109  H74   S    
C90   H33   S    
C89   H32   S    
N12   N24   A    
N2    N10   A    
C59   C63   A    
N8    N17   A    
N9    N32   A    
C97   N32   A    
C107  H72   S    
C60   C64   A    
C21   C33   S    
N23   N25   A    
C74   C76   S    
N1    Ni1   S    
N16   Ni3   S    
C75   H27   S    
C106  N9    A    
C46   C80   S    
C55   C80   A    
N21   N31   A    
N26   N27   A    
C79   C84   A    
C54   C69   A    
C6    H64   S    
C45   C50   A    
C27   C37   S    
N7    N16   A    
C41   C76   S    
C18   C32   S    
C102  C106  A    
C111  H59   S    
C14   C25   A    
N22   Ni2   S    
C17   C100  A    
C77   H29   S    
C106  H71   S    
C47   H34   S    
N25   Ni4   S    
C57   H9    S    
C23   H56   S    
C61   C65   A    
C71   H18   S    
C48   C52   A    
C6    N20   A    
C88   C89   A    
C110  H58   S    
C42   C77   S    
C43   C67   A    
C82   C83   A    
C40   C68   A    
C74   H17   S    
C72   C78   S    
C39   H4    S    
C50   C61   A    
C41   C45   A    
C22   C23   S    
C33   C38   S    
C73   H20   S    
C16   C64   S    
C30   C38   S    
C18   C101  A    
C59   H10   S    
C21   C105  A    
C85   C102  S    
C10   N25   A    
C41   C70   A    
C104  H55   S    
C15   C65   S    
