data_mof_unit_51737.cif
_audit_creation_date              2013-03-05T16:21:03-0500
_audit_creation_method            fapswitch 2.2
_symmetry_space_group_name_H-M    P1
_symmetry_Int_Tables_number       1
_space_group_crystal_system       triclinic
_cell_length_a                    8.225147
_cell_length_b                    18.68642
_cell_length_c                    19.08947
_cell_angle_alpha                 103.886566
_cell_angle_beta                  92.855634
_cell_angle_gamma                 91.331348
_cell_volume                      2842.85923657

loop_
_atom_site_label
_atom_site_type_symbol
_atom_site_description
_atom_site_fract_x
_atom_site_fract_y
_atom_site_fract_z
_atom_type_partial_charge
P1    P     P_3+3 0.941030 0.670050 0.569830 0.484615
O1    O     O_2   0.114280 0.679350 0.549180 -0.359836
O2    O     O_3   0.866400 0.589600 0.543550 -0.399204
O3    O     O_3   0.362150 0.623490 0.415650 -0.378059
O4    O     O_2   0.233112 0.752139 0.470355 -0.384728
O5    O     O_3   0.959319 0.694116 0.664525 -0.548344
O6    O     O_3   0.321718 0.736102 0.339761 -0.518853
H1    H     H_    0.327015 0.627707 0.280760 0.137966
C1    C     C_3   0.365782 0.703677 0.214080 -0.971654
H2    H     H_    0.234012 0.708305 0.200742 0.288957
H3    H     H_    0.429748 0.757531 0.217332 0.253299
P2    P     P_3+3 0.370400 0.428500 0.331430 0.458581
P3    P     P_3+3 0.915468 0.587045 0.287268 0.442671
O7    O     O_2   0.197490 0.449210 0.322030 -0.376136
O8    O     O_3   0.950520 0.583920 0.376610 -0.347884
O9    O     O_2   0.035092 0.531869 0.246283 -0.415117
O10   O     O_3   0.362119 0.331993 0.306507 -0.560210
O11   O     O_3   0.984211 0.673980 0.279783 -0.485533
C2    C     C_3   0.865592 0.725146 0.305757 0.415591
H4    H     H_    0.816617 0.717245 0.356833 0.061962
H5    H     H_    0.764993 0.720242 0.263673 0.043201
C3    C     C_3   0.940817 0.802883 0.321365 -0.886368
H6    H     H_    0.035452 0.810935 0.366397 0.282690
H7    H     H_    0.996891 0.812422 0.272499 0.258432
C4    C     C_3   0.811395 0.367774 0.310157 0.463640
H8    H     H_    0.695850 0.389475 0.331819 0.082161
H9    H     H_    0.908828 0.411418 0.326318 0.137988
C5    C     C_3   0.793200 0.345919 0.228061 -1.012584
H10   H     H_    0.687831 0.306402 0.210041 0.273657
H11   H     H_    0.773297 0.395465 0.206796 0.224106
H12   H     H_    0.905694 0.319846 0.205878 0.268913
Ba1   Ba    Ba6+2 0.155460 0.532000 0.467920 1.563791
C6    C     C_3   0.996842 0.631971 0.690143 0.222579
H13   H     H_    0.114388 0.611288 0.670224 0.082081
H14   H     H_    0.901409 0.587629 0.672304 0.076113
C7    C     C_3   0.007877 0.653396 0.772431 0.477299
H15   H     H_    0.031266 0.604212 0.793848 -0.033033
H16   H     H_    0.891179 0.676593 0.792636 0.065976
C8    C     C_3   0.304058 0.304612 0.362960 0.464209
H17   H     H_    0.182784 0.326310 0.376683 0.087683
H18   H     H_    0.389888 0.319633 0.411371 0.126026
C9    C     C_3   0.288639 0.220972 0.338180 -1.020650
H19   H     H_    0.194596 0.204527 0.292948 0.275139
H20   H     H_    0.253234 0.196947 0.383172 0.220290
H21   H     H_    0.407163 0.198708 0.319514 0.262589
P4    P     P_3+3 0.869270 0.329940 0.430110 0.451696
O12   O     O_2   0.696020 0.320600 0.450800 -0.368545
O13   O     O_3   0.943900 0.410390 0.456390 -0.414355
O14   O     O_3   0.448150 0.376500 0.584290 -0.376001
O15   O     O_3   0.850051 0.305555 0.335475 -0.569428
P5    P     P_3+3 0.878108 0.416838 0.713611 0.427884
O16   O     O_3   0.365880 0.544470 0.588730 -0.390379
O17   O     O_3   0.859790 0.416060 0.623340 -0.357315
O18   O     O_2   0.753506 0.472285 0.748901 -0.432116
O19   O     O_3   0.816249 0.329562 0.722977 -0.524939
Ba2   Ba    Ba6+2 0.654730 0.467990 0.532020 1.554091
P6    P     P_3+3 0.373029 0.718511 0.423937 0.449282
C10   C     C_3   0.389329 0.682344 0.285878 0.545574
H22   H     H_    0.521612 0.678772 0.298135 -0.039956
H23   H     H_    0.415747 0.661172 0.170215 0.222981
O20   O     O_3   0.444420 0.455520 0.411210 -0.404666
C11   C     C_3   0.488373 0.698902 0.658482 0.296152
H24   H     H_    0.592288 0.670012 0.630350 0.038048
H25   H     H_    0.385817 0.697707 0.618251 0.110085
C12   C     C_3   0.544867 0.779046 0.691073 -0.130730
H26   H     H_    0.667486 0.780025 0.718725 0.146548
H27   H     H_    0.555790 0.808399 0.647214 0.039567
P7    P     P_3+3 0.429700 0.570606 0.681457 0.471855
O21   O     O_2   0.612810 0.550740 0.677950 -0.370875
O22   O     O_3   0.436741 0.666585 0.713413 -0.497550
H28   H     H_    0.845170 0.843703 0.337218 0.203959
C13   C     C_3   0.897907 0.276045 0.673071 0.344931
H29   H     H_    0.824280 0.260055 0.621029 0.154953
H30   H     H_    0.019383 0.296041 0.661283 -0.050514
C14   C     C_3   0.926570 0.208319 0.703155 -0.120329
H31   H     H_    0.017274 0.173356 0.671104 0.080451
H32   H     H_    0.978036 0.226353 0.759874 0.123215
P8    P     P_3+3 0.433289 0.281590 0.576336 0.459184
C15   C     C_3   0.414904 0.309131 0.714136 0.464002
H33   H     H_    0.281320 0.305032 0.702056 -0.005932
O23   O     O_2   0.564267 0.246370 0.525330 -0.379211
O24   O     O_3   0.496227 0.263174 0.658812 -0.480026
H34   H     H_    0.459925 0.367213 0.722203 0.117982
H35   H     H_    0.382723 0.318748 0.827701 0.191736
C16   C     C_3   0.449458 0.284695 0.783646 -0.872285
H36   H     H_    0.581592 0.291118 0.799519 0.293936
H37   H     H_    0.409196 0.226063 0.776134 0.273769
C17   C     C_R   0.996620 0.954671 0.534672 0.013677
C18   C     C_R   0.090265 0.909664 0.569245 0.101463
C19   C     C_R   0.246732 0.934491 0.599278 -0.138914
C20   C     C_R   0.308694 0.003859 0.596262 -0.165552
C21   C     C_R   0.214725 0.050075 0.563788 0.103029
C22   C     C_R   0.058450 0.025407 0.532479 0.026880
C23   C     C_R   0.274202 0.120780 0.563190 -0.219797
C24   C     C_R   0.178382 0.168903 0.533385 -0.051663
C25   C     C_R   0.023582 0.143243 0.499224 -0.004214
C26   C     C_R   0.964403 0.071266 0.498961 0.012982
C27   C     C_R   0.230942 0.242445 0.537790 0.167000
C28   C     C_R   0.129405 0.289168 0.510031 -0.518859
C29   C     C_R   0.982308 0.263591 0.471608 0.260456
C30   C     C_R   0.928063 0.189235 0.465203 -0.049589
C31   C     C_R   0.841190 0.929246 0.502835 -0.007519
C32   C     C_R   0.781407 0.857467 0.503133 0.010984
C33   C     C_R   0.878209 0.811133 0.536214 -0.058539
C34   C     C_R   0.027927 0.840084 0.572356 -0.098442
H38   H     H_    0.322202 0.899980 0.624508 0.161855
H39   H     H_    0.429821 0.021598 0.619914 0.187015
H40   H     H_    0.169828 0.345771 0.515044 0.178996
H41   H     H_    0.394418 0.138008 0.587461 0.222016
H42   H     H_    0.100112 0.808467 0.601814 0.197559
C35   C     C_R   0.780226 0.159667 0.427448 -0.133993
C36   C     C_R   0.717533 0.090102 0.430715 0.121845
C37   C     C_R   0.809719 0.045584 0.466473 0.042654
C38   C     C_R   0.747423 0.975003 0.469053 0.027893
C39   C     C_R   0.562200 0.064759 0.399610 -0.170840
C40   C     C_R   0.498974 0.995894 0.403678 -0.183940
C41   C     C_R   0.591352 0.950256 0.437547 0.121687
C42   C     C_R   0.625610 0.832123 0.469837 -0.023850
C43   C     C_R   0.530650 0.879982 0.439196 -0.247814
C44   C     C_R   0.571387 0.759063 0.466918 0.169363
C45   C     C_R   0.672049 0.712582 0.495724 -0.525818
C46   C     C_R   0.823404 0.737054 0.530721 0.256439
H43   H     H_    0.709378 0.190850 0.396865 0.168564
H44   H     H_    0.488689 0.098480 0.372656 0.135135
H45   H     H_    0.378339 0.977950 0.379508 0.138618
H46   H     H_    0.409789 0.862978 0.415353 0.184675
H47   H     H_    0.630286 0.656422 0.492137 0.185202
C47   C     C_R   0.379460 0.515873 0.808787 -0.236167
H48   H     H_    0.483681 0.550994 0.832663 0.158398
C48   C     C_R   0.326205 0.516901 0.737383 0.291460
C49   C     C_R   0.142068 0.441294 0.817374 -0.345045
H49   H     H_    0.056655 0.416718 0.845493 0.151877
C50   C     C_R   0.085491 0.446978 0.748937 0.243764
C51   C     C_R   0.638059 0.554364 0.188046 -0.346953
H50   H     H_    0.690955 0.591661 0.159324 0.148104
C52   C     C_R   0.703179 0.556101 0.257682 0.193657
C53   C     C_R   0.450906 0.456270 0.198001 -0.304143
H51   H     H_    0.372009 0.408503 0.175179 0.158029
C54   C     C_R   0.484966 0.473998 0.272819 0.316597
C55   C     C_R   0.297937 0.469959 0.847789 0.079857
C56   C     C_R   0.183559 0.478812 0.707151 -0.491521
H52   H     H_    0.141361 0.479864 0.652818 0.160126
C57   C     C_R   0.516763 0.500062 0.154201 0.104168
C58   C     C_R   0.615416 0.522400 0.302190 -0.445960
H53   H     H_    0.656349 0.529111 0.358210 0.162833
C59   C     C_R   0.154815 0.372817 0.947767 -0.183199
C60   C     C_R   0.045605 0.356946 0.995999 -0.065915
C61   C     C_R   0.052816 0.399229 0.066794 -0.118321
C62   C     C_R   0.179744 0.451494 0.090746 -0.204538
C63   C     C_R   0.306696 0.458119 0.045739 0.078147
C64   C     C_R   0.272226 0.431321 0.970134 0.098345
C65   C     C_R   0.467069 0.485587 0.073506 -0.063630
C66   C     C_R   0.583762 0.489137 0.021147 0.105941
C67   C     C_R   0.532351 0.476398 0.946249 0.063804
C68   C     C_R   0.367751 0.457886 0.921153 -0.079762
C69   C     C_R   0.753020 0.501981 0.039736 -0.177063
C70   C     C_R   0.860309 0.515323 0.989926 -0.101597
C71   C     C_R   0.808612 0.501881 0.917930 -0.083142
C72   C     C_R   0.651669 0.473910 0.896387 -0.158190
H54   H     H_    0.151120 0.336824 0.894125 0.121882
H55   H     H_    0.953182 0.313314 0.977977 0.136564
H56   H     H_    0.962707 0.390432 0.103532 0.137574
H57   H     H_    0.182904 0.483928 0.145266 0.192015
H58   H     H_    0.807740 0.500018 0.091429 0.144856
H59   H     H_    0.986261 0.531461 0.006376 0.141905
H60   H     H_    0.891752 0.510215 0.878693 0.141823
H61   H     H_    0.621556 0.448007 0.840856 0.183123
F1    F     F_    0.132902 0.705430 0.797358 -0.584385
N1    N     N_R   0.430956 0.816787 0.742610 0.311980
O25   O     O_R   0.279696 0.822576 0.722059 -0.343692
O26   O     O_R   0.479886 0.844154 0.809798 -0.294813
N2    N     N_R   0.776017 0.164584 0.699877 0.293475
O27   O     O_R   0.708818 0.129524 0.637587 -0.405940
O28   O     O_R   0.719572 0.153115 0.758836 -0.363709

loop_
_geom_bond_atom_site_label_1
_geom_bond_atom_site_label_2
_geom_bond_distance
_ccdc_geom_bond_type
C34   H42   1.077181 S    
C70   C71   1.379813 A    
N1    O26   1.301027 A    
N1    O25   1.300571 A    
C2    H4    1.113635 S    
C47   H48   1.079185 S    
C24   C27   1.412740 A    
O8    Ba1   2.723228 S    
C8    H18   1.110177 S    
C16   H36   1.109534 S    
C40   C41   1.403029 A    
C4    C5    1.520458 S    
C28   H40   1.081831 S    
C53   C54   1.398848 A    
P3    O11   1.748126 S    
C7    H15   1.108875 S    
C2    H5    1.110563 S    
Ba1   O20   2.921446 S    
P1    O1    1.514458 D    
C41   C43   1.401997 A    
N2    O27   1.300914 A    
C6    H14   1.107424 S    
C33   C46   1.423734 A    
O6    P6    1.749475 S    
C39   C40   1.397616 A    
C7    F1    1.382765 S    
C6    C7    1.522597 S    
O14   P8    1.744190 S    
C11   O22   1.407479 S    
O1    Ba1   2.854465 S    
O11   C2    1.405666 S    
O10   C8    1.398492 S    
C48   C56   1.383043 A    
C42   C43   1.410683 A    
C33   C34   1.410812 A    
C11   H25   1.108249 S    
C49   C55   1.418557 A    
C32   C33   1.423635 A    
C60   C61   1.389769 A    
H1    C10   1.112406 S    
C51   C57   1.420022 A    
C4    O15   1.399288 S    
Ba1   O16   2.773790 S    
C24   C25   1.419552 A    
P7    O21   1.560368 D    
C12   H27   1.111565 S    
P2    O10   1.749961 S    
P8    C27   1.846499 S    
C62   H57   1.070039 S    
C64   C68   1.419809 A    
C1    H2    1.111044 S    
O6    C10   1.401214 S    
P5    O19   1.749593 S    
O19   C13   1.412962 S    
O16   P7    1.768588 S    
C54   C58   1.391120 A    
C53   C57   1.419531 A    
C25   C30   1.423420 A    
P2    Ba1   3.442938 S    
Ba1   O13   2.788994 S    
O2    Ba1   2.934403 S    
C9    H20   1.108130 S    
C13   C14   1.528486 S    
C36   C37   1.408269 A    
N2    O28   1.300554 A    
C8    C9    1.520696 S    
C16   H37   1.110692 S    
P4    O13   1.566171 S    
C59   C60   1.394149 A    
C35   H43   1.079414 S    
P1    O5    1.752741 S    
C20   H39   1.083653 S    
C2    C3    1.521135 S    
C61   C62   1.394103 A    
C19   H38   1.082151 S    
C13   H30   1.110844 S    
C60   H55   1.082360 S    
C70   H59   1.081844 S    
C20   C21   1.402770 A    
Ba2   O21   2.884968 S    
C58   H53   1.081877 S    
C51   C52   1.400909 A    
C4    H8    1.102375 S    
P1    Ba1   3.419706 S    
C59   C64   1.412761 A    
C12   N1    1.460346 S    
P1    O2    1.566168 S    
C9    H21   1.110295 S    
C69   C70   1.390036 A    
O3    P6    1.744179 S    
C14   H31   1.110873 S    
C11   H24   1.112832 S    
C31   C38   1.409798 A    
C1    H3    1.111538 S    
O2    Ba2   2.789541 S    
P8    O24   1.747098 S    
C28   C29   1.395242 A    
C25   C26   1.418461 A    
C21   C23   1.401016 A    
C6    H13   1.101001 S    
C45   C46   1.396175 A    
P2    C54   1.840401 S    
C23   C24   1.409727 A    
Ba2   O20   2.773265 S    
P4    O12   1.514830 D    
H35   C16   1.103987 S    
C66   C69   1.419870 A    
P7    C48   1.853818 S    
C14   H32   1.112495 S    
C69   H58   1.073106 S    
C67   C68   1.419914 A    
O3    Ba1   2.767922 S    
P6    C44   1.849326 S    
C57   C65   1.531435 S    
P2    O7    1.496038 D    
C12   H26   1.112482 S    
C40   H45   1.083748 S    
P3    O8    1.730548 S    
C71   C72   1.386098 A    
P3    C52   1.843983 S    
C3    H7    1.110634 S    
C32   C42   1.420053 A    
C4    H9    1.107589 S    
C9    H19   1.110568 S    
P4    Ba2   3.420214 S    
C49   H49   1.064642 S    
C18   C19   1.404019 A    
C22   C26   1.409540 A    
C3    H28   1.110471 S    
C15   C16   1.519623 S    
C44   C45   1.399869 A    
C71   H60   1.074697 S    
C37   C38   1.416610 A    
O17   Ba2   2.724045 S    
O13   Ba2   2.935164 S    
P4    C29   1.865688 S    
C17   C22   1.415974 A    
C5    H10   1.110569 S    
C39   H44   1.081537 S    
C35   C36   1.403770 A    
C63   C64   1.421213 A    
C5    H12   1.110760 S    
O7    Ba1   2.884716 S    
C13   H29   1.110014 S    
C49   C50   1.393896 A    
C47   C48   1.415515 A    
C15   O24   1.400713 S    
C17   C31   1.408982 A    
C45   H47   1.081855 S    
C51   H50   1.081080 S    
C30   C35   1.411963 A    
O14   Ba2   2.767361 S    
C53   H51   1.079782 S    
P4    O15   1.751921 S    
C23   H41   1.078877 S    
C50   C56   1.382169 A    
O5    C6    1.398987 S    
O4    P6    1.540265 D    
C1    H23   1.109573 S    
C61   H56   1.081503 S    
P5    O18   1.536487 D    
C7    H16   1.110830 S    
C10   H22   1.108403 S    
C67   C72   1.394726 A    
C52   C58   1.391549 A    
C62   C63   1.406517 A    
C15   H34   1.110960 S    
P2    O20   1.571377 S    
P5    C50   1.827563 S    
P8    O23   1.540024 D    
C19   C20   1.396913 A    
C5    H11   1.108867 S    
C21   C22   1.409108 A    
C11   C12   1.528864 S    
C72   H61   1.068327 S    
C63   C65   1.432725 A    
C47   C55   1.438623 A    
C31   C32   1.419227 A    
C42   C44   1.413696 A    
C38   C41   1.409063 A    
C55   C68   1.555500 S    
C15   H33   1.108447 S    
C8    H17   1.105384 S    
C43   H46   1.080366 S    
O16   Ba2   2.920683 S    
C59   H54   1.080378 S    
C17   C18   1.407860 A    
C1    C10   1.521284 S    
P7    O22   1.748886 S    
C27   C28   1.397276 A    
P3    O9    1.542700 D    
C18   C34   1.402158 A    
C14   N2    1.458071 S    
C3    H6    1.110546 S    
C29   C30   1.424352 A    
C65   C66   1.431472 A    
P5    O17   1.718837 S    
C66   C67   1.432293 A    
C56   H52   1.082054 S    
C26   C37   1.408486 A    
Ba1   Ba2   4.496887 S    
C36   C39   1.403744 A    
P1    C46   1.869245 S    
O12   Ba2   2.854997 S    
