data_mof_unit_24205.cif
_audit_creation_date              2013-03-05T15:42:24-0500
_audit_creation_method            fapswitch 2.2
_symmetry_space_group_name_H-M    P1
_symmetry_Int_Tables_number       1
_space_group_crystal_system       triclinic
_cell_length_a                    11.024047
_cell_length_b                    11.066741
_cell_length_c                    18.786777
_cell_angle_alpha                 90.409432
_cell_angle_beta                  90.327716
_cell_angle_gamma                 60.547564
_cell_volume                      1995.72710566

loop_
_atom_site_label
_atom_site_type_symbol
_atom_site_description
_atom_site_fract_x
_atom_site_fract_y
_atom_site_fract_z
_atom_type_partial_charge
O1    O     O_R   0.507340 0.255690 0.581430 -0.515692
O2    O     O_R   0.280360 0.527380 0.578910 -0.492221
C1    C     C_R   0.231965 0.648311 0.607854 0.545942
O3    O     O_R   0.260600 0.739610 0.584580 -0.531903
O4    O     O_R   0.532370 0.695050 0.573830 -0.500836
C2    C     C_R   0.626788 0.584881 0.608460 0.554490
O5    O     O_R   0.744850 0.503430 0.576380 -0.505972
O6    O     O_R   0.699080 0.276500 0.571950 -0.526256
C3    C     C_R   0.632294 0.220634 0.599293 0.532972
O7    O     O_R   0.498860 0.256520 0.419860 -0.540513
O8    O     O_R   0.272490 0.528150 0.429140 -0.442768
C4    C     C_R   0.284209 0.624093 0.392402 0.564234
O9    O     O_R   0.252110 0.740440 0.423010 -0.512991
O10   O     O_R   0.524510 0.695820 0.424050 -0.546243
C5    C     C_R   0.645216 0.617592 0.391716 0.558728
O11   O     O_R   0.736370 0.504260 0.414810 -0.436640
O12   O     O_R   0.691220 0.277270 0.422180 -0.483551
C6    C     C_R   0.610601 0.234568 0.394305 0.542475
Cr1   Cr    Cr6+3 0.392940 0.397950 0.502230 1.051373
Cr2   Cr    Cr6+3 0.398400 0.708500 0.501260 1.008622
Cr3   Cr    Cr6+3 0.708640 0.393530 0.496460 1.062318
O13   O     O_3   0.499990 0.499990 0.499980 -0.312567
C7    C     C_3   0.533596 0.715066 0.804076 0.039654
H1    H     H_    0.481594 0.828324 0.809904 0.182620
C8    C     C_3   0.507507 0.682882 0.726677 -0.234672
H2    H     H_    0.458861 0.615703 0.727169 0.158716
H3    H     H_    0.435750 0.781929 0.699789 0.128538
H4    H     H_    0.702842 0.831507 0.776668 0.140538
H5    H     H_    0.652193 0.800598 0.663235 0.152886
C9    C     C_3   0.749374 0.719880 0.765597 -0.313111
C10   C     C_3   0.769531 0.493867 0.800259 0.062397
C11   C     C_3   0.691280 0.653115 0.817537 0.068283
H6    H     H_    0.882392 0.456234 0.803181 0.141841
C12   C     C_3   0.646819 0.608482 0.684931 -0.009375
C13   C     C_3   0.719588 0.697891 0.688345 -0.237447
C14   C     C_3   0.737137 0.467843 0.723475 -0.214111
H7    H     H_    0.680955 0.407521 0.723938 0.162817
H8    H     H_    0.836504 0.403802 0.694819 0.137400
H9    H     H_    0.863644 0.674946 0.773309 0.112549
H10   H     H_    0.819219 0.646870 0.658300 0.154381
H11   H     H_    0.501750 0.119108 0.673000 0.180077
C15   C     C_R   0.718416 0.080915 0.810922 0.021662
C16   C     C_R   0.826045 0.089976 0.772071 0.010894
C17   C     C_R   0.811059 0.111453 0.697034 0.008059
C18   C     C_R   0.592780 0.111010 0.699852 -0.125137
C19   C     C_R   0.602455 0.091057 0.771684 0.121926
C20   C     C_R   0.946294 0.082768 0.803915 -0.071707
C21   C     C_R   0.046609 0.092568 0.763461 -0.154764
C22   C     C_R   0.035614 0.101421 0.690121 -0.154024
C23   C     C_R   0.920865 0.107246 0.656901 -0.084074
C24   C     C_R   0.686338 0.136846 0.663714 -0.036213
H12   H     H_    0.969214 0.069130 0.859572 0.191128
H13   H     H_    0.141055 0.077761 0.788736 0.142949
H14   H     H_    0.120472 0.094952 0.658576 0.121736
H15   H     H_    0.921857 0.103330 0.599414 0.152579
H16   H     H_    0.207020 0.845692 0.696116 0.155318
C25   C     C_R   0.164836 0.671902 0.830139 0.048973
C26   C     C_R   0.166038 0.560589 0.790758 -0.000636
C27   C     C_R   0.152193 0.571925 0.715385 -0.013230
C28   C     C_R   0.183117 0.772482 0.720521 -0.163856
C29   C     C_R   0.176252 0.773952 0.793316 -0.141388
C30   C     C_R   0.179126 0.439048 0.822634 0.237449
C31   C     C_R   0.142208 0.354460 0.783413 -0.091232
C32   C     C_R   0.108800 0.378416 0.711648 -0.178126
C33   C     C_R   0.117161 0.483893 0.677221 -0.108207
C34   C     C_R   0.175077 0.670618 0.680326 -0.000646
H17   H     H_    0.187113 0.852790 0.821970 0.173122
H18   H     H_    0.142646 0.267835 0.808887 0.175808
H19   H     H_    0.080578 0.313060 0.681584 0.130155
H20   H     H_    0.091374 0.498853 0.621146 0.156282
H21   H     H_    0.581932 0.857054 0.326510 0.124104
C35   C     C_R   0.661682 0.676345 0.170972 0.008356
C36   C     C_R   0.713305 0.541527 0.197607 -0.019753
C37   C     C_R   0.750772 0.515724 0.270433 0.053836
C38   C     C_R   0.625057 0.767837 0.291164 -0.131182
C39   C     C_R   0.626085 0.787309 0.218296 -0.111488
C40   C     C_R   0.747872 0.430414 0.149969 -0.077619
C41   C     C_R   0.852556 0.299188 0.166708 -0.142997
C42   C     C_R   0.912340 0.273925 0.233503 -0.126138
C43   C     C_R   0.860394 0.375213 0.287161 0.198456
C44   C     C_R   0.678753 0.634288 0.318107 0.043283
H22   H     H_    0.706411 0.448256 0.096275 0.203415
H23   H     H_    0.595062 0.890425 0.198749 0.145281
H24   H     H_    0.891445 0.217801 0.126897 0.170140
H25   H     H_    0.000044 0.172248 0.243798 0.186697
H26   H     H_    0.846223 0.085301 0.329720 0.186732
C45   C     C_R   0.657629 0.152189 0.177281 -0.013049
C46   C     C_R   0.521956 0.229216 0.204475 -0.032606
C47   C     C_R   0.506915 0.218423 0.277734 -0.025480
C48   C     C_R   0.756231 0.123950 0.294731 -0.111919
C49   C     C_R   0.772009 0.087118 0.224583 0.171801
C50   C     C_R   0.401607 0.291394 0.160313 0.212401
C51   C     C_R   0.280078 0.295051 0.184070 -0.130101
C52   C     C_R   0.270894 0.261254 0.253823 -0.179043
C53   C     C_R   0.380160 0.228340 0.301272 -0.086245
C54   C     C_R   0.624983 0.186941 0.322338 -0.028195
H27   H     H_    0.190203 0.329062 0.149594 0.158614
H28   H     H_    0.177332 0.263188 0.271328 0.184196
H29   H     H_    0.366247 0.198642 0.353810 0.182877
C55   C     C_R   0.187895 0.651527 0.171404 0.040566
C56   C     C_R   0.271644 0.708729 0.195161 0.034430
C57   C     C_R   0.285964 0.718201 0.269935 -0.016157
C58   C     C_R   0.158356 0.593930 0.291324 0.168771
C59   C     C_R   0.134271 0.594505 0.219638 -0.083208
C60   C     C_R   0.312352 0.785287 0.148581 0.228663
C61   C     C_R   0.323164 0.896857 0.176441 -0.084414
C62   C     C_R   0.319875 0.917318 0.248995 -0.159938
C63   C     C_R   0.315173 0.822477 0.294902 -0.080547
C64   C     C_R   0.245800 0.642369 0.316849 0.019110
H30   H     H_    0.056955 0.566527 0.202876 0.171560
H31   H     H_    0.341105 0.964825 0.142239 0.155354
H32   H     H_    0.333793 0.000307 0.270344 0.118132
H33   H     H_    0.323810 0.844187 0.349547 0.183478
O14   O     O_R   0.089570 0.825450 0.930590 -0.507536
O15   O     O_R   0.818700 0.054260 0.929860 -0.506357
C65   C     C_R   0.725508 0.047739 0.888223 0.560470
O16   O     O_R   0.606310 0.077010 0.915520 -0.379807
O17   O     O_R   0.646730 0.806540 0.917560 -0.484169
C66   C     C_R   0.721337 0.683826 0.890300 0.595259
O18   O     O_R   0.837290 0.593240 0.915240 -0.503613
O19   O     O_R   0.065320 0.635310 0.931580 -0.482325
C67   C     C_R   0.113918 0.707490 0.904176 0.609619
O20   O     O_R   0.068470 0.828620 0.091850 -0.444772
O21   O     O_R   0.799150 0.057200 0.079350 -0.484900
C68   C     C_R   0.678611 0.100646 0.105191 0.627938
O22   O     O_R   0.585220 0.080180 0.076770 -0.482119
O23   O     O_R   0.627170 0.809480 0.067050 -0.481304
C69   C     C_R   0.697631 0.692058 0.098171 0.580832
O24   O     O_R   0.816200 0.596410 0.076500 -0.506829
O25   O     O_R   0.045770 0.638240 0.081070 -0.479774
C70   C     C_R   0.106362 0.702914 0.106727 0.679153
Cr4   Cr    Cr6+3 0.937880 0.938320 0.007620 1.111861
Cr5   Cr    Cr6+3 0.625560 0.937220 0.994510 1.171226
Cr6   Cr    Cr6+3 0.938080 0.625010 0.001190 1.130302
O26   O     O_3   0.833840 0.833520 0.001110 -0.337605
Br1   Br    Br    0.443500 0.081421 0.806922 -0.536351
Br2   Br    Br    0.448909 0.659981 0.878547 -0.329545
N1    N     N_R   0.248782 0.388841 0.889627 0.130652
O27   O     O_R   0.354270 0.405694 0.906358 -0.186656
O28   O     O_R   0.223006 0.306521 0.927937 -0.282458
Br3   Br    Br    0.979213 0.299866 0.370617 -0.484928
N2    N     N_R   0.401918 0.350684 0.092450 0.098362
O29   O     O_R   0.501875 0.375451 0.075661 -0.292945
O30   O     O_R   0.295661 0.392568 0.049921 -0.249539
N3    N     N_R   0.892076 0.960285 0.207356 0.083441
O31   O     O_R   0.011999 0.940691 0.229595 -0.382249
O32   O     O_R   0.874707 0.853668 0.196217 -0.376356
Br4   Br    Br    0.029523 0.574598 0.351878 -0.425184
N4    N     N_R   0.333914 0.758435 0.073150 0.070876
O33   O     O_R   0.325260 0.854172 0.030180 -0.303373
O34   O     O_R   0.370357 0.636418 0.047219 -0.236681
Br5   Br    Br    0.743441 0.378884 0.870140 -0.404570

loop_
_geom_bond_atom_site_label_1
_geom_bond_atom_site_label_2
_geom_bond_distance
_ccdc_geom_bond_type
C26   C30   1.417143 A    
C59   H30   1.084700 S    
C45   C46   1.404777 A    
C51   C52   1.383173 A    
C45   C49   1.414788 A    
O20   Cr4   2.081604 S    
C6    C54   1.428633 S    
C62   H32   1.077267 S    
C3    C24   1.464238 S    
C49   N3    1.413598 S    
C35   C39   1.402480 A    
O16   Cr5   2.084904 S    
C69   O24   1.278293 A    
N3    O31   1.297077 A    
C48   C49   1.363220 A    
C55   C70   1.449973 S    
C5    C44   1.469642 S    
O4    Cr2   1.955963 S    
C40   C41   1.376213 A    
C4    O9    1.287406 A    
O8    Cr1   1.962322 S    
C56   C57   1.421586 A    
C9    C13   1.530182 S    
C35   C69   1.461252 S    
C14   H7    1.111784 S    
N4    O34   1.296717 A    
C27   C34   1.404821 A    
C15   C19   1.428109 A    
O4    C2    1.322404 A    
C53   H29   1.077825 S    
C61   C62   1.377888 A    
C18   C24   1.381027 A    
C22   H14   1.082276 S    
C55   C59   1.396419 A    
C65   O16   1.296680 A    
O21   Cr4   1.976193 S    
C12   C13   1.551058 S    
C36   C37   1.416741 A    
O17   C66   1.295954 A    
C55   C56   1.420675 A    
C25   C67   1.479366 S    
C46   C50   1.421205 A    
O22   Cr5   2.090476 S    
O6    C3    1.282451 A    
C7    H1    1.097166 S    
C10   H6    1.102016 S    
C57   C63   1.418223 A    
O19   Cr6   1.967513 S    
C9    C11   1.546289 S    
C50   N2    1.438823 S    
C10   C14   1.542935 S    
C12   C14   1.556301 S    
C8    C12   1.553288 S    
C61   H31   1.082798 S    
C28   C34   1.390771 A    
C37   C43   1.460085 A    
Cr3   O13   2.004706 S    
O25   Cr6   1.957118 S    
C39   H23   1.083893 S    
C4    C64   1.465563 S    
N3    O32   1.300313 A    
C58   Br4   1.917773 S    
O6    Cr3   1.965203 S    
O15   Cr4   1.963068 S    
C56   C60   1.440142 A    
C21   H13   1.078915 S    
O1    Cr1   2.083854 S    
C5    O11   1.238730 A    
C13   H10   1.111941 S    
O10   Cr2   1.970989 S    
Cr1   O13   1.995363 S    
O1    C3    1.277368 A    
C42   C43   1.399935 A    
H26   C48   1.085581 S    
C41   C42   1.378964 A    
C38   C44   1.392075 A    
C26   C27   1.423155 A    
C18   C19   1.364071 A    
O12   Cr3   1.963133 S    
C2    C12   1.492869 S    
C28   C29   1.369647 A    
O3    Cr2   2.093232 S    
C63   H33   1.067039 S    
C47   C53   1.419766 A    
C38   C39   1.388310 A    
C30   C31   1.395080 A    
C29   H17   1.077322 S    
H11   C18   1.084428 S    
C20   C21   1.393219 A    
O7    Cr1   2.096820 S    
C62   C63   1.383857 A    
O12   C6    1.300619 A    
C32   H19   1.073483 S    
C30   N1    1.435884 S    
C25   C29   1.386280 A    
O19   C67   1.272815 A    
C2    O5    1.310412 A    
O17   Cr5   1.969243 S    
N1    O28   1.301920 A    
C17   C24   1.404968 A    
C15   C65   1.492643 S    
C21   C22   1.382397 A    
Cr2   O13   2.009387 S    
C43   Br3   1.946875 S    
C16   C17   1.426394 A    
C68   O22   1.271865 A    
N2    O30   1.298455 A    
C1    C34   1.469919 S    
C15   C16   1.441710 A    
C37   C44   1.456384 A    
O23   C69   1.283303 A    
C51   H27   1.082697 S    
C45   C68   1.440793 S    
C17   C23   1.410846 A    
C31   H18   1.072402 S    
C36   C40   1.409120 A    
O9    Cr2   2.075229 S    
O20   C70   1.273047 A    
O2    Cr1   1.977369 S    
N2    O29   1.300418 A    
O14   Cr4   2.097282 S    
C7    Br2   1.946145 S    
C10   C11   1.566973 S    
O23   Cr5   1.964318 S    
C35   C36   1.404544 A    
C66   O18   1.264194 A    
O11   Cr3   2.085352 S    
C48   C54   1.363807 A    
C20   H12   1.068491 S    
C8    H3    1.110442 S    
C60   N4    1.442700 S    
C60   C61   1.395511 A    
H5    C13   1.113395 S    
Cr6   O26   2.009372 S    
C23   H15   1.080444 S    
C58   C64   1.394923 A    
C7    C11   1.543103 S    
C47   C54   1.436476 A    
C14   H8    1.109016 S    
O25   C70   1.285433 A    
C8    H2    1.110239 S    
O5    Cr3   2.082636 S    
N4    O33   1.302014 A    
C32   C33   1.380812 A    
H21   C38   1.083720 S    
C10   Br5   1.952842 S    
C25   C26   1.426916 A    
C40   H22   1.083631 S    
O7    C6    1.231962 A    
Cr4   O26   1.995007 S    
H4    C9    1.098569 S    
C50   C51   1.396070 A    
C42   H25   1.081413 S    
C9    H9    1.112693 S    
O2    C1    1.289248 A    
O18   Cr6   2.078714 S    
C7    C8    1.553205 S    
C52   C53   1.392515 A    
O24   Cr6   2.086521 S    
N1    O27   1.301615 A    
C19   Br1   1.928306 S    
C31   C32   1.388192 A    
O14   C67   1.292332 A    
C41   H24   1.081082 S    
H16   C28   1.073644 S    
C46   C47   1.400145 A    
C22   C23   1.380306 A    
C58   C59   1.370625 A    
Cr5   O26   2.002975 S    
C52   H28   1.074491 S    
O10   C5    1.325899 A    
C57   C64   1.434424 A    
C11   C66   1.480820 S    
O15   C65   1.317365 A    
C33   H20   1.082037 S    
C16   C20   1.417446 A    
C27   C33   1.403273 A    
C1    O3    1.277992 A    
O8    C4    1.329220 A    
O21   C68   1.268227 A    
