data_mof_unit_23946.cif
_audit_creation_date              2012-12-10T19:12:18-0500
_audit_creation_method            fapswitch 2.2
_symmetry_space_group_name_H-M    P1
_symmetry_Int_Tables_number       1
_space_group_crystal_system       triclinic
_cell_length_a                    7.784704
_cell_length_b                    9.086149
_cell_length_c                    17.071378
_cell_angle_alpha                 89.568071
_cell_angle_beta                  94.016762
_cell_angle_gamma                 90.011662
_cell_volume                      1204.50902976

loop_
_atom_site_label
_atom_site_type_symbol
_atom_type_description
_atom_site_fract_x
_atom_site_fract_y
_atom_site_fract_z
_atom_type_partial_charge
C1    C     C_R   0.499972 0.220033 0.500003 0.849139
C2    C     C_R   0.500028 0.779967 0.499997 0.849139
C3    C     C_R   0.521349 0.500297 0.651165 0.872014
C4    C     C_R   0.478651 0.499703 0.348835 0.872014
C5    C     C_R   0.534452 0.507548 0.736753 -0.205167
C6    C     C_R   0.465548 0.492452 0.263247 -0.205167
C7    C     C_R   0.426079 0.600777 0.775220 0.551830
C8    C     C_R   0.573920 0.399223 0.224779 0.551831
C9    C     C_R   0.437455 0.608890 0.857554 0.009615
C10   C     C_R   0.562544 0.391110 0.142446 0.009615
C11   C     C_R   0.558362 0.517661 0.901993 0.210018
C12   C     C_R   0.441638 0.482341 0.098007 0.210017
C13   C     C_R   0.674886 0.430823 0.861556 0.128657
C14   C     C_R   0.325114 0.569179 0.138444 0.128657
C15   C     C_R   0.660690 0.426576 0.779587 -0.322803
C16   C     C_R   0.339310 0.573426 0.220413 -0.322803
C17   C     C_1   0.499982 0.065387 0.500000 -0.147769
C18   C     C_1   0.500018 0.934613 0.500000 -0.147769
Cu1   Cu    Cu3+1 0.669080 0.500010 0.500000 1.047234
Cu2   Cu    Cu3+1 0.330920 0.499990 0.500000 1.047234
H1    H     H_    0.748340 0.358615 0.748897 0.191558
H2    H     H_    0.251661 0.641387 0.251103 0.191558
N1    N     N_1   0.076820 0.499970 0.500010 -0.032956
N2    N     N_1   0.923180 0.500030 0.499990 -0.032956
N3    N     N_2   0.569646 0.515642 0.985802 -0.240272
N4    N     N_2   0.430353 0.484360 0.014198 -0.240272
O1    O     O_R   0.642760 0.288400 0.500000 -0.568934
O2    O     O_R   0.357240 0.711600 0.500000 -0.568934
O3    O     O_R   0.357190 0.288380 0.500000 -0.584045
O4    O     O_R   0.642810 0.711620 0.500000 -0.584045
O5    O     O_R   0.658410 0.498660 0.613920 -0.596284
O6    O     O_R   0.341590 0.501340 0.386080 -0.596284
O7    O     O_R   0.372840 0.498650 0.613930 -0.538922
O8    O     O_R   0.627160 0.501350 0.386070 -0.538922
F1    F     F_    0.683522 0.309040 0.268120 -0.669117
F2    F     F_    0.316476 0.690959 0.731880 -0.669116
C19   C     C_3   0.669943 0.275340 0.105374 -0.326820
C20   C     C_3   0.862542 0.310228 0.115950 -0.770518
H3    H     H_    0.887298 0.424290 0.096120 0.230460
H4    H     H_    0.911768 0.298690 0.178212 0.299947
H5    H     H_    0.935428 0.232272 0.081040 0.222903
H6    H     H_    0.646280 0.166576 0.132862 0.216342
H7    H     H_    0.630800 0.262468 0.042428 0.217176
C21   C     C_3   0.330053 0.724659 0.894625 -0.326819
C22   C     C_3   0.137455 0.689768 0.884050 -0.770522
H8    H     H_    0.088229 0.701300 0.821788 0.299947
H9    H     H_    0.112703 0.575707 0.903882 0.230460
H10   H     H_    0.064567 0.767725 0.918959 0.222904
H11   H     H_    0.369197 0.737534 0.957571 0.217176
H12   H     H_    0.353713 0.833423 0.867136 0.216344
C23   C     C_3   0.817651 0.341853 0.903126 -0.384078
C24   C     C_3   0.778343 0.177100 0.899791 -0.820783
H13   H     H_    0.876658 0.116009 0.937449 0.236453
H14   H     H_    0.649140 0.153770 0.920641 0.248341
H15   H     H_    0.781749 0.136764 0.838673 0.255624
H16   H     H_    0.939868 0.362435 0.874938 0.201014
H17   H     H_    0.840901 0.377054 0.964434 0.220141
C25   C     C_3   0.182349 0.658150 0.096874 -0.384077
C26   C     C_3   0.221658 0.822902 0.100209 -0.820784
H18   H     H_    0.350860 0.846232 0.079359 0.248342
H19   H     H_    0.123343 0.883994 0.062551 0.236453
H20   H     H_    0.218254 0.863238 0.161327 0.255625
H21   H     H_    0.159098 0.622949 0.035566 0.220140
H22   H     H_    0.060132 0.637568 0.125062 0.201014

loop_
_geom_bond_atom_site_label_1
_geom_bond_atom_site_label_2
_ccdc_geom_bond_type
C21   H11   S    
C19   H7    S    
C20   H4    S    
N1    N2    T    
C24   H15   S    
C19   C20   S    
C23   H17   S    
C2    C18   S    
Cu1   O1    S    
C7    F2    S    
C1    C17   S    
Cu1   Cu2   S    
Cu2   N1    S    
C2    O4    A    
Cu1   O5    S    
C1    O3    A    
C17   C18   T    
N3    N4    D    
C26   H18   S    
C1    O1    A    
C22   H8    S    
C21   C22   S    
C3    O5    A    
C11   C13   A    
C9    C11   A    
C16   H2    S    
C4    O6    A    
C10   C12   A    
C10   C19   S    
Cu2   O7    S    
C4    C6    S    
C12   N4    S    
C24   H14   S    
Cu1   N2    S    
C4    O8    A    
Cu2   O3    S    
C22   H9    S    
C13   C15   A    
C25   H22   S    
C20   H3    S    
C14   C25   S    
C14   C16   A    
C26   H19   S    
C5    C15   A    
C11   N3    S    
C6    C16   A    
C23   C24   S    
C26   H20   S    
C7    C9    A    
C15   H1    S    
C24   H13   S    
C20   H5    S    
C8    C10   A    
C23   H16   S    
Cu2   O6    S    
C22   H10   S    
C21   H12   S    
C19   H6    S    
C5    C7    A    
C3    O7    A    
C2    O2    A    
C9    C21   S    
C6    C8    A    
Cu2   O2    S    
C25   C26   S    
C13   C23   S    
Cu1   O4    S    
C8    F1    S    
C25   H21   S    
C12   C14   A    
C3    C5    S    
Cu1   O8    S    
