data_mof_unit_68576.cif
_audit_creation_date              2012-12-10T19:00:03-0500
_audit_creation_method            fapswitch 2.2
_symmetry_space_group_name_H-M    P1
_symmetry_Int_Tables_number       1
_space_group_crystal_system       triclinic
_cell_length_a                    10.871339
_cell_length_b                    10.864415
_cell_length_c                    9.884179
_cell_angle_alpha                 91.459117
_cell_angle_beta                  91.416427
_cell_angle_gamma                 89.875515
_cell_volume                      1166.69115135

loop_
_atom_site_label
_atom_site_type_symbol
_atom_type_description
_atom_site_fract_x
_atom_site_fract_y
_atom_site_fract_z
_atom_type_partial_charge
C1    C     C_R   0.500173 0.259821 0.497708 0.934240
C2    C     C_R   0.499827 0.740179 0.502292 0.934240
C3    C     C_R   0.872618 0.498368 0.504220 -0.067057
C4    C     C_R   0.127382 0.501632 0.495780 -0.067057
C5    C     C_R   0.942758 0.456095 0.615381 0.070878
C6    C     C_R   0.057241 0.543905 0.384619 0.070877
C7    C     C_R   0.485929 0.055952 0.373916 0.222699
C8    C     C_R   0.514071 0.944048 0.626084 0.222699
C9    C     C_R   0.483862 0.930093 0.381480 -0.179481
C10   C     C_R   0.516138 0.069907 0.618520 -0.179481
C11   C     C_R   0.498913 0.872765 0.505571 -0.140614
C12   C     C_R   0.501087 0.127235 0.494429 -0.140614
C13   C     C_R   0.570681 0.581854 0.074397 0.319102
C14   C     C_R   0.429319 0.418146 0.925603 0.319103
C15   C     C_R   0.570914 0.580163 0.931471 -0.128851
C16   C     C_R   0.429086 0.419837 0.068529 -0.128851
C17   C     C_R   0.259951 0.501650 0.498276 0.912021
C18   C     C_R   0.740049 0.498350 0.501724 0.912020
C19   C     C_R   0.156166 0.761666 0.114192 0.171522
C20   C     C_R   0.843834 0.238334 0.885808 0.171522
C21   C     C_R   0.124073 0.717946 0.241935 0.079383
C22   C     C_R   0.875927 0.282054 0.758065 0.079383
C23   C     C_R   0.109866 0.590290 0.259454 -0.032778
C24   C     C_R   0.890134 0.409710 0.740546 -0.032778
C25   C     C_R   0.129872 0.507439 0.150814 0.161684
C26   C     C_R   0.870127 0.492561 0.849185 0.161684
C27   C     C_R   0.160995 0.551657 0.025290 -0.288186
C28   C     C_R   0.839005 0.448343 0.974710 -0.288186
C29   C     C_R   0.175800 0.677329 0.006431 0.161321
C30   C     C_R   0.824200 0.322671 0.993569 0.161321
C31   C     C_R   0.930570 0.541600 0.390352 -0.153945
C32   C     C_R   0.069430 0.458400 0.609648 -0.153945
H1    H     H_    0.628630 0.642349 0.879563 0.209844
H2    H     H_    0.371369 0.357651 0.120437 0.209844
H3    H     H_    0.172217 0.487956 0.941040 0.204732
H4    H     H_    0.827783 0.512044 0.058959 0.204732
H5    H     H_    0.877259 0.574788 0.304754 0.196116
H6    H     H_    0.122740 0.425212 0.695246 0.196116
H7    H     H_    0.470219 0.876884 0.288160 0.217137
H8    H     H_    0.529781 0.123116 0.711840 0.217136
N1    N     N_R   0.499970 0.499970 0.857200 -0.128380
N2    N     N_R   0.500030 0.500030 0.142800 -0.128380
O1    O     O_R   0.499990 0.316750 0.614620 -0.599137
O2    O     O_R   0.500010 0.683250 0.385380 -0.599137
O3    O     O_R   0.499990 0.316780 0.385290 -0.594517
O4    O     O_R   0.500010 0.683220 0.614710 -0.594517
O5    O     O_R   0.316760 0.500000 0.614660 -0.588467
O6    O     O_R   0.683240 0.500000 0.385340 -0.588467
O7    O     O_R   0.316760 0.500020 0.385330 -0.624532
O8    O     O_R   0.683240 0.499980 0.614670 -0.624532
Zn1   Zn    Zn3+2 0.500000 0.499980 0.653120 1.027366
Zn2   Zn    Zn3+2 0.500000 0.500020 0.346880 1.027367
I1    I     I_    0.224236 0.731928 0.810377 -0.202224
I2    I     I_    0.775764 0.268072 0.189623 -0.202224
I3    I     I_    0.165419 0.953597 0.079721 -0.084884
I4    I     I_    0.834581 0.046402 0.920279 -0.084884
I5    I     I_    0.095449 0.842406 0.409335 -0.180806
I6    I     I_    0.904551 0.157594 0.590665 -0.180805
I7    I     I_    0.116163 0.314099 0.172482 -0.243479
I8    I     I_    0.883837 0.685901 0.827518 -0.243479
I9    I     I_    0.466220 0.117468 0.172976 -0.187200
I10   I     I_    0.533780 0.882532 0.827024 -0.187200
Br1   Br    Br    0.672386 0.702803 0.165683 -0.463508
Br2   Br    Br    0.327614 0.297197 0.834317 -0.463508

loop_
_geom_bond_atom_site_label_1
_geom_bond_atom_site_label_2
_ccdc_geom_bond_type
C22   I6    S    
C18   O6    A    
C28   H4    S    
C21   I5    S    
C16   H2    S    
C32   H6    S    
C27   C29   A    
C30   I2    S    
C26   C28   A    
C13   Br1   S    
C13   C15   A    
C9    H7    S    
C20   I4    S    
O7    Zn2   S    
C14   Br2   S    
O2    Zn2   S    
C28   C30   A    
C6    C31   A    
C3    C5    A    
C20   C30   A    
C2    O4    A    
C3    C31   A    
C9    C11   A    
C1    O3    A    
C4    C32   A    
C1    C12   S    
C10   C12   A    
O1    Zn1   S    
C8    C11   A    
C2    C11   S    
C4    C6    A    
C13   N2    A    
C19   C21   A    
C20   C22   A    
O8    Zn1   S    
C15   H1    S    
C22   C24   A    
C8    I10   S    
C14   N1    A    
C21   C23   A    
C7    C12   A    
C3    C18   S    
C14   C16   A    
C25   C27   A    
C4    C17   S    
C15   N1    A    
C17   O7    A    
C19   C29   A    
C31   H5    S    
O6    Zn2   S    
C23   C25   A    
C18   O8    A    
C1    O1    A    
C8    C10   A    
C19   I3    S    
C7    C9    A    
C5    C24   S    
C10   H8    S    
O5    Zn1   S    
C25   I7    S    
O3    Zn2   S    
C27   H3    S    
C6    C23   S    
C16   N2    A    
C26   I8    S    
O4    Zn1   S    
N1    Zn1   S    
C5    C32   A    
C7    I9    S    
C24   C26   A    
C17   O5    A    
C2    O2    A    
C29   I1    S    
N2    Zn2   S    
