data_mof_unit_30850.cif
_audit_creation_date              2012-12-11T14:54:41-0500
_audit_creation_method            fapswitch 2.2
_symmetry_space_group_name_H-M    P1
_symmetry_Int_Tables_number       1
_space_group_crystal_system       triclinic
_cell_length_a                    19.056568
_cell_length_b                    10.979643
_cell_length_c                    18.881983
_cell_angle_alpha                 89.745623
_cell_angle_beta                  90.228631
_cell_angle_gamma                 89.823952
_cell_volume                      3950.66949356

loop_
_atom_site_label
_atom_site_type_symbol
_atom_type_description
_atom_site_fract_x
_atom_site_fract_y
_atom_site_fract_z
_atom_type_partial_charge
C1    C     C_R   0.730547 0.376861 0.646003 0.542176
C2    C     C_R   0.284672 0.844281 0.458024 -0.145946
C3    C     C_R   0.946510 0.552828 0.482762 -0.073645
C4    C     C_2   0.424732 0.982088 0.608157 0.262139
C5    C     C_2   0.438724 0.927519 0.455845 0.246948
C6    C     C_2   0.924629 0.482254 0.608191 0.262118
C7    C     C_2   0.938549 0.427496 0.455873 0.246682
C8    C     C_2   0.879708 0.976832 0.926587 0.298686
C9    C     C_2   0.120599 0.981488 0.072635 0.298346
C10   C     C_2   0.379706 0.476799 0.926580 0.298830
C11   C     C_2   0.620600 0.481470 0.072639 0.298394
C12   C     C_2   0.854132 0.073599 0.074569 0.290209
C13   C     C_R   0.190018 0.398023 0.535214 -0.089826
C14   C     C_2   0.146644 0.075519 0.923905 0.292376
C15   C     C_2   0.354154 0.573569 0.074562 0.290121
C16   C     C_2   0.646635 0.575507 0.923907 0.292337
C17   C     C_2   0.625623 0.852726 0.075537 0.263022
C18   C     C_2   0.374069 0.848407 0.925137 0.262360
C19   C     C_2   0.125623 0.352739 0.075542 0.263000
C20   C     C_2   0.874066 0.348396 0.925135 0.262285
C21   C     C_2   0.632773 0.863836 0.419207 0.271034
C22   C     C_2   0.342711 0.746065 0.560193 0.260974
C23   C     C_2   0.132692 0.363683 0.419226 0.270471
C24   C     C_R   0.784598 0.344255 0.458007 -0.145849
C25   C     C_2   0.842554 0.245898 0.560156 0.262288
C26   C     C_2   0.890791 0.980514 0.447186 0.325855
C27   C     C_2   0.181854 0.110684 0.587454 0.252980
C28   C     C_2   0.390516 0.481346 0.446972 0.326534
C29   C     C_2   0.681861 0.610720 0.587459 0.252964
C30   C     C_R   0.696194 0.887123 0.462110 -0.037190
C31   C     C_R   0.290655 0.834548 0.531580 -0.022753
C32   C     C_R   0.196120 0.387162 0.462089 -0.037125
C33   C     C_R   0.790576 0.334505 0.531560 -0.022854
C34   C     C_R   0.762139 0.905055 0.430472 -0.060603
C35   C     C_R   0.251609 0.915728 0.575029 -0.019876
C36   C     C_R   0.262023 0.405327 0.430405 -0.060870
C37   C     C_R   0.272610 0.373395 0.355995 0.503581
C38   C     C_R   0.751585 0.415728 0.575023 -0.020015
C39   C     C_R   0.822155 0.932072 0.473940 0.000259
C40   C     C_R   0.217906 0.017410 0.544255 -0.021134
C41   C     C_R   0.322013 0.432616 0.473825 -0.000135
C42   C     C_R   0.717902 0.517439 0.544256 -0.021035
C43   C     C_R   0.815308 0.926150 0.546915 -0.084921
C44   C     C_R   0.217840 0.029934 0.471292 -0.104639
C45   C     C_R   0.315258 0.426641 0.546799 -0.085400
C46   C     C_R   0.717855 0.529988 0.471293 -0.104593
C47   C     C_R   0.749497 0.919130 0.577351 -0.037594
C48   C     C_R   0.230550 0.876857 0.646003 0.542168
C49   C     C_R   0.250537 0.943110 0.428087 -0.041529
C50   C     C_R   0.249486 0.419272 0.577304 -0.037771
C51   C     C_R   0.750523 0.443138 0.428083 -0.041642
C52   C     C_R   0.503027 0.052771 0.963903 -0.128757
C53   C     C_R   0.494628 0.052629 0.035783 -0.127743
C54   C     C_R   0.003021 0.552771 0.963901 -0.128746
C55   C     C_R   0.994623 0.552629 0.035781 -0.127740
C56   C     C_R   0.489972 0.162559 0.072868 0.018749
C57   C     C_R   0.509489 0.162736 0.926826 0.018983
C58   C     C_R   0.989970 0.662559 0.072867 0.018736
C59   C     C_R   0.772664 0.873278 0.356036 0.503698
C60   C     C_R   0.009485 0.662736 0.926824 0.018982
C61   C     C_R   0.494928 0.273452 0.036251 -0.140018
C62   C     C_R   0.506224 0.273504 0.963390 -0.139691
C63   C     C_R   0.994926 0.773452 0.036250 -0.139980
C64   C     C_R   0.006220 0.773504 0.963389 -0.139649
C65   C     C_R   0.531571 0.156154 0.647265 0.565395
C66   C     C_R   0.440326 0.149780 0.361374 0.534601
C67   C     C_R   0.031579 0.656147 0.647263 0.565414
C68   C     C_R   0.940333 0.649770 0.361374 0.534427
C69   C     C_R   0.812080 0.964519 0.965263 -0.004053
C70   C     C_3   0.563055 0.307155 0.441437 -0.239382
C71   C     C_R   0.188273 0.967049 0.034264 -0.005343
C72   C     C_R   0.312080 0.464504 0.965258 -0.004012
C73   C     C_R   0.688273 0.467042 0.034266 -0.005330
C74   C     C_R   0.806725 0.985947 0.038210 -0.012027
C75   C     C_R   0.193749 0.987341 0.961086 -0.013353
C76   C     C_R   0.306732 0.485935 0.038205 -0.012072
C77   C     C_R   0.693746 0.487336 0.961088 -0.013368
C78   C     C_R   0.751635 0.929230 0.076667 -0.018211
C79   C     C_R   0.248541 0.928759 0.923125 -0.015814
C80   C     C_R   0.251639 0.429229 0.076666 -0.018207
C81   C     C_3   0.580949 0.316114 0.519409 -0.230246
C82   C     C_R   0.748539 0.428758 0.923126 -0.015803
C83   C     C_R   0.691730 0.887557 0.039794 -0.018819
C84   C     C_R   0.308185 0.885840 0.960459 -0.021458
C85   C     C_R   0.191729 0.387566 0.039795 -0.018794
C86   C     C_R   0.808185 0.385842 0.960458 -0.021458
C87   C     C_R   0.691943 0.889360 0.965889 -0.185752
C88   C     C_R   0.307966 0.888600 0.034381 -0.186764
C89   C     C_R   0.191940 0.389369 0.965890 -0.185766
C90   C     C_R   0.807969 0.388608 0.034380 -0.186786
C91   C     C_R   0.751304 0.927837 0.928155 -0.052569
C92   C     C_3   0.063220 0.806888 0.441381 -0.239636
C93   C     C_R   0.248791 0.928923 0.071783 -0.053072
C94   C     C_R   0.251301 0.427834 0.928154 -0.052578
C95   C     C_R   0.748792 0.428924 0.071783 -0.053075
C96   C     C_R   0.741154 0.968400 0.647936 0.530925
C97   C     C_R   0.258879 0.972511 0.353683 0.521323
C98   C     C_R   0.241152 0.468424 0.647923 0.530895
C99   C     C_R   0.758879 0.472523 0.353684 0.521281
C100  C     C_R   0.730511 0.381509 0.851886 0.570516
C101  C     C_R   0.269541 0.381661 0.148075 0.564048
C102  C     C_R   0.230511 0.881509 0.851885 0.570514
C103  C     C_3   0.081131 0.815823 0.519354 -0.230242
C104  C     C_R   0.769540 0.881661 0.148076 0.564116
C105  C     C_R   0.533830 0.156657 0.854169 0.563078
C106  C     C_R   0.466063 0.156704 0.145733 0.563652
C107  C     C_R   0.033829 0.656657 0.854168 0.563072
C108  C     C_R   0.966063 0.656704 0.145733 0.563669
C109  C     C_R   0.741624 0.970390 0.854685 0.526136
C110  C     C_R   0.258437 0.970720 0.145253 0.528355
C111  C     C_R   0.241624 0.470389 0.854684 0.526173
C112  C     C_R   0.758437 0.470721 0.145253 0.528366
C113  C     C_R   0.461874 0.150884 0.435761 -0.037907
C114  C     C_R   0.690040 0.898060 0.535218 -0.089864
C115  C     C_R   0.493023 0.168551 0.581203 0.004657
C116  C     C_R   0.961918 0.650818 0.435747 -0.037937
C117  C     C_R   0.993078 0.668516 0.581182 0.004723
C118  C     C_R   0.494076 0.253770 0.462919 0.056030
C119  C     C_R   0.511000 0.261076 0.533949 0.038948
C120  C     C_R   0.994218 0.753624 0.462879 0.055485
C121  C     C_R   0.011150 0.760928 0.533901 0.039337
C122  C     C_R   0.453061 0.070548 0.556491 0.005042
C123  C     C_R   0.446529 0.052851 0.482757 -0.073871
C124  C     C_R   0.953054 0.570569 0.556495 0.005120
Cr1   Cr    Cr6+3 0.771950 0.169480 0.750100 1.090994
Cr2   Cr    Cr6+3 0.383410 0.010620 0.249390 1.039651
Cr3   Cr    Cr6+3 0.116590 0.510620 0.750610 1.067675
Cr4   Cr    Cr6+3 0.883410 0.510620 0.249390 1.039628
Cr5   Cr    Cr6+3 0.228050 0.169480 0.249900 1.095326
Cr6   Cr    Cr6+3 0.271950 0.669480 0.750100 1.090966
Cr7   Cr    Cr6+3 0.728050 0.669480 0.249900 1.095618
Cr8   Cr    Cr6+3 0.614930 0.323340 0.749170 1.072080
Cr9   Cr    Cr6+3 0.385070 0.323340 0.250830 1.045149
Cr10  Cr    Cr6+3 0.114930 0.823340 0.749170 1.072188
Cr11  Cr    Cr6+3 0.885070 0.823340 0.250830 1.044939
Cr12  Cr    Cr6+3 0.616590 0.010620 0.750610 1.067709
H1    H     H_    0.442414 0.888631 0.607783 0.166276
H2    H     H_    0.169649 0.143332 0.889127 0.090511
H3    H     H_    0.331440 0.641369 0.109352 0.088316
H4    H     H_    0.669633 0.643285 0.889103 0.090550
H5    H     H_    0.586026 0.802319 0.046582 0.158039
H6    H     H_    0.413138 0.796678 0.954554 0.158120
H7    H     H_    0.086026 0.302327 0.046590 0.158025
H8    H     H_    0.913130 0.296650 0.954549 0.158103
H9    H     H_    0.644174 0.866045 0.937731 0.137739
H10   H     H_    0.355561 0.864198 0.062793 0.136480
H11   H     H_    0.144167 0.366064 0.937734 0.137738
H12   H     H_    0.409012 0.907804 0.408942 0.161852
H13   H     H_    0.855566 0.364213 0.062790 0.136475
H14   H     H_    0.057348 0.897174 0.415131 0.196683
H15   H     H_    0.125592 0.755886 0.535563 0.118775
H16   H     H_    0.557150 0.397428 0.415181 0.197131
H17   H     H_    0.625448 0.256264 0.535616 0.118870
H18   H     H_    0.596822 0.241321 0.412530 0.125360
H19   H     H_    0.583653 0.411396 0.538556 0.223425
H20   H     H_    0.096943 0.740997 0.412468 0.125503
H21   H     H_    0.083890 0.911099 0.538498 0.223372
H22   H     H_    0.638177 0.896763 0.558612 0.204293
H23   H     H_    0.942252 0.388765 0.607893 0.166059
H24   H     H_    0.311200 0.780275 0.423631 0.157624
H25   H     H_    0.138179 0.396528 0.558659 0.204531
H26   H     H_    0.811105 0.280234 0.423606 0.158038
H27   H     H_    0.623280 0.915219 0.370851 0.117921
H28   H     H_    0.359161 0.741988 0.614736 0.168895
H29   H     H_    0.123313 0.414545 0.370664 0.118185
H30   H     H_    0.859191 0.242109 0.614651 0.168568
H31   H     H_    0.895088 0.029437 0.397612 0.165355
H32   H     H_    0.202527 0.135055 0.639117 0.127491
H33   H     H_    0.394513 0.530835 0.397544 0.164882
H34   H     H_    0.908948 0.407890 0.408888 0.161961
H35   H     H_    0.702518 0.635037 0.639138 0.127559
H36   H     H_    0.860392 0.943965 0.580513 0.200209
H37   H     H_    0.193903 0.110531 0.448312 0.208866
H38   H     H_    0.360361 0.444666 0.580330 0.200230
H39   H     H_    0.693955 0.610619 0.448315 0.209055
H40   H     H_    0.507399 0.965271 0.938075 0.159284
H41   H     H_    0.489068 0.964992 0.061624 0.157573
H42   H     H_    0.007393 0.465271 0.938073 0.159294
H43   H     H_    0.989062 0.464992 0.061622 0.157569
H44   H     H_    0.489144 0.359076 0.063628 0.204691
H45   H     H_    0.892340 0.910996 0.885811 0.097013
H46   H     H_    0.513491 0.359138 0.935999 0.206532
H47   H     H_    0.989146 0.859076 0.063627 0.204733
H48   H     H_    0.013486 0.859137 0.935996 0.206570
H49   H     H_    0.107620 0.916653 0.114101 0.095018
H50   H     H_    0.392367 0.410873 0.885862 0.096897
H51   H     H_    0.607614 0.416603 0.114086 0.094987
H52   H     H_    0.831399 0.141477 0.109296 0.088255
O1    O     O_R   0.787510 0.042610 0.670410 -0.525575
O2    O     O_R   0.454250 0.051070 0.169440 -0.493373
O3    O     O_R   0.045750 0.551070 0.830560 -0.491777
O4    O     O_R   0.954250 0.551070 0.169440 -0.493374
O5    O     O_R   0.681210 0.959150 0.825320 -0.505874
O6    O     O_R   0.318790 0.959150 0.174680 -0.503193
O7    O     O_R   0.181210 0.459150 0.825320 -0.505875
O8    O     O_R   0.818790 0.459150 0.174680 -0.503179
O9    O     O_3   0.667820 0.167810 0.749960 -0.279461
O10   O     O_3   0.332180 0.167810 0.250040 -0.283789
O11   O     O_3   0.167820 0.667810 0.749960 -0.279474
O12   O     O_R   0.212490 0.042610 0.329590 -0.506888
O13   O     O_3   0.832180 0.667810 0.250040 -0.283859
O14   O     O_R   0.765670 0.292090 0.675090 -0.515408
O15   O     O_R   0.234330 0.292090 0.324910 -0.494360
O16   O     O_R   0.265670 0.792090 0.675090 -0.515419
O17   O     O_R   0.734330 0.792090 0.324910 -0.494094
O18   O     O_R   0.670220 0.409020 0.668560 -0.519915
O19   O     O_R   0.329780 0.409020 0.331440 -0.560337
O20   O     O_R   0.170220 0.909020 0.668560 -0.519857
O21   O     O_R   0.829780 0.909020 0.331440 -0.560576
O22   O     O_R   0.556580 0.251590 0.674980 -0.498525
O23   O     O_R   0.287510 0.542610 0.670410 -0.525827
O24   O     O_R   0.443420 0.251590 0.325020 -0.492846
O25   O     O_R   0.056580 0.751590 0.674980 -0.498449
O26   O     O_R   0.943420 0.751590 0.325020 -0.493161
O27   O     O_R   0.545890 0.049670 0.670030 -0.500403
O28   O     O_R   0.454110 0.049670 0.329970 -0.522135
O29   O     O_R   0.045890 0.549670 0.670030 -0.500480
O30   O     O_R   0.954110 0.549670 0.329970 -0.522103
O31   O     O_R   0.681340 0.957860 0.676500 -0.506857
O32   O     O_R   0.318660 0.957860 0.323500 -0.539025
O33   O     O_R   0.181340 0.457860 0.676500 -0.506834
O34   O     O_R   0.712490 0.542610 0.329590 -0.506730
O35   O     O_R   0.818660 0.457860 0.323500 -0.539085
O36   O     O_R   0.787380 0.044010 0.830940 -0.500479
O37   O     O_R   0.212620 0.044010 0.169060 -0.499816
O38   O     O_R   0.287380 0.544010 0.830940 -0.500363
O39   O     O_R   0.712620 0.544010 0.169060 -0.499777
O40   O     O_R   0.765540 0.293390 0.823910 -0.437117
O41   O     O_R   0.234460 0.293390 0.176090 -0.439756
O42   O     O_R   0.265540 0.793390 0.823910 -0.437092
O43   O     O_R   0.734460 0.793390 0.176090 -0.439733
O44   O     O_R   0.670090 0.410410 0.829090 -0.516554
O45   O     O_R   0.556450 0.252890 0.823790 -0.501532
O46   O     O_R   0.329910 0.410410 0.170910 -0.515355
O47   O     O_R   0.170090 0.910410 0.829090 -0.516521
O48   O     O_R   0.829910 0.910410 0.170910 -0.515214
O49   O     O_2   0.385408 0.016298 0.654963 -0.516652
O50   O     O_2   0.469955 0.843737 0.484459 -0.413054
O51   O     O_2   0.885288 0.516626 0.654943 -0.516797
O52   O     O_2   0.969511 0.343541 0.484615 -0.413454
O53   O     O_2   0.918969 0.062869 0.935461 -0.432015
O54   O     O_2   0.081568 0.068018 0.062573 -0.433807
O55   O     O_2   0.418918 0.562929 0.935372 -0.431967
O56   O     O_R   0.443550 0.252890 0.176210 -0.495708
O57   O     O_2   0.581584 0.568030 0.062606 -0.433793
O58   O     O_2   0.917849 0.065018 0.071154 -0.433241
O59   O     O_2   0.082899 0.067380 0.926746 -0.430823
O60   O     O_2   0.417869 0.565064 0.071065 -0.433295
O61   O     O_2   0.582890 0.567400 0.926781 -0.430855
O62   O     O_2   0.612521 0.886190 0.135644 -0.486841
O63   O     O_2   0.387659 0.881195 0.864872 -0.466517
O64   O     O_2   0.112522 0.386210 0.135647 -0.486915
O65   O     O_2   0.887660 0.381191 0.864872 -0.466569
O66   O     O_2   0.592801 0.782104 0.435504 -0.397816
O67   O     O_R   0.056450 0.752890 0.823790 -0.501527
O68   O     O_2   0.375105 0.681304 0.520458 -0.472064
O69   O     O_2   0.092543 0.282396 0.435830 -0.397871
O70   O     O_2   0.874619 0.180628 0.520432 -0.471990
O71   O     O_2   0.942689 0.982562 0.485180 -0.472291
O72   O     O_2   0.127059 0.156907 0.567005 -0.452506
O73   O     O_2   0.442591 0.482893 0.484719 -0.472325
O74   O     O_2   0.627093 0.657021 0.566992 -0.452610
O75   O     O_R   0.943550 0.752890 0.176210 -0.495673
O76   O     O_R   0.545750 0.051070 0.830560 -0.491753

loop_
_geom_bond_atom_site_label_1
_geom_bond_atom_site_label_2
_ccdc_geom_bond_type
C8    H45   S    
C44   C49   A    
C47   C114  A    
C57   C105  S    
Cr11  O48   S    
Cr8   O18   S    
Cr9   O10   S    
C21   H27   S    
C66   C113  S    
C87   C91   A    
C29   C42   S    
Cr12  O76   S    
C65   C115  S    
C20   H8    S    
C13   C32   A    
C83   C87   A    
C6    C124  S    
C72   C76   A    
C6    H23   S    
C36   C41   A    
C57   C62   A    
Cr11  O13   S    
Cr12  O31   S    
C54   C60   A    
C52   C53   A    
Cr11  O75   S    
C27   O72   D    
C104  O48   A    
C8    C69   S    
Cr10  O25   S    
C11   H51   S    
C77   C82   A    
C36   C37   S    
C117  C124  A    
C5    H12   S    
Cr10  O67   S    
C65   O27   A    
C3    C7    S    
C12   C74   S    
C3    C116  A    
Cr9   O56   S    
C30   C114  A    
C79   C84   A    
C26   C39   S    
C53   C56   A    
Cr11  O26   S    
C35   C48   S    
C28   O73   D    
C12   H52   S    
C98   O33   A    
Cr5   O41   S    
C94   C111  S    
C13   C50   A    
C81   H17   S    
C108  O75   A    
C17   H5    S    
C16   C77   S    
C42   C46   A    
C89   C94   A    
C100  O40   A    
C70   C81   S    
C117  C121  A    
C118  C119  A    
C112  O8    A    
C95   C112  S    
C92   C103  S    
Cr2   O2    S    
C4    H1    S    
C23   H29   S    
C78   C83   A    
C114  H22   S    
C26   O71   D    
C14   H2    S    
C20   C86   S    
C5    C123  S    
C110  O6    A    
C18   C84   S    
C4    O49   D    
C79   C102  S    
C109  O5    A    
C7    O52   D    
Cr1   O40   S    
C68   O26   A    
Cr8   O45   S    
C52   H40   S    
C22   O68   D    
Cr5   O10   S    
C103  H15   S    
C27   H32   S    
Cr9   O46   S    
Cr12  O27   S    
C72   C94   A    
C59   O17   A    
C24   C51   A    
C15   C76   S    
C21   O66   D    
C99   O34   A    
Cr1   O9    S    
C102  O47   A    
C112  O39   A    
C37   O19   A    
C97   O12   A    
Cr6   O23   S    
C16   H4    S    
C105  O45   A    
C90   H13   S    
C1    O14   A    
Cr8   O44   S    
Cr4   O35   S    
C43   H36   S    
C9    C71   S    
Cr2   O32   S    
C15   H3    S    
C51   C99   S    
Cr10  O11   S    
C26   H31   S    
C99   O35   A    
Cr1   O14   S    
C50   C98   S    
C58   C108  S    
C63   H47   S    
C5    O50   D    
C30   C34   A    
C78   C104  S    
C34   C39   A    
C11   O57   D    
C76   C80   A    
C17   O62   D    
C100  O44   A    
Cr8   O22   S    
C44   H37   S    
C86   C90   A    
C115  C122  A    
C85   C89   A    
C103  H21   S    
C104  O43   A    
C39   C43   A    
C82   C86   A    
C46   C51   A    
Cr3   O3    S    
C54   H42   S    
Cr6   O38   S    
C53   H41   S    
C2    C31   A    
C17   C83   S    
C65   O22   A    
C96   O1    A    
C6    O51   D    
C68   O30   A    
C80   C85   A    
C2    C49   A    
Cr3   O7    S    
C62   H46   S    
C22   H28   S    
Cr2   O6    S    
C120  C121  A    
Cr10  O20   S    
C113  C123  A    
C107  O3    A    
C67   O29   A    
C27   C40   S    
C47   C96   S    
C93   C110  S    
C22   C31   S    
C48   O20   A    
Cr7   O39   S    
C29   O74   D    
C37   O15   A    
C97   O32   A    
C107  O67   A    
C69   C74   A    
C92   H20   S    
Cr6   O42   S    
C29   H35   S    
C60   C107  S    
C1    O18   A    
C67   C117  S    
C56   C106  S    
Cr12  O9    S    
C109  O36   A    
Cr2   O28   S    
C1    C38   S    
C68   C116  S    
C25   O70   D    
Cr11  O21   S    
C115  C119  A    
C92   H14   S    
C34   C59   S    
C31   C35   A    
C67   O25   A    
C73   C95   A    
C66   O24   A    
Cr6   O11   S    
Cr7   O17   S    
Cr4   O30   S    
Cr6   O16   S    
C3    C124  A    
Cr3   O29   S    
C106  O2    A    
C14   O59   D    
C98   O23   A    
Cr1   O36   S    
Cr7   O43   S    
C58   C63   A    
C89   H11   S    
C70   H16   S    
C81   C119  S    
C88   C93   A    
C18   H6    S    
C88   H10   S    
C87   H9    S    
C70   H18   S    
C111  O38   A    
C55   H43   S    
C24   H26   S    
C10   O55   D    
Cr4   O8    S    
C106  O56   A    
C63   C64   A    
C19   C85   S    
C110  O37   A    
Cr3   O11   S    
C54   C55   A    
Cr1   O1    S    
C16   O61   D    
C32   C36   A    
C13   H25   S    
C71   C93   A    
C25   H30   S    
Cr9   O19   S    
C96   O31   A    
C111  O7    A    
C21   C30   S    
C48   O16   A    
C9    H49   S    
C24   C33   A    
C81   H19   S    
C80   C101  S    
C60   C64   A    
C19   H7    S    
C91   C109  S    
C35   C40   A    
C92   C120  S    
Cr12  O5    S    
C41   C45   A    
C45   H38   S    
C23   C32   S    
Cr10  O47   S    
C71   C75   A    
Cr2   O10   S    
C55   C58   A    
C84   C88   A    
C75   C79   A    
C8    O53   D    
C70   C118  S    
C105  O76   A    
C12   O58   D    
C56   C61   A    
C82   C100  S    
Cr8   O9    S    
C10   H50   S    
C4    C122  S    
C20   O65   D    
Cr7   O34   S    
C11   C73   S    
Cr4   O13   S    
C103  C121  S    
C66   O28   A    
C61   C62   A    
Cr7   O13   S    
C9    O54   D    
Cr5   O15   S    
Cr5   O12   S    
C52   C57   A    
Cr3   O33   S    
C49   C97   S    
C113  C118  A    
C64   H48   S    
C38   C42   A    
C116  C120  A    
C28   H33   S    
C40   C44   A    
C15   O60   D    
C23   O69   D    
C19   O64   D    
C2    H24   S    
C74   C78   A    
C7    H34   S    
Cr5   O37   S    
C101  O46   A    
C102  O42   A    
Cr9   O24   S    
C73   C77   A    
C46   H39   S    
C108  O4    A    
C33   C38   A    
C101  O41   A    
C45   C50   A    
C18   O63   D    
Cr4   O4    S    
C122  C123  A    
C69   C91   A    
C43   C47   A    
C90   C95   A    
C61   H44   S    
C28   C41   S    
C59   O21   A    
C14   C75   S    
C25   C33   S    
C10   C72   S    
