data_mof_unit_35775.cif
_audit_creation_date              2012-12-10T18:21:16-0500
_audit_creation_method            fapswitch 2.2
_symmetry_space_group_name_H-M    P1
_symmetry_Int_Tables_number       1
_space_group_crystal_system       triclinic
_cell_length_a                    14.995471
_cell_length_b                    14.024052
_cell_length_c                    10.631863
_cell_angle_alpha                 90.525888
_cell_angle_beta                  89.953743
_cell_angle_gamma                 89.994174
_cell_volume                      2235.75679117

loop_
_atom_site_label
_atom_site_type_symbol
_atom_type_description
_atom_site_fract_x
_atom_site_fract_y
_atom_site_fract_z
_atom_type_partial_charge
C1    C     C_R   0.326527 0.500027 0.500606 0.898742
C2    C     C_3   0.599118 0.541410 0.932044 0.338595
C3    C     C_R   0.815011 0.585145 0.480109 -0.265487
C4    C     C_R   0.769247 0.500362 0.503875 -0.083283
C5    C     C_R   0.814869 0.416200 0.531502 -0.266820
C6    C     C_R   0.907119 0.415874 0.533657 0.118266
C7    C     C_R   0.953542 0.501048 0.508120 0.060637
C8    C     C_R   0.907193 0.586106 0.481850 0.119193
C9    C     C_R   0.953571 0.331792 0.559828 -0.223658
C10   C     C_R   0.046249 0.331699 0.559283 -0.221514
C11   C     C_R   0.092722 0.415721 0.532727 0.118941
C12   C     C_R   0.498684 0.499447 0.257725 0.854528
C13   C     C_R   0.046319 0.500983 0.507715 0.060153
C14   C     C_R   0.092686 0.586015 0.481260 0.118636
C15   C     C_R   0.046255 0.670335 0.456373 -0.220425
C16   C     C_R   0.953621 0.670374 0.456637 -0.223249
C17   C     C_R   0.184981 0.415973 0.530106 -0.264110
C18   C     C_R   0.230670 0.500255 0.503104 -0.083677
C19   C     C_R   0.184889 0.585035 0.479346 -0.263960
C20   C     C_R   0.520694 0.796220 0.391552 -0.060307
C21   C     C_R   0.522473 0.202314 0.392207 -0.055661
C22   C     C_R   0.479510 0.799875 0.606621 -0.074797
C23   C     C_R   0.478860 0.201545 0.606313 -0.075761
C24   C     C_R   0.479867 0.900128 0.607295 0.052217
C25   C     C_R   0.479295 0.101322 0.606982 0.050862
C26   C     C_R   0.673464 0.500036 0.500607 0.878603
C27   C     C_R   0.501401 0.949445 0.495789 0.037398
C28   C     C_R   0.501756 0.050464 0.495889 0.040003
C29   C     C_R   0.520789 0.897474 0.384798 -0.050425
C30   C     C_R   0.525077 0.100900 0.386400 -0.061953
C31   C     C_R   0.458485 0.951666 0.716955 -0.212157
C32   C     C_R   0.457776 0.051360 0.716586 -0.215281
C33   C     C_R   0.548802 0.049288 0.274840 0.133801
C34   C     C_R   0.539858 0.947341 0.271309 0.137703
C35   C     C_R   0.502305 0.500550 0.742581 0.822846
C36   C     C_3   0.429604 0.568854 0.071959 -0.413217
C37   C     C_3   0.481139 0.397411 0.070077 -0.412952
C38   C     C_3   0.426558 0.564059 0.928397 -0.437580
C39   C     C_3   0.486562 0.398342 0.927738 -0.420552
C40   C     C_3   0.595592 0.527814 0.078137 -0.374776
C41   C     C_3   0.500888 0.498565 0.121737 0.112753
C42   C     C_3   0.505470 0.501952 0.879562 0.076577
H1    H     H_    0.445686 0.642877 0.102413 0.186355
H2    H     H_    0.530610 0.345185 0.106238 0.186309
H3    H     H_    0.221084 0.350721 0.549531 0.162524
H4    H     H_    0.220868 0.650058 0.458202 0.163951
H5    H     H_    0.081537 0.735881 0.436150 0.146719
H6    H     H_    0.918337 0.735938 0.436552 0.144925
H7    H     H_    0.537655 0.752831 0.311080 0.154116
H8    H     H_    0.536418 0.244770 0.310799 0.150715
H9    H     H_    0.462757 0.761468 0.691235 0.125187
H10   H     H_    0.461293 0.241026 0.690658 0.130494
H11   H     H_    0.441776 0.914820 0.802943 0.139651
H12   H     H_    0.440316 0.089537 0.802116 0.139702
H13   H     H_    0.361967 0.532056 0.898106 0.179659
H14   H     H_    0.421933 0.371697 0.889402 0.181906
H15   H     H_    0.427347 0.637266 0.889264 0.169359
H16   H     H_    0.537707 0.346177 0.896216 0.171092
H17   H     H_    0.615673 0.593840 0.129260 0.160258
H18   H     H_    0.642356 0.471837 0.110153 0.162196
H19   H     H_    0.779047 0.650135 0.458784 0.161572
H20   H     H_    0.778729 0.351038 0.551320 0.163476
H21   H     H_    0.918275 0.266212 0.579808 0.146166
N1    N     N_R   0.500070 0.750030 0.500050 -0.105211
N2    N     N_R   0.500070 0.249970 0.500050 -0.104480
O1    O     O_R   0.367860 0.580280 0.500020 -0.616996
O2    O     O_R   0.367860 0.419720 0.500020 -0.617943
O3    O     O_R   0.500000 0.580270 0.314790 -0.639967
O4    O     O_R   0.500000 0.419730 0.314790 -0.637370
O5    O     O_R   0.632160 0.580270 0.499960 -0.624397
O6    O     O_R   0.632160 0.419730 0.499960 -0.621117
O7    O     O_R   0.500030 0.580270 0.685200 -0.645480
O8    O     O_R   0.500030 0.419730 0.685200 -0.634388
Zn1   Zn    Zn3+2 0.500020 0.607200 0.499990 0.925687
Zn2   Zn    Zn3+2 0.500020 0.392800 0.499990 0.930042
H22   H     H_    0.081528 0.266052 0.578904 0.146474
C43   C     C_3   0.586954 0.102555 0.162424 -0.405775
C44   C     C_3   0.513796 0.132718 0.071146 -0.895121
H23   H     H_    0.479031 0.069570 0.031446 0.266791
H24   H     H_    0.464038 0.178692 0.119667 0.256477
H25   H     H_    0.543729 0.173261 0.992485 0.243135
H26   H     H_    0.625671 0.165991 0.192850 0.185880
H27   H     H_    0.638680 0.060028 0.112976 0.190930
C45   C     C_3   0.544410 0.891964 0.146531 -0.410921
C46   C     C_3   0.451701 0.858021 0.106042 -0.894497
H28   H     H_    0.422101 0.809062 0.175857 0.258660
H29   H     H_    0.406420 0.920010 0.094875 0.265633
H30   H     H_    0.456232 0.819910 0.014326 0.230462
H31   H     H_    0.570526 0.933729 0.067319 0.220221
H32   H     H_    0.591220 0.830982 0.153255 0.186991
H33   H     H_    0.362702 0.551024 0.110704 0.168939
H34   H     H_    0.413596 0.373679 0.100279 0.181372
C47   C     C_3   0.610477 0.651626 0.904650 -0.399498
C48   C     C_3   0.700537 0.696492 0.939605 -0.898697
H35   H     H_    0.717901 0.685230 0.039622 0.251030
H36   H     H_    0.754467 0.668658 0.877914 0.277616
H37   H     H_    0.696805 0.774696 0.924717 0.244714
H38   H     H_    0.601600 0.666619 0.803656 0.225764
H39   H     H_    0.559163 0.693289 0.956093 0.202782
C49   C     C_3   0.678544 0.485483 0.866354 -0.349476
C50   C     C_3   0.764406 0.471327 0.942821 -0.882368
H40   H     H_    0.780452 0.533396 0.003573 0.271644
H41   H     H_    0.758433 0.407189 0.002769 0.243498
H42   H     H_    0.821219 0.458989 0.877535 0.255077
H43   H     H_    0.658069 0.413592 0.834135 0.181324
H44   H     H_    0.696635 0.522596 0.777972 0.197376

loop_
_geom_bond_atom_site_label_1
_geom_bond_atom_site_label_2
_ccdc_geom_bond_type
C12   O4    A    
C47   C48   S    
C40   H18   S    
C27   C29   A    
C24   C27   A    
C15   H5    S    
C16   H6    S    
C6    C9    A    
C19   H4    S    
C7    C8    A    
C43   C44   S    
C25   C28   A    
C12   O3    A    
C1    C18   S    
C50   H40   S    
C34   C45   S    
C17   H3    S    
C38   C42   S    
C5    C6    A    
C44   H24   S    
C43   H27   S    
O3    Zn1   S    
C15   C16   A    
O1    Zn1   S    
C18   C19   A    
C35   C42   S    
C10   H22   S    
C11   C17   A    
C38   H13   S    
C39   H14   S    
O5    Zn1   S    
C9    C10   A    
C47   H39   S    
C30   C33   A    
C25   C32   A    
C3    H19   S    
C2    C49   S    
C8    C16   A    
C40   H17   S    
C13   C14   A    
C26   O6    A    
O8    Zn2   S    
C36   C41   S    
C45   H32   S    
C32   H12   S    
C21   H8    S    
C33   C34   A    
C39   C42   S    
C20   C29   A    
C46   H29   S    
C45   C46   S    
O7    Zn1   S    
C3    C8    A    
C44   H23   S    
C48   H37   S    
C46   H28   S    
C39   H16   S    
C29   C34   A    
C1    O1    A    
C20   N1    A    
C20   H7    S    
C38   H15   S    
C31   C32   A    
C17   C18   A    
C49   H43   S    
C31   H11   S    
C48   H36   S    
C36   H33   S    
C40   C41   S    
C35   O7    A    
C50   H42   S    
C26   O5    A    
C22   C24   A    
O2    Zn2   S    
C45   H31   S    
C3    C4    A    
C12   C41   S    
C46   H30   S    
C35   O8    A    
C37   H34   S    
C21   N2    A    
C9    H21   S    
C14   C19   A    
C2    C47   S    
C4    C5    A    
C4    C26   S    
C6    C7    A    
C21   C30   A    
C49   H44   S    
N2    Zn2   S    
C23   N2    A    
C37   H2    S    
C36   C38   S    
C24   C31   A    
C37   C39   S    
O6    Zn2   S    
C11   C13   A    
C44   H25   S    
C33   C43   S    
C23   H10   S    
C43   H26   S    
C2    C42   S    
C28   C30   A    
C49   C50   S    
C1    O2    A    
C5    H20   S    
O4    Zn2   S    
C23   C25   A    
C37   C41   S    
C48   H35   S    
C10   C11   A    
C22   N1    A    
C2    C40   S    
C7    C13   A    
C50   H41   S    
C27   C28   A    
N1    Zn1   S    
C14   C15   A    
C36   H1    S    
C47   H38   S    
C22   H9    S    
