data_mof_unit_17214.cif
_audit_creation_date              2012-12-10T17:52:17-0500
_audit_creation_method            fapswitch 2.2
_symmetry_space_group_name_H-M    P1
_symmetry_Int_Tables_number       1
_space_group_crystal_system       triclinic
_cell_length_a                    18.825947
_cell_length_b                    10.71103
_cell_length_c                    9.85318
_cell_angle_alpha                 91.31375
_cell_angle_beta                  89.562557
_cell_angle_gamma                 92.192351
_cell_volume                      1984.82566245

loop_
_atom_site_label
_atom_site_type_symbol
_atom_type_description
_atom_site_fract_x
_atom_site_fract_y
_atom_site_fract_z
_atom_type_partial_charge
C1    C     C_R   0.506569 0.261151 0.498719 0.866408
C2    C     C_R   0.855071 0.613504 0.492545 0.091745
C3    C     C_R   0.574597 0.132947 0.721547 -0.223777
C4    C     C_R   0.365000 0.510990 0.500193 0.892512
C5    C     C_R   0.580622 0.080124 0.848480 -0.260879
C6    C     C_R   0.549017 0.961504 0.872738 0.547471
C7    C     C_R   0.515840 0.896428 0.764398 -0.248178
C8    C     C_R   0.515808 0.944291 0.630939 0.032297
C9    C     C_R   0.536414 0.069661 0.615878 0.098998
C10   C     C_R   0.515315 0.129236 0.497165 -0.098085
C11   C     C_R   0.490085 0.061215 0.384151 -0.232661
C12   C     C_R   0.290872 0.553489 0.497841 -0.294609
C13   C     C_R   0.482258 0.934234 0.389992 -0.247646
C14   C     C_R   0.495355 0.874524 0.511254 -0.092275
C15   C     C_R   0.411714 0.326821 0.138256 -0.122593
C16   C     C_R   0.497170 0.740515 0.502999 0.871166
C17   C     C_R   0.370779 0.237281 0.066611 -0.197412
C18   C     C_R   0.371792 0.235268 0.926191 -0.209130
C19   C     C_R   0.413097 0.323830 0.856870 -0.168225
C20   C     C_R   0.457329 0.412998 0.926212 0.168822
C21   C     C_R   0.456952 0.413751 0.071158 0.150285
C22   C     C_R   0.541394 0.582273 0.073169 -0.112981
C23   C     C_R   0.931489 0.645098 0.489725 0.282590
C24   C     C_R   0.541320 0.582326 0.929637 -0.110913
C25   C     C_R   0.635369 0.504296 0.499409 0.850801
C26   C     C_R   0.254323 0.585585 0.619628 0.447235
C27   C     C_R   0.186928 0.634747 0.612709 -0.260835
C28   C     C_R   0.151787 0.641439 0.489066 -0.062490
C29   C     C_R   0.188207 0.614752 0.368639 -0.254359
C30   C     C_R   0.258192 0.577542 0.371308 0.435598
C31   C     C_3   0.268950 0.475653 0.814203 0.099262
C32   C     C_3   0.194524 0.475849 0.879483 -0.412537
C33   C     C_3   0.185720 0.374446 0.985392 -0.894706
C34   C     C_R   0.075195 0.661554 0.487578 0.348464
C35   C     C_3   0.602291 0.935498 0.086716 0.068664
C36   C     C_3   0.672296 0.884220 0.031346 -0.404581
C37   C     C_3   0.730410 0.893461 0.138652 -0.927739
C38   C     C_3   0.332294 0.676327 0.218225 0.147642
C39   C     C_3   0.294046 0.749808 0.111412 -0.405580
C40   C     C_3   0.338379 0.865352 0.070085 -0.909960
C41   C     C_R   0.819735 0.594981 0.616960 -0.161915
C42   C     C_R   0.748768 0.554127 0.619412 -0.201299
C43   C     C_R   0.712037 0.531656 0.497516 -0.035025
C44   C     C_R   0.747371 0.549937 0.373180 -0.200249
C45   C     C_R   0.818238 0.590759 0.370724 -0.166255
H1    H     H_    0.599643 0.224383 0.707291 0.178022
H2    H     H_    0.161024 0.664041 0.705905 0.171559
H3    H     H_    0.575071 0.649098 0.876306 0.148701
H4    H     H_    0.162656 0.622946 0.271280 0.174952
H5    H     H_    0.846958 0.610776 0.712585 0.148399
H6    H     H_    0.722444 0.542322 0.716673 0.150938
H7    H     H_    0.720017 0.534935 0.277524 0.156134
H8    H     H_    0.844150 0.603688 0.273282 0.149389
H9    H     H_    0.474754 0.106092 0.291934 0.177803
H10   H     H_    0.307569 0.471133 0.897958 0.200567
H11   H     H_    0.274709 0.390728 0.748036 0.117264
H12   H     H_    0.607333 0.135565 0.926893 0.138919
H13   H     H_    0.185558 0.568060 0.929221 0.232031
H14   H     H_    0.153492 0.457700 0.800355 0.220011
H15   H     H_    0.194365 0.281043 0.938119 0.255461
H16   H     H_    0.131111 0.375004 0.028712 0.265551
H17   H     H_    0.224266 0.391732 0.069148 0.296423
H18   H     H_    0.590084 0.888765 0.184031 0.185483
H19   H     H_    0.607223 0.036554 0.113813 0.137984
H20   H     H_    0.663754 0.784719 0.999513 0.217045
H21   H     H_    0.690667 0.937481 0.941464 0.220823
H22   H     H_    0.740173 0.992326 0.172128 0.266694
H23   H     H_    0.486864 0.811777 0.790861 0.199179
H24   H     H_    0.780459 0.857463 0.095296 0.265983
H25   H     H_    0.714754 0.836661 0.227777 0.265229
H26   H     H_    0.384500 0.650367 0.175242 0.189758
H27   H     H_    0.344212 0.737751 0.309159 0.112000
H28   H     H_    0.284430 0.689213 0.020127 0.258426
H29   H     H_    0.242069 0.779492 0.152336 0.218267
H30   H     H_    0.348258 0.928516 0.159493 0.252480
H31   H     H_    0.309391 0.916856 0.992654 0.265095
H32   H     H_    0.390107 0.837735 0.025941 0.288782
H33   H     H_    0.464835 0.882838 0.299422 0.180806
H34   H     H_    0.575175 0.649006 0.128802 0.159027
H35   H     H_    0.405616 0.326037 0.245642 0.206765
H36   H     H_    0.336807 0.171014 0.120481 0.152102
H37   H     H_    0.338139 0.168065 0.870553 0.152250
H38   H     H_    0.405245 0.324281 0.750092 0.202757
N1    N     N_R   0.038656 0.650289 0.369595 -0.180019
N2    N     N_R   0.968089 0.642435 0.370652 -0.182883
N3    N     N_R   0.967906 0.662207 0.607216 -0.183935
N4    N     N_R   0.038436 0.670145 0.606140 -0.184015
N5    N     N_R   0.499340 0.498800 0.142780 -0.136277
N6    N     N_R   0.499320 0.498720 0.857170 -0.121062
O1    O     O_R   0.500000 0.316780 0.614690 -0.639295
O2    O     O_3   0.544105 0.906603 0.999723 -0.678452
O3    O     O_3   0.293358 0.563906 0.248123 -0.641771
O4    O     O_R   0.499990 0.316750 0.385360 -0.641568
O5    O     O_R   0.398140 0.500000 0.614700 -0.594842
O6    O     O_R   0.398130 0.499970 0.385370 -0.607403
O7    O     O_R   0.500010 0.683250 0.614640 -0.624820
O8    O     O_R   0.500000 0.683220 0.385310 -0.635703
O9    O     O_R   0.601870 0.500030 0.614630 -0.624759
O10   O     O_R   0.601860 0.500000 0.385300 -0.614245
O11   O     O_3   0.287052 0.586816 0.744837 -0.631723
Zn1   Zn    Zn3+2 0.500000 0.500020 0.653130 0.936719
Zn2   Zn    Zn3+2 0.500000 0.499980 0.346870 0.923928

loop_
_geom_bond_atom_site_label_1
_geom_bond_atom_site_label_2
_ccdc_geom_bond_type
C1    O1    A    
C37   H24   S    
C41   C42   A    
C19   C20   A    
C32   H13   S    
C24   N6    A    
C25   C43   S    
C7    C8    A    
C29   H4    S    
C26   C27   A    
C36   C37   S    
C22   H34   S    
C5    C6    A    
C36   H21   S    
C16   O8    A    
C2    C41   A    
C6    O2    S    
C38   O3    S    
C18   C19   A    
C39   H29   S    
C13   C14   A    
C7    H23   S    
C13   H33   S    
C25   O10   A    
C35   C36   S    
O5    Zn1   S    
C8    C9    A    
C23   N3    A    
C35   H19   S    
C22   N5    A    
C31   H11   S    
C4    C12   S    
C9    C10   A    
C17   H36   S    
O8    Zn2   S    
O6    Zn2   S    
C42   H6    S    
N6    Zn1   S    
C44   H7    S    
C21   N5    A    
C45   H8    S    
C37   H25   S    
C34   N1    A    
C19   H38   S    
C2    C45   A    
C38   H27   S    
C16   O7    A    
C24   H3    S    
N1    N2    A    
C30   O3    S    
C39   C40   S    
C36   H20   S    
C33   H17   S    
C40   H31   S    
C12   C26   A    
C43   C44   A    
O1    Zn1   S    
C29   C30   A    
C3    C9    A    
C4    O6    A    
C15   H35   S    
C17   C18   A    
C31   O11   S    
C11   H9    S    
C4    O5    A    
C33   H16   S    
C33   H15   S    
C14   C16   S    
C42   C43   A    
C41   H5    S    
C2    C23   S    
C44   C45   A    
C27   H2    S    
C15   C17   A    
C38   H26   S    
C28   C29   A    
C8    C14   A    
C12   C30   A    
N3    N4    A    
C31   C32   S    
C1    C10   S    
C3    C5    A    
O4    Zn2   S    
N5    Zn2   S    
C6    C7    A    
O9    Zn1   S    
C20   N6    A    
C3    H1    S    
C40   H30   S    
C5    H12   S    
C32   C33   S    
C11   C13   A    
C38   C39   S    
C37   H22   S    
C18   H37   S    
C22   C24   A    
C34   N4    A    
C39   H28   S    
C10   C11   A    
C28   C34   S    
C25   O9    A    
C15   C21   A    
O10   Zn2   S    
C20   C21   A    
C1    O4    A    
C23   N2    A    
C27   C28   A    
C40   H32   S    
C35   H18   S    
C32   H14   S    
C31   H10   S    
O7    Zn1   S    
C26   O11   S    
C35   O2    S    
