data_mof_unit_50219.cif
_audit_creation_date              2012-10-26T19:15:55-0400
_audit_creation_method            fapswitch 2.2
_symmetry_space_group_name_H-M    P1
_symmetry_Int_Tables_number       1
_space_group_crystal_system       triclinic
_cell_length_a                    7.794644
_cell_length_b                    9.109484
_cell_length_c                    17.18153
_cell_angle_alpha                 88.90079
_cell_angle_beta                  93.042668
_cell_angle_gamma                 90.488876
_cell_volume                      1217.99920549

loop_
_atom_site_label
_atom_site_type_symbol
_atom_type_description
_atom_site_fract_x
_atom_site_fract_y
_atom_site_fract_z
_atom_type_partial_charge
C1    C     C_R   0.499540 0.220027 0.500086 0.555401
C2    C     C_R   0.617376 0.538387 0.140603 0.312634
C3    C     C_R   0.539593 0.565312 0.898629 0.163393
C4    C     C_R   0.454647 0.540383 0.099350 0.164184
C5    C     C_R   0.688484 0.572812 0.856950 -0.195561
C6    C     C_R   0.305911 0.528653 0.140766 -0.191595
C7    C     C_R   0.681781 0.549972 0.776912 -0.237698
C8    C     C_R   0.315313 0.516856 0.221640 -0.236036
C9    C     C_1   0.499361 0.065318 0.500059 -0.058879
C10   C     C_1   0.500586 0.934634 0.500009 -0.066341
C11   C     C_3   0.828898 0.686562 0.285509 0.044379
C12   C     C_R   0.500449 0.779962 0.499938 0.530435
C13   C     C_3   0.946578 0.763393 0.228219 -0.262191
C14   C     C_3   0.088092 0.853189 0.270485 -0.487001
C15   C     C_3   0.175416 0.681381 0.702589 0.040422
C16   C     C_3   0.102864 0.788818 0.759513 -0.279028
C17   C     C_3   0.041768 0.928040 0.715985 -0.485100
C18   C     C_3   0.804167 0.393052 0.078937 0.011836
C19   C     C_3   0.884534 0.299102 0.146109 -0.267022
C20   C     C_3   0.961878 0.159077 0.116496 -0.500441
C21   C     C_3   0.198704 0.375994 0.914086 0.031706
C22   C     C_3   0.064500 0.308724 0.856627 -0.256358
C23   C     C_R   0.519071 0.506839 0.650971 0.549709
C24   C     C_3   0.974875 0.175651 0.892075 -0.499594
C25   C     C_R   0.480781 0.507027 0.348814 0.552675
C26   C     C_R   0.523692 0.531115 0.735706 -0.046287
C27   C     C_R   0.474390 0.521721 0.263220 -0.042116
C28   C     C_R   0.370145 0.541597 0.776076 0.251525
C29   C     C_R   0.626202 0.540538 0.222187 0.249673
C30   C     C_R   0.378690 0.541944 0.857557 0.307752
Cu1   Cu    Cu3+1 0.669080 0.500010 0.500000 1.006281
Cu2   Cu    Cu3+1 0.330920 0.499990 0.500000 1.001683
H1    H     H_    0.811697 0.590865 0.887580 0.163679
H2    H     H_    0.175548 0.900578 0.227541 0.147348
H3    H     H_    0.165755 0.782198 0.311922 0.169261
H4    H     H_    0.078428 0.664457 0.653747 0.173845
H5    H     H_    0.290060 0.732478 0.676470 0.126802
H6    H     H_    0.993678 0.737552 0.788988 0.186082
H7    H     H_    0.203881 0.818339 0.804712 0.170333
H8    H     H_    0.150366 0.982766 0.687360 0.156505
H9    H     H_    0.989577 0.005095 0.757331 0.153329
H10   H     H_    0.938584 0.901552 0.671219 0.159162
H11   H     H_    0.896577 0.403923 0.032428 0.152190
H12   H     H_    0.181570 0.525791 0.109578 0.155716
H13   H     H_    0.688623 0.336099 0.052538 0.132186
H14   H     H_    0.986789 0.362471 0.178011 0.199723
H15   H     H_    0.784725 0.268666 0.187463 0.174417
H16   H     H_    0.862045 0.092740 0.084404 0.153511
H17   H     H_    0.015132 0.093511 0.166818 0.158075
H18   H     H_    0.067971 0.185776 0.077844 0.142948
H19   H     H_    0.150375 0.371168 0.973574 0.147512
H20   H     H_    0.317334 0.307529 0.917101 0.109246
H21   H     H_    0.966286 0.391477 0.839391 0.200477
H22   H     H_    0.127295 0.275345 0.803232 0.181270
H23   H     H_    0.800395 0.548403 0.746959 0.168188
H24   H     H_    0.068192 0.085808 0.904940 0.156582
H25   H     H_    0.870790 0.136546 0.850896 0.150359
H26   H     H_    0.914008 0.205525 0.946286 0.140044
H27   H     H_    0.197784 0.503326 0.251881 0.169600
H28   H     H_    0.897167 0.674965 0.343720 0.180542
H29   H     H_    0.715024 0.756663 0.294630 0.099424
H30   H     H_    0.007715 0.681259 0.192149 0.217158
H31   H     H_    0.868621 0.836337 0.187913 0.153378
H32   H     H_    0.031066 0.943498 0.302860 0.154148
N1    N     N_1   0.076820 0.499970 0.500010 -0.092050
N2    N     N_1   0.923180 0.500030 0.499990 -0.092880
N3    N     N_2   0.560804 0.577897 0.980970 -0.189963
N4    N     N_2   0.432274 0.541538 0.016913 -0.209104
O1    O     O_R   0.642760 0.288400 0.500000 -0.490087
O2    O     O_3   0.208907 0.541761 0.737946 -0.554827
O3    O     O_3   0.769706 0.537310 0.102848 -0.550252
O4    O     O_3   0.227172 0.526556 0.895455 -0.541984
O5    O     O_R   0.357240 0.711600 0.500000 -0.517053
O6    O     O_R   0.357190 0.288380 0.500000 -0.490787
O7    O     O_R   0.642810 0.711620 0.500000 -0.513680
O8    O     O_R   0.658410 0.498660 0.613920 -0.509697
O9    O     O_R   0.341590 0.501340 0.386080 -0.513410
O10   O     O_R   0.372840 0.498650 0.613930 -0.473682
O11   O     O_R   0.627160 0.501350 0.386070 -0.467819
O12   O     O_3   0.786707 0.542645 0.260717 -0.558205

loop_
_geom_bond_atom_site_label_1
_geom_bond_atom_site_label_2
_ccdc_geom_bond_type
Cu1   N2    S    
C27   C29   A    
C19   C20   S    
C7    H23   S    
C23   O8    A    
C19   H14   S    
C22   H22   S    
C7    C26   A    
C2    C29   A    
C25   O9    A    
C1    O6    A    
C8    H27   S    
Cu2   O6    S    
C19   H15   S    
C15   C16   S    
C18   C19   S    
C23   C26   S    
C17   H10   S    
C15   H5    S    
C20   H18   S    
Cu2   O9    S    
C13   H30   S    
C24   H25   S    
C5    H1    S    
C9    C10   T    
C6    H12   S    
C21   C22   S    
C12   O5    A    
C22   H21   S    
C3    N3    S    
C21   O4    S    
N3    N4    D    
C1    C9    S    
C4    C6    A    
C14   H3    S    
C4    N4    S    
C16   C17   S    
C6    C8    A    
C3    C5    A    
C1    O1    A    
C17   H8    S    
C3    C30   A    
C2    C4    A    
C20   H17   S    
Cu1   O7    S    
Cu1   Cu2   S    
C13   H31   S    
C14   H32   S    
C20   H16   S    
C10   C12   S    
C22   C24   S    
C24   H24   S    
C2    O3    S    
C18   H13   S    
C15   H4    S    
C21   H19   S    
C5    C7    A    
C18   O3    S    
C15   O2    S    
C25   O11   A    
C28   O2    S    
C11   H29   S    
C14   H2    S    
C30   O4    S    
Cu1   O11   S    
C25   C27   S    
C26   C28   A    
C28   C30   A    
C18   H11   S    
C11   C13   S    
Cu1   O8    S    
C29   O12   S    
C23   O10   A    
C17   H9    S    
C11   O12   S    
C16   H7    S    
Cu2   O10   S    
Cu1   O1    S    
C24   H26   S    
N1    N2    T    
C12   O7    A    
C8    C27   A    
C13   C14   S    
Cu2   O5    S    
C21   H20   S    
C11   H28   S    
C16   H6    S    
Cu2   N1    S    
