data_mof_unit_37082.cif
_audit_creation_date              2012-12-10T18:43:04-0500
_audit_creation_method            fapswitch 2.2
_symmetry_space_group_name_H-M    P1
_symmetry_Int_Tables_number       1
_space_group_crystal_system       triclinic
_cell_length_a                    18.05999
_cell_length_b                    18.079241
_cell_length_c                    18.095482
_cell_angle_alpha                 120.001242
_cell_angle_beta                  90.051654
_cell_angle_gamma                 60.082282
_cell_volume                      4184.83273604

loop_
_atom_site_label
_atom_site_type_symbol
_atom_type_description
_atom_site_fract_x
_atom_site_fract_y
_atom_site_fract_z
_atom_type_partial_charge
C1    C     C_R   0.891358 0.216798 0.608619 0.499081
C2    C     C_3   0.551711 0.897146 0.948448 0.021046
C3    C     C_R   0.313010 0.092834 0.325227 -0.124451
C4    C     C_R   0.313208 0.178461 0.389266 -0.134050
C5    C     C_R   0.238239 0.280045 0.425174 -0.105074
C6    C     C_R   0.831369 0.700204 0.607785 0.039841
C7    C     C_R   0.824813 0.791148 0.672711 -0.078469
C8    C     C_R   0.739892 0.886570 0.726000 -0.106735
C9    C     C_R   0.661197 0.891741 0.714944 -0.081709
C10   C     C_R   0.667195 0.801489 0.650831 -0.093442
C11   C     C_R   0.751923 0.706078 0.597236 -0.101279
C12   C     C_3   0.413267 0.034086 0.013131 0.219253
C13   C     C_3   0.585663 0.967154 0.984167 0.277113
C14   C     C_3   0.980339 0.431382 0.447841 -0.128760
C15   C     C_3   0.016664 0.571094 0.553386 -0.126243
C16   C     C_3   0.075369 0.405463 0.449935 -0.001742
C17   C     C_3   0.921792 0.596246 0.551127 -0.005087
C18   C     C_3   0.052057 0.498926 0.449007 0.050920
C19   C     C_3   0.946060 0.502509 0.551579 0.054286
C20   C     C_3   0.956767 0.525887 0.446782 -0.142953
C21   C     C_R   0.108717 0.783206 0.391381 0.499244
C22   C     C_3   0.040294 0.476506 0.554292 -0.135164
C23   C     C_3   0.921086 0.035029 0.482986 -0.143319
C24   C     C_3   0.079135 0.964982 0.517007 -0.143420
C25   C     C_R   0.608613 0.783059 0.891496 0.548687
C26   C     C_R   0.391325 0.217200 0.106215 0.520284
C27   C     C_3   0.957571 0.963698 0.516841 -0.140626
C28   C     C_3   0.042636 0.036337 0.483177 -0.140537
C29   C     C_3   0.051817 0.897647 0.447875 0.052858
C30   C     C_3   0.948390 0.102366 0.552122 0.053018
C31   C     C_3   0.016069 0.967642 0.413990 0.008792
C32   C     C_3   0.554031 0.431524 0.412242 -0.144099
C33   C     C_3   0.984154 0.032382 0.586013 0.008942
C34   C     C_3   0.987920 0.424269 0.977353 -0.128569
C35   C     C_3   0.014126 0.573757 0.020721 -0.127739
C36   C     C_3   0.960317 0.518216 0.074897 -0.138589
C37   C     C_3   0.041742 0.479793 0.923132 -0.138630
C38   C     C_3   0.052502 0.498980 0.050038 0.051957
C39   C     C_3   0.949407 0.499133 0.948155 0.052000
C40   C     C_3   0.080254 0.406081 0.953756 -0.004638
C41   C     C_3   0.921889 0.591880 0.044268 -0.003103
C42   C     C_3   0.552952 0.404140 0.922417 -0.128215
C43   C     C_3   0.445993 0.568440 0.587940 -0.145864
C44   C     C_3   0.447045 0.595870 0.077593 -0.127748
C45   C     C_3   0.448180 0.473035 0.956405 -0.125517
C46   C     C_3   0.551817 0.526975 0.043605 -0.125113
C47   C     C_3   0.449302 0.499684 0.051049 0.070278
C48   C     C_3   0.550696 0.500325 0.948959 0.070476
C49   C     C_R   0.608268 0.500053 0.891636 0.499273
C50   C     C_R   0.391731 0.499947 0.108365 0.498199
C51   C     C_3   0.553254 0.430717 0.017950 -0.111809
C52   C     C_3   0.446743 0.569292 0.982060 -0.111408
C53   C     C_R   0.890437 0.501100 0.608586 0.508004
C54   C     C_3   0.485092 0.964569 0.920083 0.258524
C55   C     C_R   0.109265 0.498998 0.391601 0.506617
C56   C     C_R   0.891918 0.499612 0.891247 0.504588
C57   C     C_R   0.108623 0.499858 0.108246 0.504440
C58   C     C_R   0.608292 0.500015 0.608580 0.525806
C59   C     C_R   0.391705 0.499901 0.391459 0.524261
C60   C     C_3   0.549290 0.528733 0.485464 0.267758
C61   C     C_3   0.450672 0.471276 0.514814 0.268804
C62   C     C_3   0.445013 0.597648 0.520384 -0.161737
C63   C     C_3   0.554942 0.402324 0.479820 -0.159629
C64   C     C_3   0.449359 0.499947 0.448267 0.042316
C65   C     C_3   0.514483 0.035788 0.077045 0.230208
C66   C     C_3   0.550577 0.499973 0.551894 0.043133
C67   C     C_R   0.038063 0.928842 0.316091 0.063280
C68   C     C_R   0.972035 0.936553 0.273544 -0.084636
C69   C     C_R   0.994455 0.896878 0.181772 -0.116603
C70   C     C_R   0.082727 0.849312 0.131938 -0.104028
C71   C     C_R   0.148738 0.841521 0.173817 -0.100333
C72   C     C_R   0.126551 0.881247 0.265570 -0.061686
C73   C     C_R   0.962209 0.071391 0.683970 0.063480
C74   C     C_R   0.028187 0.064136 0.726546 -0.086128
C75   C     C_R   0.005735 0.104295 0.818431 -0.118690
C76   C     C_3   0.520080 0.034370 0.954455 -0.160902
C77   C     C_R   0.917485 0.151914 0.868358 -0.103827
C78   C     C_R   0.851524 0.159269 0.826457 -0.099263
C79   C     C_R   0.873743 0.119041 0.734585 -0.061606
C80   C     C_R   0.171788 0.303162 0.902223 0.045166
C81   C     C_R   0.179819 0.208527 0.858245 -0.083775
C82   C     C_R   0.265198 0.113448 0.808241 -0.101116
C83   C     C_R   0.343104 0.112090 0.802674 -0.078572
C84   C     C_R   0.335697 0.205896 0.846650 -0.114660
C85   C     C_R   0.250352 0.301155 0.895629 -0.089882
C86   C     C_R   0.830243 0.694299 0.095636 0.045263
C87   C     C_3   0.479800 0.965400 0.042498 -0.223152
C88   C     C_R   0.820387 0.788466 0.128035 -0.082801
C89   C     C_R   0.734972 0.883350 0.179256 -0.078975
C90   C     C_R   0.659249 0.884666 0.198460 -0.074403
C91   C     C_R   0.668243 0.791225 0.164915 -0.123634
C92   C     C_R   0.753464 0.696238 0.113644 -0.096694
C93   C     C_3   0.592366 0.579046 0.409167 -0.008339
C94   C     C_3   0.649800 0.615894 0.401942 -0.378442
C95   C     C_3   0.406984 0.424330 0.594229 -0.008521
C96   C     C_3   0.350146 0.387508 0.603101 -0.380381
C97   C     C_3   0.416959 0.893825 0.826659 0.010385
C98   C     C_3   0.448264 0.103367 0.048360 -0.006006
C99   C     C_3   0.436016 0.815730 0.727528 -0.377020
C100  C     C_3   0.463438 0.131515 0.233406 -0.016967
C101  C     C_3   0.477976 0.201658 0.315089 -0.354327
C102  C     C_3   0.280751 0.078581 0.091842 -0.000156
C103  C     C_3   0.180352 0.129943 0.104276 -0.357352
C104  C     C_3   0.692451 0.003275 0.992699 0.015454
C105  C     C_3   0.790581 0.960653 0.987770 -0.369322
C106  C     C_R   0.160945 0.296691 0.399765 0.043980
C107  C     C_R   0.161180 0.210079 0.335585 -0.091444
C108  C     C_R   0.237210 0.108647 0.298034 -0.131907
H1    H     H_    0.400099 0.676585 0.535027 0.098416
H2    H     H_    0.027128 0.633567 0.038635 0.121061
H3    H     H_    0.404622 0.450943 0.921816 0.100486
H4    H     H_    0.595374 0.549068 0.078197 0.100290
H5    H     H_    0.597542 0.325583 0.857810 0.096515
H6    H     H_    0.402455 0.674430 0.142200 0.096382
H7    H     H_    0.596178 0.373769 0.033475 0.114705
H8    H     H_    0.403819 0.626237 0.966532 0.115066
H9    H     H_    0.596870 0.376760 0.339963 0.117900
H10   H     H_    0.403197 0.623126 0.660215 0.112268
H11   H     H_    0.534426 0.064305 0.919879 0.093850
H12   H     H_    0.599761 0.323431 0.465286 0.100049
H13   H     H_    0.465644 0.936083 0.077920 0.092813
H14   H     H_    0.961793 0.376932 0.406681 0.120667
H15   H     H_    0.033428 0.627100 0.595530 0.121111
H16   H     H_    0.923128 0.546642 0.402267 0.105998
H17   H     H_    0.073297 0.456340 0.599373 0.107329
H18   H     H_    0.903620 0.971927 0.310619 0.092263
H19   H     H_    0.943448 0.902649 0.149186 0.092909
H20   H     H_    0.099996 0.818354 0.060863 0.100577
H21   H     H_    0.217183 0.804340 0.135123 0.096346
H22   H     H_    0.178509 0.873922 0.297055 0.091649
H23   H     H_    0.924064 0.932000 0.529940 0.106579
H24   H     H_    0.096568 0.028812 0.689425 0.091090
H25   H     H_    0.056692 0.098907 0.851043 0.095141
H26   H     H_    0.900187 0.183271 0.939526 0.099863
H27   H     H_    0.783084 0.196531 0.865232 0.096308
H28   H     H_    0.821807 0.126100 0.703093 0.090915
H29   H     H_    0.120406 0.207794 0.861230 0.094938
H30   H     H_    0.270815 0.040830 0.773388 0.089453
H31   H     H_    0.409139 0.038445 0.763774 0.139035
H32   H     H_    0.396044 0.204793 0.842157 0.092696
H33   H     H_    0.245499 0.373294 0.928372 0.100626
H34   H     H_    0.076138 0.068048 0.470088 0.109904
H35   H     H_    0.878393 0.789060 0.114789 0.091052
H36   H     H_    0.727621 0.955927 0.204911 0.115070
H37   H     H_    0.593801 0.958021 0.240116 0.115165
H38   H     H_    0.609350 0.792498 0.179525 0.092509
H39   H     H_    0.759858 0.624302 0.088937 0.100865
H40   H     H_    0.520332 0.641377 0.427153 0.118084
H41   H     H_    0.614114 0.506779 0.342024 0.130372
H42   H     H_    0.722309 0.555590 0.384327 0.155754
H43   H     H_    0.641746 0.630158 0.348535 0.090183
H44   H     H_    0.628043 0.689633 0.467360 0.145045
H45   H     H_    0.854962 0.066699 0.471615 0.096417
H46   H     H_    0.384032 0.498121 0.660472 0.131117
H47   H     H_    0.479016 0.363333 0.577957 0.118185
H48   H     H_    0.373884 0.311540 0.539308 0.137314
H49   H     H_    0.356626 0.377371 0.658974 0.092263
H50   H     H_    0.277812 0.445896 0.618010 0.157516
H51   H     H_    0.346143 0.963336 0.854958 0.178659
H52   H     H_    0.423712 0.857147 0.862881 0.164027
H53   H     H_    0.506063 0.744325 0.697641 0.192182
H54   H     H_    0.387520 0.794062 0.721399 0.092735
H55   H     H_    0.428425 0.850491 0.689505 0.136146
H56   H     H_    0.145262 0.933300 0.528373 0.096428
H57   H     H_    0.458967 0.077730 0.242911 0.125907
H58   H     H_    0.397617 0.182347 0.229691 0.132376
H59   H     H_    0.488359 0.251007 0.303305 0.188690
H60   H     H_    0.417816 0.253823 0.376136 0.130236
H61   H     H_    0.538321 0.153601 0.327068 0.131808
H62   H     H_    0.288482 0.125424 0.156822 0.151771
H63   H     H_    0.310898 0.998321 0.073232 0.114445
H64   H     H_    0.170910 0.088977 0.038644 0.146345
H65   H     H_    0.148372 0.125616 0.152908 0.083505
H66   H     H_    0.146676 0.213138 0.130249 0.176113
H67   H     H_    0.927747 0.534628 0.138184 0.107563
H68   H     H_    0.648488 0.073769 0.062834 0.176326
H69   H     H_    0.679005 0.025825 0.944639 0.109759
H70   H     H_    0.836330 0.891227 0.918024 0.161983
H71   H     H_    0.802569 0.021339 0.006147 0.084008
H72   H     H_    0.806044 0.937901 0.035532 0.158407
H73   H     H_    0.102278 0.220412 0.315534 0.097213
H74   H     H_    0.236872 0.042323 0.248682 0.098023
H75   H     H_    0.371500 0.014299 0.296901 0.096145
H76   H     H_    0.371595 0.165822 0.411121 0.093663
H77   H     H_    0.239001 0.345702 0.475322 0.110206
H78   H     H_    0.074256 0.463387 0.859828 0.109417
H79   H     H_    0.884928 0.788606 0.682478 0.097460
H80   H     H_    0.735110 0.956547 0.775823 0.091046
H81   H     H_    0.595587 0.965643 0.755781 0.113003
H82   H     H_    0.606200 0.805487 0.642621 0.130388
H83   H     H_    0.755679 0.636586 0.547931 0.120175
H84   H     H_    0.974965 0.364490 0.959758 0.120455
O1    O     O_3   0.750010 0.499980 0.749990 -0.446286
O2    O     O_R   0.305750 0.265450 0.132730 -0.511638
O3    O     O_R   0.867280 0.265410 0.571220 -0.546599
O4    O     O_R   0.132720 0.734590 0.428780 -0.546712
O5    O     O_R   0.571230 0.734580 0.867270 -0.568057
O6    O     O_R   0.428770 0.265420 0.132730 -0.547277
O7    O     O_R   0.694200 0.438470 0.867270 -0.545450
O8    O     O_R   0.305800 0.561530 0.132730 -0.545660
O9    O     O_R   0.867340 0.561470 0.694210 -0.536158
O10   O     O_R   0.132660 0.438530 0.305790 -0.550421
O11   O     O_R   0.867310 0.438430 0.867270 -0.550528
O12   O     O_3   0.249990 0.500020 0.250010 -0.442758
O13   O     O_R   0.132690 0.561570 0.132730 -0.549798
O14   O     O_R   0.694200 0.438520 0.571220 -0.518564
O15   O     O_R   0.305800 0.561480 0.428780 -0.519131
O16   O     O_R   0.867340 0.561440 0.867270 -0.534819
O17   O     O_R   0.132660 0.438560 0.132730 -0.535957
O18   O     O_R   0.571190 0.561530 0.694210 -0.568019
O19   O     O_R   0.428810 0.438470 0.305790 -0.564283
O20   O     O_3   0.604877 0.559211 0.475835 -0.552060
O21   O     O_3   0.395427 0.440806 0.525454 -0.554517
O22   O     O_3   0.476927 0.923415 0.832985 -0.576710
O23   O     O_R   0.571190 0.561490 0.867270 -0.555125
O24   O     O_3   0.537661 0.072927 0.156010 -0.553028
O25   O     O_3   0.321252 0.074443 0.022339 -0.547709
O26   O     O_3   0.678658 0.925096 0.968802 -0.508706
O27   O     O_R   0.428810 0.438510 0.132730 -0.555144
O28   O     O_R   0.867310 0.438490 0.571220 -0.546153
O29   O     O_R   0.132690 0.561510 0.428780 -0.542097
O30   O     O_R   0.867280 0.265380 0.694210 -0.540462
O31   O     O_R   0.132720 0.734620 0.305790 -0.539642
O32   O     O_R   0.694250 0.734550 0.867270 -0.483879
Zn1   Zn    Zn3+2 0.618190 0.587870 0.793920 0.907746
Zn2   Zn    Zn3+2 0.381810 0.412130 0.206080 0.911239
Zn3   Zn    Zn3+2 0.793940 0.412090 0.793920 0.923349
Zn4   Zn    Zn3+2 0.206060 0.587910 0.206080 0.923983
Zn5   Zn    Zn3+2 0.793970 0.587840 0.793920 0.974278
Zn6   Zn    Zn3+2 0.206030 0.412160 0.206080 0.940979
Zn7   Zn    Zn3+2 0.793940 0.412130 0.618200 0.939397
Zn8   Zn    Zn3+2 0.206060 0.587870 0.381800 0.937656

loop_
_geom_bond_atom_site_label_1
_geom_bond_atom_site_label_2
_ccdc_geom_bond_type
C102  H62   S    
C15   C18   S    
C96   H50   S    
C35   C41   S    
C93   C94   S    
C14   H14   S    
C74   H24   S    
C27   C29   S    
C27   H23   S    
C73   C74   A    
O2    Zn6   S    
C93   H41   S    
C95   C96   S    
C5    H77   S    
C105  H70   S    
O11   Zn3   S    
C81   C82   A    
C7    C8    A    
C104  H68   S    
C56   O11   A    
C13   C65   S    
C77   C78   A    
C27   C33   S    
C31   C67   S    
C79   H28   S    
C59   C64   S    
C10   H82   S    
C15   H15   S    
O13   Zn4   S    
C83   C84   A    
C34   C40   S    
C97   H51   S    
C7    H79   S    
C1    O3    A    
C65   C98   S    
C37   C40   S    
C46   H4    S    
C69   C70   A    
C49   O7    A    
C86   C88   A    
O15   Zn8   S    
C106  C107  A    
C58   O14   A    
C58   O18   A    
C94   H44   S    
C38   C57   S    
C57   O13   A    
C50   O27   A    
C103  H65   S    
C17   C20   S    
O17   Zn6   S    
C25   O32   A    
C100  H58   S    
C67   C72   A    
O8    Zn4   S    
C61   C63   S    
C2    C13   S    
C24   C29   S    
C1    C30   S    
C62   C64   S    
C102  O25   S    
C99   H53   S    
C58   C66   S    
C15   C22   S    
O4    Zn8   S    
C44   C46   S    
C68   C69   A    
O19   Zn2   S    
C107  C108  A    
C40   C80   S    
C101  H61   S    
C70   C71   A    
O1    Zn5   S    
C13   O26   S    
O12   Zn4   S    
C9    C10   A    
C32   H9    S    
C88   H35   S    
C34   C36   S    
C30   C33   S    
C44   C47   S    
C16   C106  S    
O16   Zn5   S    
O10   Zn6   S    
C44   C52   S    
C53   O28   A    
C52   H8    S    
C96   H49   S    
C63   C66   S    
C60   C66   S    
C21   O4    A    
C92   H39   S    
C36   C41   S    
C24   H56   S    
C61   O21   S    
C105  H71   S    
C9    H81   S    
C83   H31   S    
C104  C105  S    
C97   C99   S    
C59   O19   A    
C65   C87   S    
C47   C50   S    
C57   O17   A    
C5    C106  A    
C45   C47   S    
C46   C48   S    
C76   H11   S    
C74   C75   A    
C67   C68   A    
C23   C30   S    
C14   C20   S    
C35   C38   S    
C84   C85   A    
C32   C64   S    
C65   O24   S    
C39   C41   S    
C2    C54   S    
C85   H33   S    
C6    C11   A    
C87   H13   S    
C50   O8    A    
O31   Zn4   S    
C8    C9    A    
C22   H17   S    
C47   C51   S    
C93   H40   S    
C45   C52   S    
C94   H43   S    
C55   O10   A    
C21   C29   S    
C46   C51   S    
C103  H66   S    
C53   O9    A    
C34   C39   S    
C1    O30   A    
O23   Zn1   S    
C42   C45   S    
C23   C31   S    
O12   Zn8   S    
C101  H60   S    
C81   H29   S    
C97   H52   S    
C80   C85   A    
C41   C86   S    
C71   H21   S    
C99   H54   S    
C75   C77   A    
C42   H5    S    
C104  H69   S    
C56   O16   A    
C13   C76   S    
C48   C52   S    
C29   C31   S    
C19   C22   S    
C93   O20   S    
C11   H83   S    
C73   C79   A    
O3    Zn7   S    
C2    C87   S    
C39   C56   S    
C42   C48   S    
C4    H76   S    
C60   O20   S    
C104  O26   S    
C35   H2    S    
C18   C55   S    
C26   C98   S    
C54   C76   S    
C33   C73   S    
C48   C49   S    
C107  H73   S    
C23   C27   S    
C97   O22   S    
C23   H45   S    
C60   C62   S    
C103  H64   S    
C95   O21   S    
O18   Zn1   S    
C14   C16   S    
C84   H32   S    
C28   H34   S    
C77   H26   S    
C32   C60   S    
C105  H72   S    
O12   Zn2   S    
C3    C4    A    
C26   O2    A    
C68   H18   S    
C12   O25   S    
C91   C92   A    
C36   C38   S    
C43   C61   S    
C78   H27   S    
C70   H20   S    
C102  H63   S    
C15   C17   S    
C6    C17   S    
C55   O29   A    
C100  O24   S    
C16   C22   S    
C21   O31   A    
C12   C87   S    
C35   C37   S    
O14   Zn7   S    
C78   C79   A    
C12   C98   S    
C14   C19   S    
C28   C31   S    
C24   C28   S    
C32   C63   S    
C80   C81   A    
C75   H25   S    
C37   H78   S    
C72   H22   S    
C6    C7    A    
C42   C51   S    
C3    C108  A    
C94   H42   S    
C89   H36   S    
C101  H59   S    
C49   O23   A    
C24   C33   S    
C108  H74   S    
C3    H75   S    
C95   H46   S    
C34   H84   S    
O1    Zn1   S    
C28   C30   S    
C37   C39   S    
C86   C92   A    
C45   H3    S    
C82   H30   S    
C61   C64   S    
C38   C40   S    
C63   H12   S    
C19   C53   S    
C90   C91   A    
C96   H48   S    
C62   H1    S    
O7    Zn3   S    
O30   Zn3   S    
C43   C66   S    
O29   Zn8   S    
O9    Zn5   S    
C100  C101  S    
C17   C19   S    
O28   Zn7   S    
O1    Zn3   S    
C18   C20   S    
C95   H47   S    
C91   H38   S    
O27   Zn2   S    
O12   Zn6   S    
C102  C103  S    
C26   O6    A    
C51   H7    S    
C20   H16   S    
C25   O5    A    
C10   C11   A    
C43   H10   S    
C44   H6    S    
C4    C5    A    
C71   C72   A    
C88   C89   A    
C69   H19   S    
C36   H67   S    
C16   C18   S    
C82   C83   A    
C90   H37   S    
C54   O22   S    
O1    Zn7   S    
C100  H57   S    
C89   C90   A    
O32   Zn5   S    
C76   C98   S    
C8    H80   S    
C99   H55   S    
C12   C54   S    
C2    C25   S    
O6    Zn2   S    
C43   C62   S    
C59   O15   A    
O5    Zn1   S    
