data_mof_unit_13133.cif
_audit_creation_date              2013-03-05T15:42:28-0500
_audit_creation_method            fapswitch 2.2
_symmetry_space_group_name_H-M    P1
_symmetry_Int_Tables_number       1
_space_group_crystal_system       triclinic
_cell_length_a                    7.733028
_cell_length_b                    8.562714
_cell_length_c                    23.458838
_cell_angle_alpha                 91.130858
_cell_angle_beta                  85.941532
_cell_angle_gamma                 93.749165
_cell_volume                      1545.95417357

loop_
_atom_site_label
_atom_site_type_symbol
_atom_site_description
_atom_site_fract_x
_atom_site_fract_y
_atom_site_fract_z
_atom_type_partial_charge
O1    O     O_R   0.389250 0.738570 0.503790 -0.609693
O2    O     O_R   0.610750 0.261430 0.496210 -0.616116
O3    O     O_R   0.678390 0.711620 0.493890 -0.629019
O4    O     O_R   0.321610 0.288380 0.506110 -0.627005
C1    C     C_R   0.545966 0.794896 0.498527 0.967438
C2    C     C_R   0.454033 0.205105 0.501502 0.967624
O5    O     O_R   0.355400 0.513520 0.588790 -0.560907
O6    O     O_R   0.644600 0.486480 0.411210 -0.605664
O7    O     O_R   0.644550 0.486570 0.578900 -0.637758
O8    O     O_R   0.355450 0.513430 0.421100 -0.579658
C3    C     C_R   0.502905 0.502949 0.610702 0.941204
C4    C     C_R   0.497213 0.498127 0.389250 0.943725
Zn1   Zn    Zn3+2 0.306930 0.518000 0.506610 1.029640
Zn2   Zn    Zn3+2 0.693070 0.482000 0.493390 0.999431
C5    C     C_R   0.460101 0.358552 0.117038 0.667304
C6    C     C_R   0.601149 0.645206 0.880281 0.674436
N1    N     N_R   0.508225 0.490776 0.146729 -0.351274
N2    N     N_R   0.548432 0.514107 0.850889 -0.352875
C7    C     C_R   0.557918 0.628332 0.120350 0.661546
C8    C     C_R   0.487151 0.379472 0.877162 0.651288
C9    C     C_R   0.581219 0.633071 0.060587 -0.150955
C10   C     C_R   0.468109 0.373827 0.937011 -0.160543
C11   C     C_R   0.522129 0.500318 0.028811 -0.077096
C12   C     C_R   0.530730 0.505734 0.968694 -0.077382
C13   C     C_R   0.454133 0.362401 0.057283 -0.125972
C14   C     C_R   0.601553 0.642999 0.940246 -0.129607
C15   C     C_R   0.661309 0.765902 0.032210 0.246182
C16   C     C_R   0.388336 0.241145 0.965701 0.251383
C17   C     C_R   0.670928 0.771328 0.972446 0.369137
C18   C     C_R   0.382633 0.234749 0.025371 0.372661
O9    O     O_2   0.422002 0.224441 0.145748 -0.416884
O10   O     O_2   0.651335 0.775967 0.850849 -0.413363
O11   O     O_2   0.582825 0.759497 0.152378 -0.437098
O12   O     O_2   0.446213 0.252112 0.844812 -0.433541
C19   C     C_R   0.679202 0.458827 0.754296 0.383958
C20   C     C_R   0.662338 0.512793 0.235125 0.382707
C21   C     C_R   0.659819 0.453553 0.695577 -0.285512
C22   C     C_R   0.653627 0.520169 0.294553 -0.278157
H1    H     H_    0.760775 0.405548 0.667414 0.225871
H2    H     H_    0.773034 0.543313 0.315612 0.247945
C23   C     C_R   0.512521 0.509377 0.672809 -0.207096
C24   C     C_R   0.494384 0.495266 0.326839 -0.210731
C25   C     C_R   0.382258 0.573360 0.709718 0.408456
C26   C     C_R   0.340166 0.463899 0.298579 0.392502
C27   C     C_R   0.400460 0.577397 0.768090 -0.118662
C28   C     C_R   0.348269 0.460822 0.239241 -0.103810
H3    H     H_    0.299519 0.623522 0.796817 0.219036
H4    H     H_    0.230270 0.439041 0.217289 0.235827
C29   C     C_R   0.546107 0.520319 0.790412 0.079402
C30   C     C_R   0.507185 0.485471 0.207516 0.073277
C31   C     C_2   0.570269 0.958350 0.497683 -0.344057
C32   C     C_2   0.429728 0.041653 0.502401 -0.332269
H5    H     H_    0.702924 0.009582 0.493174 0.187039
H6    H     H_    0.297073 0.990421 0.506917 0.189033
N3    N     N_2   0.950330 0.457950 0.484560 -0.156075
N4    N     N_2   0.049670 0.542050 0.515440 -0.156828
H7    H     H_    0.013797 0.380674 0.457683 0.234087
H8    H     H_    0.986056 0.618413 0.542698 0.214189
N5    N     N_R   0.748144 0.889957 0.063473 0.283781
O13   O     O_R   0.885350 0.862864 0.089846 -0.229673
O14   O     O_R   0.696965 0.031588 0.062835 -0.269869
N6    N     N_R   0.300632 0.116742 0.934958 0.282195
O15   O     O_R   0.357399 0.976922 0.933372 -0.290160
O16   O     O_R   0.156601 0.140920 0.911985 -0.227927
Cl1   Cl    Cl    0.785281 0.937130 0.940264 -0.326886
Cl2   Cl    Cl    0.268038 0.069711 0.058040 -0.337136
N7    N     N_R   0.831770 0.400180 0.776300 0.250302
O17   O     O_R   0.882135 0.445372 0.826091 -0.334168
O18   O     O_R   0.928577 0.308630 0.744870 -0.308412
N8    N     N_R   0.828351 0.533013 0.203458 0.235123
O19   O     O_R   0.860520 0.453347 0.156516 -0.341365
O20   O     O_R   0.952795 0.622554 0.223707 -0.323554
Cl3   Cl    Cl    0.196045 0.653865 0.686083 -0.516327
Cl4   Cl    Cl    0.134509 0.422463 0.334294 -0.576645

loop_
_geom_bond_atom_site_label_1
_geom_bond_atom_site_label_2
_geom_bond_distance
_ccdc_geom_bond_type
N1    C30   1.427046 S    
C19   C29   1.408615 A    
O5    C3    1.293005 A    
O7    Zn2   2.014572 S    
C5    O9    1.348079 S    
N6    O15   1.300815 A    
C19   N7    1.443786 S    
C15   C17   1.400220 A    
C25   C27   1.385967 A    
N2    C29   1.422189 S    
C28   C30   1.396950 A    
C27   C29   1.395421 A    
O6    C4    1.293974 A    
Zn1   N4    2.009127 S    
C8    O12   1.349683 S    
N3    N4    1.272520 D    
C20   C22   1.391343 A    
Zn2   N3    2.009125 S    
C9    C15   1.414141 A    
C20   C30   1.407497 A    
N5    O13   1.301199 A    
C21   H1    1.083133 S    
C6    N2    1.360565 A    
C15   N5    1.436262 S    
C22   H2    1.082937 S    
O7    C3    1.294731 A    
C18   Cl2   1.775535 S    
O3    Zn2   1.976598 S    
C24   C26   1.413110 A    
O6    Zn2   1.991389 S    
O2    C2    1.273319 A    
C17   Cl1   1.775151 S    
O8    C4    1.294683 A    
C10   C12   1.417362 A    
C16   C18   1.399399 A    
N7    O17   1.300996 A    
C10   C16   1.415637 A    
C32   H6    1.087927 S    
C3    C23   1.463854 S    
N2    C8    1.359684 A    
N3    H7    1.028814 S    
C9    C11   1.415440 A    
C6    C14   1.407441 A    
C20   N8    1.439082 S    
O2    Zn2   1.954087 S    
O1    C1    1.273294 A    
N5    O14   1.300741 A    
N8    O19   1.301398 A    
C28   H4    1.083090 S    
C8    C10   1.402747 A    
C11   C12   1.408653 A    
C4    C24   1.465484 S    
C31   C32   1.335449 D    
C22   C24   1.405542 A    
O3    C1    1.282817 A    
O5    Zn1   1.991389 S    
C11   C13   1.420372 A    
O1    Zn1   1.954087 S    
C31   H5    1.087922 S    
C19   C21   1.395650 A    
C14   C17   1.418932 A    
O4    C2    1.282793 A    
C7    O11   1.349787 S    
C27   H3    1.083867 S    
N7    O18   1.301680 A    
C13   C18   1.417094 A    
C5    N1    1.362339 A    
C6    O10   1.347856 S    
N1    C7    1.361573 A    
N6    O16   1.301294 A    
C5    C13   1.406908 A    
C26   C28   1.388763 A    
C2    C32   1.400299 S    
C21   C23   1.406641 A    
C25   Cl3   1.764682 S    
N8    O20   1.301314 A    
C1    C31   1.400279 S    
C23   C25   1.412281 A    
C12   C14   1.421916 A    
O4    Zn1   1.976598 S    
N4    H8    1.029308 S    
C26   Cl4   1.762499 S    
C7    C9    1.401837 A    
O8    Zn1   2.014572 S    
C16   N6    1.435008 S    
