data_mof_unit_50171.cif
_audit_creation_date              2012-12-10T20:36:42-0500
_audit_creation_method            fapswitch 2.2
_symmetry_space_group_name_H-M    P1
_symmetry_Int_Tables_number       1
_space_group_crystal_system       triclinic
_cell_length_a                    10.475667
_cell_length_b                    10.741418
_cell_length_c                    9.983204
_cell_angle_alpha                 91.061596
_cell_angle_beta                  85.913982
_cell_angle_gamma                 89.466512
_cell_volume                      1120.23393619

loop_
_atom_site_label
_atom_site_type_symbol
_atom_type_description
_atom_site_fract_x
_atom_site_fract_y
_atom_site_fract_z
_atom_type_partial_charge
C1    C     C_R   0.497649 0.260080 0.498093 0.862370
C2    C     C_3   0.974601 0.478121 0.368688 -0.183225
C3    C     C_3   0.049328 0.382328 0.445691 0.209839
C4    C     C_3   0.122353 0.488047 0.508198 -0.023179
C5    C     C_R   0.477909 0.066613 0.616685 0.041548
C6    C     C_R   0.482522 0.127618 0.494159 -0.182456
C7    C     C_R   0.470089 0.057855 0.372784 0.108638
C8    C     C_R   0.464363 0.929488 0.380641 -0.240508
C9    C     C_R   0.482458 0.870676 0.501746 -0.178662
C10   C     C_R   0.481819 0.939437 0.620565 0.078488
C11   C     C_3   0.576457 0.940250 0.726343 0.090767
C12   C     C_R   0.257715 0.495434 0.503662 0.851935
C13   C     C_3   0.563655 0.081757 0.728854 0.102931
C14   C     C_R   0.397512 0.542052 0.079500 0.181821
C15   C     C_R   0.608930 0.471989 0.059069 0.181986
C16   C     C_R   0.604882 0.464155 0.917153 -0.081780
C17   C     C_R   0.399893 0.550159 0.938571 0.265927
C18   C     C_3   0.260430 0.518168 0.942545 -0.117637
C19   C     C_3   0.263796 0.496761 0.092941 -0.493183
C20   C     C_R   0.497847 0.739342 0.501004 0.899529
C21   C     C_R   0.742404 0.494984 0.496053 0.853758
C22   C     C_3   0.025521 0.495995 0.629590 -0.193464
C23   C     C_3   0.950053 0.389867 0.566521 -0.183684
C24   C     C_3   0.877932 0.487811 0.490687 0.009883
C25   C     C_3   0.950641 0.593825 0.554364 -0.146978
C26   C     C_3   0.049087 0.584949 0.432220 -0.211713
H1    H     H_    0.905223 0.309811 0.619945 0.128118
H2    H     H_    0.672756 0.907312 0.685503 0.083477
H3    H     H_    0.654536 0.129759 0.698570 0.084053
H4    H     H_    0.689124 0.436662 0.854292 0.152819
H5    H     H_    0.242722 0.431613 0.884090 0.176085
H6    H     H_    0.199451 0.556964 0.159541 0.219350
H7    H     H_    0.259900 0.396428 0.117786 0.188225
H8    H     H_    0.046914 0.494330 0.735675 0.135224
H9    H     H_    0.906509 0.681170 0.598231 0.136626
H10   H     H_    0.092522 0.665587 0.378601 0.139310
H11   H     H_    0.957903 0.461960 0.261924 0.146154
H12   H     H_    0.458221 0.875227 0.288697 0.192916
N1    N     N_R   0.499140 0.499140 0.142800 -0.118808
N2    N     N_R   0.499140 0.499180 0.857150 -0.120116
O1    O     O_R   0.500020 0.316790 0.614690 -0.582889
O2    O     O_R   0.500000 0.316760 0.385350 -0.625908
O3    O     O_R   0.313960 0.499990 0.614650 -0.630172
O4    O     O_R   0.313940 0.499950 0.385310 -0.628892
O5    O     O_R   0.500000 0.683240 0.614650 -0.576441
O6    O     O_R   0.499980 0.683210 0.385310 -0.628261
O7    O     O_R   0.686060 0.500050 0.614690 -0.626887
O8    O     O_R   0.686040 0.500010 0.385350 -0.630264
Zn1   Zn    Zn3+2 0.500010 0.500020 0.653130 0.981755
Zn2   Zn    Zn3+2 0.499990 0.499980 0.346870 0.928825
Br1   Br    Br    0.464755 0.159470 0.881017 -0.547767
C27   C     C_3   0.741573 0.473840 0.106226 -0.388317
C28   C     C_3   0.780048 0.609881 0.128932 -0.778115
H13   H     H_    0.771370 0.662644 0.035222 0.251621
H14   H     H_    0.717420 0.656236 0.209455 0.289142
H15   H     H_    0.880928 0.617039 0.153842 0.219638
H16   H     H_    0.750808 0.410346 0.190158 0.224339
H17   H     H_    0.812107 0.434084 0.028001 0.158165
C29   C     C_3   0.173459 0.629103 0.907534 -0.374457
C30   C     C_3   0.183974 0.749498 0.991302 -0.784699
H18   H     H_    0.129219 0.742270 0.090159 0.224633
H19   H     H_    0.284434 0.771636 0.007943 0.295694
H20   H     H_    0.142136 0.828234 0.937985 0.253251
H21   H     H_    0.194964 0.651381 0.800144 0.234198
H22   H     H_    0.072251 0.599436 0.921494 0.197867
C31   C     C_3   0.110254 0.261008 0.388379 -0.419824
C32   C     C_3   0.010463 0.175659 0.332356 -0.879466
H23   H     H_    0.936767 0.151043 0.412843 0.250680
H24   H     H_    0.963152 0.221925 0.250169 0.252614
H25   H     H_    0.057820 0.088663 0.291592 0.259487
H26   H     H_    0.184306 0.282456 0.307292 0.209005
H27   H     H_    0.157698 0.212480 0.469133 0.206601
C33   C     C_3   0.482125 0.109883 0.231928 -0.298877
C34   C     C_3   0.622860 0.134147 0.188035 -0.757327
H28   H     H_    0.630074 0.190036 0.095734 0.267019
H29   H     H_    0.672108 0.185380 0.266582 0.234873
H30   H     H_    0.674180 0.044177 0.166948 0.254311
H31   H     H_    0.445632 0.042252 0.158518 0.237996
H32   H     H_    0.420321 0.193093 0.222404 0.223990
Br2   Br    Br    0.518577 0.855420 0.889225 -0.543527

loop_
_geom_bond_atom_site_label_1
_geom_bond_atom_site_label_2
_ccdc_geom_bond_type
C33   C34   S    
C3    C23   S    
O2    Zn2   S    
C7    C8    A    
C7    C33   S    
C28   H13   S    
C29   H21   S    
C34   H29   S    
C30   H20   S    
C13   H3    S    
C12   O3    A    
C5    C6    A    
C16   H4    S    
N2    Zn1   S    
C30   H19   S    
C18   C19   S    
O4    Zn2   S    
C14   N1    A    
C13   Br1   S    
C31   H27   S    
C8    C9    A    
C34   H30   S    
C33   H31   S    
C23   H1    S    
C4    C12   S    
C9    C10   A    
C5    C13   S    
C20   O5    A    
C21   O8    A    
O8    Zn2   S    
C31   C32   S    
C29   C30   S    
C14   C17   A    
C8    H12   S    
C19   H6    S    
O1    Zn1   S    
C28   H14   S    
C22   H8    S    
C34   H28   S    
C32   H23   S    
C24   C25   S    
O7    Zn1   S    
C11   Br2   S    
O3    Zn1   S    
C25   C26   S    
C22   C25   S    
C1    C6    S    
C30   H18   S    
C32   H24   S    
C17   N2    A    
C4    C22   S    
C18   C29   S    
C9    C20   S    
C31   H26   S    
O5    Zn1   S    
C23   C24   S    
C17   C18   S    
C33   H32   S    
C2    C26   S    
C15   C27   S    
C15   N1    A    
C27   H17   S    
C16   N2    A    
C1    O1    A    
C25   H9    S    
C10   C11   S    
C2    C24   S    
C3    C31   S    
C3    C4    S    
C27   C28   S    
C28   H15   S    
C26   H10   S    
C14   C19   S    
C19   H7    S    
C4    C26   S    
C6    C7    A    
O6    Zn2   S    
C32   H25   S    
C2    C3    S    
C5    C10   A    
C12   O4    A    
C29   H22   S    
C11   C13   S    
C2    H11   S    
C11   H2    S    
C27   H16   S    
C1    O2    A    
N1    Zn2   S    
C21   C24   S    
C22   C23   S    
C18   H5    S    
C20   O6    A    
C15   C16   A    
C21   O7    A    
