data_mof_unit_6193.cif
_audit_creation_date              2013-03-05T15:41:37-0500
_audit_creation_method            fapswitch 2.2
_symmetry_space_group_name_H-M    P1
_symmetry_Int_Tables_number       1
_space_group_crystal_system       triclinic
_cell_length_a                    7.876069
_cell_length_b                    8.564821
_cell_length_c                    15.730268
_cell_angle_alpha                 92.080187
_cell_angle_beta                  83.47038
_cell_angle_gamma                 93.537371
_cell_volume                      1051.76790724

loop_
_atom_site_label
_atom_site_type_symbol
_atom_site_description
_atom_site_fract_x
_atom_site_fract_y
_atom_site_fract_z
_atom_type_partial_charge
O1    O     O_R   0.389240 0.738570 0.505550 -0.538978
O2    O     O_R   0.678400 0.711630 0.491050 -0.599035
C1    C     C_R   0.544969 0.794152 0.496281 0.960229
O3    O     O_R   0.355360 0.513470 0.630110 -0.601272
O4    O     O_R   0.644510 0.486530 0.615610 -0.584604
C2    C     C_R   0.498268 0.499831 0.661378 0.879064
Zn1   Zn    Zn3+2 0.306930 0.517990 0.509680 1.159990
Zn2   Zn    Zn3+2 0.693070 0.482010 0.490320 1.141681
O5    O     O_R   0.321600 0.288370 0.508950 -0.591402
O6    O     O_R   0.610760 0.261430 0.494450 -0.610529
O7    O     O_R   0.355490 0.513470 0.384390 -0.579009
O8    O     O_R   0.644640 0.486530 0.369890 -0.600631
C3    C     C_R   0.455370 0.205814 0.496990 0.805631
C4    C     C_R   0.501556 0.499126 0.338614 0.865908
C5    C     C_3   0.316791 0.545667 0.965038 0.443158
C6    C     C_3   0.649514 0.585993 0.942487 0.666054
C7    C     C_3   0.650674 0.592282 0.042467 0.627526
H1    H     H_    0.338176 0.663813 0.087690 0.226373
C8    C     C_1   0.505087 0.490862 0.249782 0.010960
C9    C     C_3   0.489932 0.478329 0.917005 -0.320441
C10   C     C_3   0.330431 0.540282 0.063836 0.028069
C11   C     C_3   0.503476 0.473200 0.082677 -0.342445
C12   C     C_3   0.531568 0.298654 0.043397 0.250468
C13   C     C_3   0.502925 0.297967 0.941976 0.257563
C14   C     C_1   0.507132 0.481709 0.174440 0.205516
C15   C     C_1   0.487971 0.486038 0.825342 0.180923
C16   C     C_1   0.492277 0.493197 0.750091 0.002822
C17   C     C_2   0.565418 0.958040 0.498768 -0.324856
H2    H     H_    0.680611 0.009216 0.523255 0.206098
C18   C     C_2   0.436597 0.042224 0.480964 0.300330
N1    N     N_2   0.950340 0.457950 0.477370 0.044609
N2    N     N_2   0.049660 0.542050 0.522630 0.038665
O9    O     O_3   0.171609 0.454209 0.944756 -0.611728
H3    H     H_    0.160312 0.466670 0.883214 0.377042
N3    N     N_R   0.177168 0.473515 0.115742 0.290479
O10   O     O_R   0.104162 0.338695 0.097244 -0.139650
O11   O     O_R   0.113633 0.550729 0.183603 -0.334472
N4    N     N_R   0.707212 0.258555 0.058447 0.259542
O12   O     O_R   0.733609 0.216940 0.134485 -0.273998
O13   O     O_R   0.839931 0.273948 0.001435 -0.160675
O14   O     O_3   0.301060 0.976028 0.440473 -0.649849
H4    H     H_    0.236920 0.060491 0.420223 0.398817
N5    N     N_R   0.012155 0.315682 0.448450 0.292658
O15   O     O_R   0.970600 0.193173 0.494431 -0.348750
O16   O     O_R   0.065756 0.296155 0.367719 -0.316515
N6    N     N_R   0.983399 0.679695 0.556695 0.307402
O17   O     O_R   0.009879 0.806036 0.512631 -0.283963
O18   O     O_R   0.939828 0.692594 0.638761 -0.339161
N7    N     N_R   0.290036 0.708988 0.942685 0.252324
O19   O     O_R   0.321681 0.752805 0.863807 -0.324016
O20   O     O_R   0.181538 0.788927 0.992686 -0.251781
O21   O     O_3   0.803261 0.526686 0.903242 -0.657651
H5    H     H_    0.895971 0.609676 0.907598 0.402525
O22   O     O_3   0.638951 0.739651 0.914166 -0.666989
H6    H     H_    0.678783 0.741756 0.851980 0.385275
O23   O     O_3   0.620918 0.745917 0.074977 -0.707610
H7    H     H_    0.725991 0.813477 0.058846 0.426041
O24   O     O_3   0.812515 0.554985 0.063885 -0.650904
H8    H     H_    0.819348 0.585739 0.124875 0.386666
N8    N     N_R   0.345055 0.207933 0.918907 0.262617
O25   O     O_R   0.220477 0.156708 0.973962 -0.163503
O26   O     O_R   0.330066 0.176061 0.838390 -0.302794
N9    N     N_R   0.643493 0.217225 0.890415 0.280424
O27   O     O_R   0.660468 0.070447 0.904467 -0.226260
O28   O     O_R   0.726482 0.274226 0.821056 -0.282017
N10   N     N_R   0.417673 0.176124 0.088427 0.271798
O29   O     O_R   0.340383 0.200283 0.164932 -0.290894
O30   O     O_R   0.435801 0.030988 0.063164 -0.218864

loop_
_geom_bond_atom_site_label_1
_geom_bond_atom_site_label_2
_geom_bond_distance
_ccdc_geom_bond_type
O4    Zn2   1.963888 S    
Zn1   O7    1.963888 S    
N5    O15   1.300044 A    
N9    O28   1.301171 A    
C18   O14   1.385792 S    
C10   N3    1.474905 S    
H1    C10   1.110109 S    
O14   H4    0.989145 S    
N1    N5    1.382500 S    
N10   O30   1.302549 A    
C7    C11   1.586982 S    
C13   N8    1.495437 S    
C7    O24   1.412828 S    
Zn2   O8    1.976669 S    
C17   C18   1.340628 D    
O2    C1    1.295570 A    
O6    C3    1.282446 A    
O1    Zn1   1.960069 S    
C10   C11   1.573629 S    
O21   H5    0.993431 S    
N8    O26   1.302905 A    
N4    O13   1.301035 A    
N5    O16   1.300095 A    
C7    O23   1.417697 S    
C17   H2    1.087094 S    
C15   C16   1.184055 T    
O4    C2    1.296002 A    
C9    C15   1.447667 S    
O3    Zn1   1.976670 S    
C12   N10   1.483597 S    
O3    C2    1.291797 A    
C6    C9    1.592313 S    
N3    O11   1.302046 A    
O9    H3    0.992338 S    
N10   O29   1.300958 A    
C13   N9    1.487044 S    
N6    O18   1.300004 A    
C5    N7    1.487836 S    
C5    C9    1.610650 S    
C8    C14   1.183242 T    
O7    C4    1.296026 A    
C6    O22   1.414877 S    
C6    C7    1.572721 S    
C12   C13   1.636208 S    
N9    O27   1.301822 A    
C12   N4    1.492243 S    
C9    C13   1.619805 S    
C3    C18   1.416266 S    
C5    C10   1.572496 S    
N4    O12   1.302896 A    
O23   H7    0.993924 S    
C11   C14   1.446116 S    
Zn2   O6    1.960068 S    
N7    O19   1.301687 A    
C6    O21   1.410171 S    
Zn1   O5    1.976692 S    
O5    C3    1.297141 A    
O22   H6    0.993182 S    
C1    C17   1.402609 S    
Zn1   N2    2.035770 S    
N7    O20   1.303020 A    
O24   H8    0.992137 S    
N6    O17   1.299452 A    
Zn2   N1    2.035770 S    
N2    N6    1.384115 S    
C4    C8    1.393774 S    
C5    O9    1.406126 S    
N1    N2    1.287450 D    
O2    Zn2   1.976692 S    
C11   C12   1.615025 S    
C2    C16   1.394002 S    
O8    C4    1.291752 A    
N8    O25   1.298624 A    
O1    C1    1.282413 A    
N3    O10   1.296300 A    
