data_mof_unit_34458.cif
_audit_creation_date              2012-12-10T18:13:34-0500
_audit_creation_method            fapswitch 2.2
_symmetry_space_group_name_H-M    P1
_symmetry_Int_Tables_number       1
_space_group_crystal_system       triclinic
_cell_length_a                    12.594248
_cell_length_b                    13.136831
_cell_length_c                    16.719201
_cell_angle_alpha                 91.092357
_cell_angle_beta                  98.073942
_cell_angle_gamma                 97.342053
_cell_volume                      2714.36216439

loop_
_atom_site_label
_atom_site_type_symbol
_atom_type_description
_atom_site_fract_x
_atom_site_fract_y
_atom_site_fract_z
_atom_type_partial_charge
C1    C     C_R   0.559805 0.691336 0.512432 0.860413
C2    C     C_R   0.471525 0.481505 0.734529 -0.033996
C3    C     C_R   0.289880 0.067102 0.557021 0.389275
C4    C     C_R   0.511421 0.492040 0.349067 0.856319
C5    C     C_R   0.403762 0.200550 0.499972 -0.117503
C6    C     C_R   0.700093 0.838059 0.503515 -0.185311
C7    C     C_R   0.729925 0.942806 0.498320 -0.125295
C8    C     C_R   0.655382 0.010393 0.506649 -0.194702
C9    C     C_R   0.550471 0.973893 0.524228 0.110406
C10   C     C_R   0.527511 0.870081 0.542407 0.088853
C11   C     C_R   0.467543 0.036916 0.524151 0.030387
C12   C     C_R   0.601680 0.447245 0.232907 -0.195444
C13   C     C_R   0.370503 0.001676 0.555477 0.070974
C14   C     C_R   0.357483 0.902850 0.585199 -0.183949
C15   C     C_R   0.434684 0.837905 0.578603 -0.219072
C16   C     C_R   0.439860 0.308693 0.492147 0.890449
C17   C     C_R   0.478006 0.133479 0.491476 -0.257700
C18   C     C_R   0.308057 0.167072 0.530560 -0.243525
C19   C     C_R   0.597721 0.800965 0.522934 -0.121117
C20   C     C_R   0.900751 0.347160 0.610178 -0.295519
C21   C     C_R   0.209734 0.629108 0.406067 0.020774
C22   C     C_R   0.107288 0.657941 0.386857 -0.237118
C23   C     C_R   0.543133 0.429590 0.866748 -0.144926
C24   C     C_R   0.022184 0.609159 0.422556 -0.188253
C25   C     C_R   0.039597 0.530759 0.477896 0.017470
C26   C     C_R   0.145646 0.504336 0.495383 0.238156
C27   C     C_R   0.956655 0.477886 0.516518 -0.012483
C28   C     C_R   0.485673 0.499987 0.650794 0.843710
C29   C     C_R   0.981390 0.400161 0.571600 0.191539
C30   C     C_R   0.086248 0.375924 0.587591 -0.278053
C31   C     C_R   0.167026 0.427363 0.549901 -0.228459
C32   C     C_R   0.849329 0.498552 0.502767 -0.047073
C33   C     C_R   0.796332 0.371348 0.593860 0.003528
C34   C     C_R   0.559159 0.459847 0.789920 -0.203948
C35   C     C_R   0.506550 0.458001 0.265123 -0.034842
C36   C     C_R   0.405563 0.421627 0.220460 -0.203756
C37   C     C_R   0.399531 0.377974 0.143659 -0.157625
C38   C     C_R   0.494339 0.372710 0.109680 0.201655
C39   C     C_R   0.595470 0.404725 0.155306 -0.166054
C40   C     C_R   0.367868 0.474567 0.757493 -0.198684
C41   C     C_R   0.351774 0.443761 0.834276 -0.168194
C42   C     C_R   0.438738 0.419462 0.888869 0.204909
C43   C     C_2   0.489484 0.351923 0.023100 -0.237060
C44   C     C_2   0.420427 0.397128 0.971525 -0.224539
Cl1   Cl    Cl    0.167643 0.029416 0.594969 -0.663373
H1    H     H_    0.331114 0.425097 0.245314 0.161933
H2    H     H_    0.732470 0.331115 0.622789 0.138549
H3    H     H_    0.639998 0.465368 0.773787 0.158340
H4    H     H_    0.106061 0.316811 0.629445 0.177931
H5    H     H_    0.918282 0.287695 0.652235 0.157628
H6    H     H_    0.822475 0.555544 0.462041 0.122348
H7    H     H_    0.276445 0.666840 0.378767 0.143805
H8    H     H_    0.944380 0.634541 0.405712 0.134579
H9    H     H_    0.093878 0.717974 0.344577 0.154462
H10   H     H_    0.245720 0.405243 0.564735 0.211684
H11   H     H_    0.298695 0.490736 0.715797 0.164446
H12   H     H_    0.271336 0.438944 0.851154 0.131252
H13   H     H_    0.355049 0.431346 0.993052 0.150811
H14   H     H_    0.669239 0.401424 0.129454 0.126944
H15   H     H_    0.613248 0.416968 0.908770 0.124815
H16   H     H_    0.680456 0.472447 0.267340 0.150592
H17   H     H_    0.555709 0.318243 0.002626 0.148842
H18   H     H_    0.320729 0.351270 0.109870 0.132972
H19   H     H_    0.249878 0.219450 0.537199 0.179980
H20   H     H_    0.286938 0.874070 0.612264 0.205705
H21   H     H_    0.545887 0.160140 0.461049 0.161286
H22   H     H_    0.755910 0.785968 0.490124 0.158474
H23   H     H_    0.682881 0.090832 0.501140 0.139258
H24   H     H_    0.809507 0.971441 0.484432 0.166481
H25   H     H_    0.421496 0.762543 0.603257 0.174707
N1    N     N_R   0.774070 0.445420 0.541180 -0.101874
N2    N     N_R   0.226730 0.554050 0.459240 -0.132038
O1    O     O_R   0.631480 0.627510 0.519670 -0.610268
O2    O     O_R   0.455770 0.662400 0.493360 -0.614075
O3    O     O_R   0.598240 0.480510 0.398910 -0.616456
O4    O     O_R   0.422540 0.515400 0.372600 -0.618873
O5    O     O_R   0.544230 0.337600 0.506640 -0.613238
O6    O     O_R   0.368520 0.372490 0.480330 -0.634773
O7    O     O_R   0.577460 0.484600 0.627400 -0.613019
O8    O     O_R   0.401760 0.519490 0.601090 -0.643203
Zn1   Zn    Zn3+2 0.617320 0.476700 0.517570 0.942333
Zn2   Zn    Zn3+2 0.382680 0.523300 0.482430 0.926412

loop_
_geom_bond_atom_site_label_1
_geom_bond_atom_site_label_2
_ccdc_geom_bond_type
C40   C41   A    
C27   C29   A    
C26   N2    A    
C41   C42   A    
C35   C36   A    
C7    C8    A    
C22   H9    S    
C6    C19   A    
C17   H21   S    
C29   C30   A    
C23   C42   A    
C1    O2    A    
C36   C37   A    
C10   C15   A    
C30   C31   A    
C5    C17   A    
C3    C18   A    
C16   O5    A    
C28   O7    A    
C5    C16   S    
C20   H5    S    
C44   H13   S    
C8    C9    A    
C4    O3    A    
C36   H1    S    
C9    C10   A    
C3    C13   A    
C2    C34   A    
C4    C35   S    
C26   C31   A    
C13   C14   A    
C42   C44   S    
O2    Zn2   S    
O1    Zn1   S    
C37   H18   S    
C32   N1    A    
C20   C29   A    
C23   H15   S    
C1    C19   S    
C21   N2    A    
C24   C25   A    
O8    Zn2   S    
O4    Zn2   S    
O7    Zn1   S    
O3    Zn1   S    
C5    C18   A    
C40   H11   S    
C25   C26   A    
C3    Cl1   S    
C43   C44   D    
C32   H6    S    
C37   C38   A    
O6    Zn2   S    
O5    Zn1   S    
C10   C19   A    
C23   C34   A    
C39   H14   S    
C12   C35   A    
C9    C11   A    
C20   C33   A    
C6    H22   S    
C30   H4    S    
C8    H23   S    
C33   H2    S    
C22   C24   A    
C34   H3    S    
C15   H25   S    
C11   C17   A    
C27   C32   A    
C7    H24   S    
C6    C7    A    
C25   C27   A    
C1    O1    A    
C12   C39   A    
C24   H8    S    
C41   H12   S    
C38   C43   S    
C12   H16   S    
C11   C13   A    
C18   H19   S    
C38   C39   A    
C14   H20   S    
C16   O6    A    
C28   O8    A    
C4    O4    A    
C33   N1    A    
C2    C40   A    
C14   C15   A    
C2    C28   S    
C31   H10   S    
C21   C22   A    
C21   H7    S    
N2    Zn2   S    
C43   H17   S    
N1    Zn1   S    
