data_mof_unit_36511.cif
_audit_creation_date              2012-12-10T17:02:56-0500
_audit_creation_method            fapswitch 2.2
_symmetry_space_group_name_H-M    P1
_symmetry_Int_Tables_number       1
_space_group_crystal_system       triclinic
_cell_length_a                    9.844706
_cell_length_b                    11.021209
_cell_length_c                    13.410464
_cell_angle_alpha                 94.969169
_cell_angle_beta                  81.12883
_cell_angle_gamma                 111.082795
_cell_volume                      1340.63814327

loop_
_atom_site_label
_atom_site_type_symbol
_atom_type_description
_atom_site_fract_x
_atom_site_fract_y
_atom_site_fract_z
_atom_type_partial_charge
C1    C     C_R   0.555352 0.745253 0.509149 0.853006
C2    C     C_R   0.438991 0.505262 0.972755 0.084548
C3    C     C_R   0.479107 0.543279 0.870934 0.093625
C4    C     C_R   0.549876 0.541362 0.037956 0.050733
C5    C     C_R   0.695129 0.625155 0.003816 0.116180
C6    C     C_R   0.726110 0.673947 0.906782 -0.257456
C7    C     C_R   0.619747 0.635343 0.842299 -0.206141
C8    C     C_R   0.520581 0.495454 0.136125 -0.246649
C9    C     C_R   0.769500 0.617380 0.167421 -0.174284
C10   C     C_R   0.376639 0.489252 0.800706 -0.109227
C11   C     C_2   0.581998 0.883718 0.522296 -0.342963
C12   C     C_R   0.423513 0.494062 0.690818 0.760431
C13   C     C_2   0.472105 0.928052 0.522800 -0.284162
C14   C     C_2   0.410219 0.114878 0.498652 -0.447289
C15   C     C_2   0.496281 0.066790 0.539068 0.496665
C16   C     C_2   0.931161 0.500540 0.485212 0.259578
C17   C     C_2   0.076455 0.508326 0.511290 -0.049757
C18   C     C_R   0.442497 0.254498 0.496265 0.879351
C19   C     C_R   0.578183 0.513450 0.309630 0.808374
C20   C     C_R   0.805409 0.660569 0.068744 0.154072
C21   C     C_R   0.626429 0.537875 0.201984 -0.109832
C22   C     C_R   0.230239 0.416769 0.835667 -0.198913
C23   C     C_R   0.186614 0.391941 0.937488 -0.147933
C24   C     C_R   0.289315 0.433103 0.005227 -0.186168
Cu1   Cu    Cu3+1 0.362000 0.479240 0.482530 0.937203
Cu2   Cu    Cu3+1 0.638000 0.520760 0.517470 0.932238
H1    H     H_    0.852145 0.650796 0.218227 0.161782
H2    H     H_    0.363708 0.862577 0.508255 0.162479
H3    H     H_    0.315492 0.049864 0.464803 0.117256
H4    H     H_    0.691196 0.949319 0.534690 0.181409
H5    H     H_    0.119487 0.568356 0.575781 0.125323
H6    H     H_    0.114408 0.392076 0.394514 0.229008
H7    H     H_    0.880562 0.595051 0.610984 0.164129
H8    H     H_    0.832994 0.742513 0.879345 0.140282
H9    H     H_    0.414681 0.427465 0.164520 0.152545
H10   H     H_    0.149739 0.376130 0.783784 0.154912
H11   H     H_    0.246902 0.409060 0.082742 0.132402
H12   H     H_    0.072951 0.336673 0.963758 0.141671
H13   H     H_    0.648959 0.681548 0.770351 0.164461
N1    N     N_2   0.845330 0.551960 0.543750 -0.301048
N2    N     N_2   0.154690 0.448120 0.456210 -0.283581
O1    O     O_R   0.426290 0.668220 0.490680 -0.568848
O2    O     O_R   0.659360 0.703290 0.520190 -0.579956
O3    O     O_R   0.326580 0.473880 0.629020 -0.578787
O4    O     O_R   0.559660 0.508940 0.658530 -0.588594
O5    O     O_R   0.340640 0.296710 0.479810 -0.578351
O6    O     O_R   0.573710 0.331780 0.509320 -0.528728
O7    O     O_R   0.440340 0.491060 0.341470 -0.571177
O8    O     O_R   0.673420 0.526120 0.370980 -0.599989
N3    N     N_3   0.894044 0.439119 0.389517 -0.598377
H14   H     H_    0.905723 0.509735 0.338636 0.233044
H15   H     H_    0.790431 0.367057 0.396431 0.277675
N4    N     N_3   0.953729 0.742998 0.037611 -0.603360
H16   H     H_    0.996179 0.699811 0.973927 0.218600
H17   H     H_    0.953440 0.832902 0.018608 0.214354
O9    O     O_3   0.616676 0.148223 0.584137 -0.577572
C25   C     C_3   0.596849 0.122608 0.688155 0.044168
H18   H     H_    0.706620 0.138881 0.709966 0.157154
H19   H     H_    0.527499 0.020174 0.706944 0.131841
C26   C     C_3   0.532672 0.216807 0.751030 -0.323538
H20   H     H_    0.608415 0.318291 0.737402 0.248751
H21   H     H_    0.424885 0.205198 0.727915 0.204063
C27   C     C_3   0.511465 0.192119 0.863560 -0.920276
H22   H     H_    0.436155 0.090991 0.879215 0.255138
H23   H     H_    0.462643 0.260174 0.906912 0.270550
H24   H     H_    0.618746 0.207893 0.889248 0.253953

loop_
_geom_bond_atom_site_label_1
_geom_bond_atom_site_label_2
_ccdc_geom_bond_type
Cu1   O1    S    
C2    C4    A    
H6    N2    S    
C27   H23   S    
C13   H2    S    
C6    C7    A    
C12   O4    A    
C23   H12   S    
C22   H10   S    
C14   C18   S    
C9    C20   A    
N3    H15   S    
C1    C11   S    
C4    C8    A    
C7    H13   S    
C23   C24   A    
C9    C21   A    
C18   O6    A    
N4    H17   S    
C24   H11   S    
C27   H24   S    
C12   O3    A    
C3    C10   A    
N4    H16   S    
C10   C22   A    
C11   C13   D    
Cu1   O7    S    
Cu2   N1    S    
C25   H18   S    
C16   C17   S    
C10   C12   S    
Cu2   O6    S    
C16   N1    D    
C26   C27   S    
C18   O5    A    
Cu1   O3    S    
C19   C21   S    
C16   N3    S    
Cu2   O2    S    
N3    H14   S    
C3    C7    A    
C13   C15   S    
C2    C24   A    
C5    C6    A    
C17   H5    S    
C15   O9    S    
C17   N2    D    
C25   H19   S    
H7    N1    S    
C14   H3    S    
C27   H22   S    
C1    O1    A    
C4    C5    A    
O9    C25   S    
C9    H1    S    
C26   H21   S    
Cu2   O8    S    
Cu1   N2    S    
C5    C20   A    
C19   O8    A    
C14   C15   D    
C26   H20   S    
C25   C26   S    
C2    C3    A    
Cu2   O4    S    
Cu1   Cu2   S    
C19   O7    A    
Cu1   O5    S    
C1    O2    A    
C22   C23   A    
C6    H8    S    
C11   H4    S    
C20   N4    S    
C8    H9    S    
C8    C21   A    
