data_mof_unit_7922.cif
_audit_creation_date              2012-12-10T21:11:31-0500
_audit_creation_method            fapswitch 2.2
_symmetry_space_group_name_H-M    P1
_symmetry_Int_Tables_number       1
_space_group_crystal_system       triclinic
_cell_length_a                    17.516837
_cell_length_b                    16.812988
_cell_length_c                    10.642164
_cell_angle_alpha                 90.011306
_cell_angle_beta                  90.658491
_cell_angle_gamma                 90.031695
_cell_volume                      3134.02012528

loop_
_atom_site_label
_atom_site_type_symbol
_atom_type_description
_atom_site_fract_x
_atom_site_fract_y
_atom_site_fract_z
_atom_type_partial_charge
C1    C     C_R   0.353122 0.499963 0.502254 0.809917
C2    C     C_R   0.646946 0.500022 0.500314 0.811756
C3    C     C_R   0.886506 0.499255 0.548958 0.171699
C4    C     C_R   0.114752 0.499981 0.558462 0.168446
C5    C     C_1   0.966674 0.499252 0.561142 -0.079208
C6    C     C_1   0.034451 0.499497 0.564245 -0.078990
C7    C     C_R   0.466250 0.832379 0.399898 0.279614
C8    C     C_R   0.536837 0.167201 0.596729 0.314693
C9    C     C_R   0.532969 0.832795 0.599737 0.278953
C10   C     C_R   0.462511 0.167411 0.403103 0.315538
C11   C     C_R   0.463208 0.747665 0.405368 0.430254
C12   C     C_R   0.535769 0.251921 0.595322 0.441870
C13   C     C_R   0.536395 0.747983 0.594832 0.430833
C14   C     C_R   0.463851 0.252065 0.404832 0.441195
C15   C     C_R   0.499656 0.875526 0.499569 -0.223154
C16   C     C_R   0.499692 0.124042 0.499720 -0.252716
C17   C     C_1   0.499557 0.963301 0.499383 0.125130
C18   C     C_1   0.499585 0.036200 0.499469 0.110155
C19   C     C_R   0.500337 0.500018 0.260537 0.881837
C20   C     C_R   0.499708 0.500031 0.739459 0.880026
C21   C     C_R   0.641642 0.499961 0.132564 -0.141555
C22   C     C_R   0.358452 0.500853 0.867387 -0.139890
C23   C     C_R   0.641178 0.501342 0.871291 -0.133834
C24   C     C_R   0.358862 0.502180 0.128628 -0.133341
C25   C     C_R   0.710483 0.500488 0.068148 -0.134689
C26   C     C_R   0.289593 0.501767 0.931672 -0.128394
C27   C     C_R   0.710247 0.501278 0.937529 -0.168592
C28   C     C_R   0.289806 0.502533 0.062289 -0.173117
C29   C     C_R   0.570640 0.500543 0.935421 0.098169
C30   C     C_R   0.429417 0.500973 0.064553 0.100769
C31   C     C_R   0.570853 0.500141 0.066540 0.060605
C32   C     C_R   0.429216 0.500604 0.933444 0.058265
C33   C     C_R   0.499835 0.500215 0.871566 -0.167259
C34   C     C_R   0.500223 0.500180 0.128425 -0.168685
C35   C     C_R   0.847601 0.571516 0.546718 -0.180158
C36   C     C_R   0.154055 0.427957 0.557705 -0.175280
C37   C     C_R   0.152602 0.572000 0.541030 -0.175574
C38   C     C_R   0.848352 0.427529 0.528831 -0.175749
C39   C     C_R   0.769281 0.571988 0.526636 -0.216146
C40   C     C_R   0.232153 0.427827 0.538057 -0.218683
C41   C     C_R   0.230691 0.572023 0.521378 -0.214594
C42   C     C_R   0.770009 0.427898 0.508781 -0.223965
C43   C     C_R   0.729847 0.500054 0.509847 -0.033153
C44   C     C_R   0.270771 0.499842 0.518225 -0.039406
H1    H     H_    0.236389 0.503399 0.112425 0.135594
H2    H     H_    0.763646 0.501841 0.887299 0.140670
H3    H     H_    0.236012 0.501995 0.879920 0.144164
H4    H     H_    0.764093 0.500399 0.119788 0.139417
H5    H     H_    0.644503 0.499514 0.234049 0.117371
H6    H     H_    0.355646 0.500441 0.765971 0.121726
H7    H     H_    0.643680 0.502103 0.769862 0.123828
H8    H     H_    0.356335 0.502937 0.230087 0.119429
H9    H     H_    0.877828 0.627262 0.559431 0.129753
H10   H     H_    0.124208 0.372086 0.570289 0.129992
H11   H     H_    0.121608 0.627782 0.540553 0.129907
H12   H     H_    0.879187 0.371665 0.527552 0.129291
H13   H     H_    0.739760 0.628383 0.524893 0.149974
H14   H     H_    0.262108 0.371609 0.539169 0.149537
H15   H     H_    0.259460 0.628301 0.508849 0.148221
H16   H     H_    0.741087 0.371972 0.492541 0.148742
N1    N     N_R   0.500000 0.707230 0.500000 -0.205467
N2    N     N_R   0.500000 0.292770 0.500000 -0.219975
O1    O     O_R   0.389110 0.566570 0.499990 -0.605494
O2    O     O_R   0.610890 0.433430 0.500010 -0.615623
O3    O     O_R   0.610890 0.566570 0.500010 -0.605606
O4    O     O_R   0.389110 0.433430 0.499990 -0.617118
O5    O     O_R   0.499990 0.566540 0.316770 -0.566104
O6    O     O_R   0.500010 0.433460 0.683230 -0.559465
O7    O     O_R   0.500010 0.566540 0.683230 -0.565340
O8    O     O_R   0.499990 0.433460 0.316770 -0.559444
Zn1   Zn    Zn3+2 0.500000 0.588860 0.500000 1.008094
Zn2   Zn    Zn3+2 0.500000 0.411140 0.500000 1.007752
O9    O     O_3   0.433008 0.872899 0.300398 -0.596977
C45   C     C_3   0.485962 0.876433 0.201811 -0.260392
H17   H     H_    0.459956 0.910275 0.122763 0.185150
H18   H     H_    0.500018 0.816009 0.166183 0.178686
H19   H     H_    0.538956 0.908297 0.231332 0.158458
O10   O     O_3   0.568684 0.128388 0.699547 -0.552428
C46   C     C_3   0.638518 0.092550 0.665669 -0.275524
H20   H     H_    0.675519 0.088875 0.750752 0.179521
H21   H     H_    0.670657 0.126698 0.593651 0.112956
H22   H     H_    0.628903 0.030804 0.632550 0.204821
O11   O     O_3   0.565082 0.873874 0.699714 -0.599286
C47   C     C_3   0.511102 0.877623 0.796765 -0.265752
H23   H     H_    0.536269 0.911777 0.876252 0.185847
H24   H     H_    0.496729 0.817286 0.832448 0.178466
H25   H     H_    0.458382 0.909273 0.765539 0.160463
O12   O     O_3   0.429978 0.128832 0.300596 -0.551144
C48   C     C_3   0.359850 0.093867 0.335191 -0.272350
H26   H     H_    0.323013 0.089289 0.250019 0.180642
H27   H     H_    0.327824 0.129264 0.405825 0.111965
H28   H     H_    0.368939 0.032525 0.370458 0.201474
O13   O     O_3   0.427345 0.704429 0.311158 -0.560815
C49   C     C_3   0.348012 0.719356 0.310903 -0.205454
H29   H     H_    0.333961 0.768244 0.244560 0.195703
H30   H     H_    0.325126 0.733355 0.405718 0.111456
H31   H     H_    0.318107 0.665210 0.276622 0.161310
O14   O     O_3   0.566402 0.294350 0.695093 -0.536828
C50   C     C_3   0.646904 0.290300 0.694409 -0.176813
H32   H     H_    0.670044 0.349030 0.723228 0.166269
H33   H     H_    0.671408 0.275800 0.600944 0.089258
H34   H     H_    0.666839 0.246218 0.764990 0.180713
O15   O     O_3   0.570971 0.704807 0.690473 -0.561702
C51   C     C_3   0.649503 0.723201 0.699848 -0.210700
H35   H     H_    0.659131 0.770162 0.771552 0.198426
H36   H     H_    0.675148 0.741459 0.608851 0.114569
H37   H     H_    0.680318 0.669350 0.732865 0.162170
O16   O     O_3   0.432484 0.294520 0.305816 -0.535590
C52   C     C_3   0.352000 0.293157 0.311746 -0.177013
H38   H     H_    0.329939 0.351818 0.280556 0.164795
H39   H     H_    0.329321 0.282046 0.407635 0.091995
H40   H     H_    0.329073 0.247983 0.245397 0.176236

loop_
_geom_bond_atom_site_label_1
_geom_bond_atom_site_label_2
_ccdc_geom_bond_type
C24   H8    S    
C4    C36   A    
O13   C49   S    
C35   H9    S    
O9    C45   S    
C47   H25   S    
C2    O3    A    
C51   H36   S    
C7    O9    S    
C7    C11   A    
C21   C31   A    
C10   O12   S    
C45   H18   S    
C23   C29   A    
C47   H24   S    
C38   C42   A    
C52   H39   S    
C5    C6    T    
C39   H13   S    
C29   C33   A    
O16   C52   S    
O7    Zn1   S    
C9    C13   A    
O4    Zn2   S    
O11   C47   S    
C3    C38   A    
C45   H19   S    
C19   O5    A    
C23   C27   A    
C13   O15   S    
C12   O14   S    
O6    Zn2   S    
C22   H6    S    
N1    Zn1   S    
C14   O16   S    
C8    C16   A    
C8    O10   S    
C1    O1    A    
C21   H5    S    
C51   H35   S    
C2    O2    A    
C1    O4    A    
C28   H1    S    
C40   H14   S    
C45   H17   S    
C30   C34   A    
C36   C40   A    
C47   H23   S    
C41   H15   S    
C4    C6    S    
C10   C14   A    
C52   H40   S    
C42   H16   S    
C46   H21   S    
O10   C46   S    
C39   C43   A    
C49   H31   S    
C3    C5    S    
O3    Zn1   S    
C35   C39   A    
C12   N2    A    
C1    C44   S    
C23   H7    S    
C50   H32   S    
C3    C35   A    
C2    C43   S    
C8    C12   A    
C17   C18   T    
C31   C34   A    
N2    Zn2   S    
O12   C48   S    
C48   H28   S    
C49   H30   S    
C25   H4    S    
C22   C32   A    
C26   H3    S    
C9    O11   S    
C20   C33   S    
C27   H2    S    
C50   H33   S    
O1    Zn1   S    
C41   C44   A    
C20   O7    A    
C48   H27   S    
C42   C43   A    
C15   C17   S    
C21   C25   A    
C20   O6    A    
C24   C28   A    
C11   N1    A    
C19   C34   S    
C46   H22   S    
C25   C27   A    
C38   H12   S    
C26   C28   A    
C32   C33   A    
C9    C15   A    
C29   C31   A    
C10   C16   A    
C52   H38   S    
C30   C32   A    
C11   O13   S    
C7    C15   A    
O5    Zn1   S    
O2    Zn2   S    
C37   C41   A    
C49   H29   S    
C24   C30   A    
C36   H10   S    
C46   H20   S    
C37   H11   S    
C40   C44   A    
C50   H34   S    
C13   N1    A    
C4    C37   A    
C16   C18   S    
O14   C50   S    
C22   C26   A    
O15   C51   S    
C19   O8    A    
O8    Zn2   S    
C48   H26   S    
C51   H37   S    
C14   N2    A    
