data_mof_unit_46299.cif
_audit_creation_date              2012-12-11T17:04:56-0500
_audit_creation_method            fapswitch 2.2
_symmetry_space_group_name_H-M    P1
_symmetry_Int_Tables_number       1
_space_group_crystal_system       triclinic
_cell_length_a                    17.302439
_cell_length_b                    24.199532
_cell_length_c                    14.903788
_cell_angle_alpha                 89.926805
_cell_angle_beta                  125.454257
_cell_angle_gamma                 90.173131
_cell_volume                      5083.2567174

loop_
_atom_site_label
_atom_site_type_symbol
_atom_type_description
_atom_site_fract_x
_atom_site_fract_y
_atom_site_fract_z
_atom_type_partial_charge
C1    C     C_R   0.807595 0.622636 0.906799 -0.136414
C2    C     C_R   0.149926 0.653056 0.092334 -0.136200
C3    C     C_R   0.307591 0.122626 0.906796 -0.136467
C4    C     C_R   0.649949 0.153046 0.092341 -0.136141
C5    C     C_R   0.812372 0.364517 0.003190 0.060163
C6    C     C_R   0.116311 0.316549 0.996858 0.039622
C7    C     C_R   0.312368 0.864507 0.003164 0.060194
C8    C     C_R   0.616211 0.816520 0.996842 0.038767
C9    C     C_R   0.080914 0.502355 0.374185 0.164741
C10   C     C_R   0.039131 0.500304 0.711550 0.196928
C11   C     C_R   0.580874 0.002346 0.374174 0.164361
C12   C     C_R   0.539071 0.000299 0.711489 0.197138
C13   C     C_R   0.688577 0.501909 0.640794 -0.091320
C14   C     C_R   0.325373 0.501106 0.272254 -0.115192
C15   C     C_R   0.188613 0.001918 0.640727 -0.091383
C16   C     C_R   0.825377 0.001141 0.272156 -0.115028
C17   C     C_3   0.521381 0.460873 0.512488 -0.109904
C18   C     C_3   0.495356 0.453851 0.395134 -0.064592
C19   C     C_3   0.021405 0.960911 0.512395 -0.111054
C20   C     C_3   0.995376 0.953861 0.395046 -0.064667
C21   C     C_3   0.451530 0.508957 0.474955 -0.193320
C22   C     C_3   0.573187 0.495973 0.420307 -0.175244
C23   C     C_3   0.951571 0.009006 0.474833 -0.194113
C24   C     C_3   0.073227 0.995965 0.420204 -0.175144
C25   C     C_3   0.425855 0.501974 0.358291 0.209014
C26   C     C_3   0.597304 0.502797 0.536021 0.218663
C27   C     C_3   0.925886 0.001995 0.358165 0.208996
C28   C     C_3   0.097348 0.002815 0.535917 0.219156
C29   C     C_3   0.501262 0.544227 0.381091 -0.172937
C30   C     C_3   0.527996 0.550995 0.499057 -0.157791
C31   C     C_3   0.001315 0.044231 0.380954 -0.172851
C32   C     C_3   0.028054 0.051025 0.498919 -0.157243
C33   C     C_R   0.741252 0.322753 0.096791 0.043573
C34   C     C_R   0.112124 0.235250 0.894298 -0.055878
C35   C     C_R   0.241137 0.822789 0.096679 0.044125
C36   C     C_R   0.612070 0.735227 0.894289 -0.055759
C37   C     C_R   0.734285 0.338643 0.001441 -0.014400
C38   C     C_R   0.136825 0.258519 0.993342 0.041760
C39   C     C_R   0.234257 0.838632 0.001365 -0.014435
C40   C     C_R   0.636735 0.758489 0.993325 0.041795
C41   C     C_R   0.655282 0.317920 0.900474 -0.165323
C42   C     C_R   0.194390 0.227187 0.090239 -0.181939
C43   C     C_R   0.155304 0.817880 0.900394 -0.165297
C44   C     C_R   0.694329 0.727165 0.090228 -0.181828
C45   C     C_R   0.903069 0.377418 0.094179 -0.151308
C46   C     C_R   0.054223 0.348649 0.906745 -0.044042
C47   C     C_R   0.403071 0.877398 0.094170 -0.151290
C48   C     C_R   0.554186 0.848640 0.906738 -0.044197
C49   C     C_R   0.109214 0.770067 0.899188 -0.223457
C50   C     C_R   0.742773 0.680930 0.089865 -0.199369
C51   C     C_R   0.609214 0.270093 0.899256 -0.223600
C52   C     C_R   0.242790 0.180934 0.089863 -0.199378
C53   C     C_R   0.140217 0.743684 0.998965 0.056745
C54   C     C_R   0.733266 0.666066 0.992587 0.078985
C55   C     C_R   0.640289 0.243670 0.999020 0.056773
C56   C     C_R   0.233271 0.166064 0.992582 0.079014
C57   C     C_R   0.197053 0.774867 0.095211 0.107717
C58   C     C_R   0.657706 0.688945 0.892960 0.086967
C59   C     C_R   0.697200 0.274813 0.095304 0.107842
C60   C     C_R   0.157726 0.188955 0.892958 0.087032
C61   C     C_3   0.272288 0.761513 0.212455 -0.633891
C62   C     C_3   0.649659 0.707968 0.791483 -0.684336
C63   C     C_3   0.772531 0.261396 0.212482 -0.633777
C64   C     C_3   0.149676 0.207970 0.791473 -0.684478
C65   C     C_3   0.819195 0.315784 0.217675 0.505427
C66   C     C_3   0.101709 0.259357 0.794894 0.528080
C67   C     C_3   0.318988 0.815877 0.217594 0.505410
C68   C     C_3   0.601671 0.759345 0.794902 0.527863
C69   C     C_R   0.080705 0.551593 0.601549 -0.138527
C70   C     C_R   0.104183 0.553366 0.527645 -0.083400
C71   C     C_R   0.580741 0.051591 0.601581 -0.138721
C72   C     C_R   0.604242 0.053360 0.527690 -0.082567
C73   C     C_R   0.079159 0.501222 0.647493 -0.129480
C74   C     C_R   0.122100 0.505094 0.491826 -0.163144
C75   C     C_R   0.579089 0.001210 0.647427 -0.130117
C76   C     C_R   0.622072 0.005075 0.491819 -0.164726
C77   C     C_R   0.105376 0.452319 0.618356 0.426776
C78   C     C_R   0.135901 0.455793 0.549285 0.419520
C79   C     C_R   0.605268 0.952298 0.618273 0.427920
C80   C     C_R   0.635835 0.955762 0.549260 0.420289
C81   C     C_3   0.162601 0.605385 0.576918 0.563482
C82   C     C_3   0.130611 0.605604 0.655320 0.584262
C83   C     C_3   0.662866 0.105295 0.577152 0.563369
C84   C     C_3   0.630869 0.105530 0.655546 0.584209
C85   C     C_R   0.056756 0.547250 0.306440 -0.147557
C86   C     C_R   0.013389 0.546599 0.744040 -0.121173
C87   C     C_R   0.556728 0.047246 0.306437 -0.147228
C88   C     C_R   0.513343 0.046599 0.743988 -0.121093
C89   C     C_R   0.739287 0.455863 0.697375 0.573228
C90   C     C_R   0.269586 0.455149 0.250123 0.612398
C91   C     C_R   0.239305 0.955870 0.697337 0.573367
C92   C     C_R   0.769585 0.955182 0.249970 0.613130
C93   C     C_R   0.058558 0.455951 0.308971 -0.196366
C94   C     C_R   0.011846 0.454236 0.743067 -0.166771
C95   C     C_R   0.558552 0.955945 0.308967 -0.196688
C96   C     C_R   0.511810 0.954233 0.743034 -0.166724
C97   C     C_R   0.739959 0.547243 0.699199 -0.272079
C98   C     C_R   0.269174 0.547067 0.246640 -0.230773
C99   C     C_R   0.239983 0.047247 0.699173 -0.272188
C100  C     C_R   0.769170 0.047084 0.246639 -0.231086
C101  C     C_R   0.810514 0.376822 0.910630 -0.151043
C102  C     C_R   0.146358 0.347870 0.088878 -0.082484
C103  C     C_R   0.310514 0.876825 0.910616 -0.151045
C104  C     C_R   0.646235 0.847836 0.088856 -0.080198
C105  C     C_R   0.900518 0.625533 0.090754 -0.134544
C106  C     C_R   0.059718 0.652446 0.909383 -0.122302
C107  C     C_R   0.400516 0.125529 0.090752 -0.134546
C108  C     C_R   0.559745 0.152442 0.909388 -0.122288
C109  C     C_R   0.810007 0.637600 0.997663 0.056339
C110  C     C_R   0.121617 0.684710 0.000691 0.062379
C111  C     C_R   0.310002 0.137590 0.997659 0.056392
C112  C     C_R   0.621663 0.184698 0.000705 0.062311
H1    H     H_    0.747373 0.623214 0.822486 0.124841
H2    H     H_    0.184399 0.667522 0.175705 0.106753
H3    H     H_    0.247367 0.123199 0.822483 0.124868
H4    H     H_    0.684418 0.167512 0.175710 0.106749
H5    H     H_    0.530428 0.426935 0.568035 0.131966
H6    H     H_    0.480940 0.414249 0.350443 0.151404
H7    H     H_    0.030434 0.926986 0.567958 0.131922
H8    H     H_    0.980976 0.914247 0.350396 0.151734
H9    H     H_    0.490185 0.578051 0.324397 0.120771
H10   H     H_    0.542890 0.590655 0.543793 0.113454
H11   H     H_    0.990260 0.078043 0.324248 0.120735
H12   H     H_    0.042955 0.090694 0.543628 0.113334
H13   H     H_    0.637009 0.332826 0.822109 0.124385
H14   H     H_    0.211240 0.241522 0.168396 0.124121
H15   H     H_    0.137087 0.832747 0.822030 0.124391
H16   H     H_    0.711172 0.741497 0.168383 0.123998
H17   H     H_    0.058561 0.750950 0.820338 0.124440
H18   H     H_    0.795652 0.661675 0.167749 0.130216
H19   H     H_    0.558510 0.251000 0.820394 0.124456
H20   H     H_    0.295651 0.161668 0.167742 0.130218
H21   H     H_    0.315283 0.725050 0.221490 0.156361
H22   H     H_    0.600327 0.681271 0.719280 0.169857
H23   H     H_    0.815493 0.224949 0.221356 0.156382
H24   H     H_    0.100330 0.181274 0.719273 0.169866
H25   H     H_    0.244675 0.760554 0.263760 0.222478
H26   H     H_    0.718269 0.715499 0.803515 0.203229
H27   H     H_    0.745026 0.260379 0.263898 0.222448
H28   H     H_    0.218286 0.215487 0.803496 0.203215
H29   H     H_    0.892508 0.308800 0.242258 0.005939
H30   H     H_    0.025809 0.261290 0.723842 0.001730
H31   H     H_    0.392330 0.808860 0.242291 0.005764
H32   H     H_    0.525775 0.761274 0.723839 0.001751
H33   H     H_    0.930924 0.374736 0.179465 0.086200
H34   H     H_    0.005343 0.334375 0.823140 0.070960
H35   H     H_    0.430941 0.874684 0.179459 0.086205
H36   H     H_    0.505315 0.834378 0.823122 0.071085
H37   H     H_    0.076040 0.589684 0.332065 0.166391
H38   H     H_    0.023922 0.589295 0.734877 0.148652
H39   H     H_    0.575995 0.089682 0.332077 0.166256
H40   H     H_    0.523845 0.089293 0.734782 0.148540
H41   H     H_    0.076501 0.413649 0.335916 0.154373
H42   H     H_    0.018540 0.411172 0.732306 0.180504
H43   H     H_    0.576557 0.913647 0.335933 0.154346
H44   H     H_    0.518492 0.911168 0.732274 0.180450
H45   H     H_    0.727156 0.589432 0.669878 0.133876
H46   H     H_    0.291894 0.589754 0.262348 0.139277
H47   H     H_    0.227198 0.089438 0.669867 0.133841
H48   H     H_    0.791878 0.089773 0.262377 0.139371
H49   H     H_    0.751384 0.372347 0.826114 0.150699
H50   H     H_    0.181227 0.332036 0.171218 0.135635
H51   H     H_    0.251387 0.872368 0.826095 0.150697
H52   H     H_    0.680948 0.831979 0.171160 0.135258
H53   H     H_    0.927185 0.631234 0.176011 0.111497
H54   H     H_    0.012688 0.666373 0.825190 0.091289
H55   H     H_    0.427182 0.131233 0.176009 0.111397
H56   H     H_    0.512732 0.166373 0.825196 0.091268
H57   H     H_    0.400013 0.514355 0.495990 0.119859
H58   H     H_    0.626242 0.490699 0.401697 0.126964
H59   H     H_    0.900060 0.014424 0.495872 0.119752
H60   H     H_    0.126279 0.990668 0.401594 0.126976
N1    N     N_R   0.892620 0.603790 0.941770 -0.038330
N2    N     N_R   0.107380 0.603790 0.058230 -0.033469
N3    N     N_R   0.392620 0.103790 0.941770 -0.038343
N4    N     N_R   0.607380 0.103790 0.058230 -0.033445
N5    N     N_R   0.952270 0.397640 0.058010 -0.039228
N6    N     N_R   0.047730 0.397640 0.941990 -0.055517
N7    N     N_R   0.452270 0.897640 0.058010 -0.039268
N8    N     N_R   0.547730 0.897640 0.941990 -0.055571
N9    N     N_R   0.026310 0.529110 0.206760 -0.045752
N10   N     N_R   0.973690 0.529110 0.793240 -0.050317
N11   N     N_R   0.526310 0.029110 0.206760 -0.045748
N12   N     N_R   0.473690 0.029110 0.793240 -0.050322
N13   N     N_R   0.818570 0.472310 0.793020 -0.097749
N14   N     N_R   0.181430 0.472310 0.206980 -0.100953
N15   N     N_R   0.318570 0.972310 0.793020 -0.097753
N16   N     N_R   0.681430 0.972310 0.206980 -0.101063
N17   N     N_R   0.026930 0.472300 0.207330 -0.047387
N18   N     N_R   0.973070 0.472300 0.792670 -0.065012
N19   N     N_R   0.526930 0.972300 0.207330 -0.047307
N20   N     N_R   0.473070 0.972300 0.792670 -0.065014
N21   N     N_R   0.817960 0.529130 0.792460 -0.057431
N22   N     N_R   0.182040 0.529130 0.207540 -0.064103
N23   N     N_R   0.317960 0.029130 0.792460 -0.057418
N24   N     N_R   0.682040 0.029130 0.207540 -0.064179
N25   N     N_R   0.894850 0.397640 0.943830 -0.048898
N26   N     N_R   0.105150 0.397640 0.056170 -0.051774
N27   N     N_R   0.394850 0.897640 0.943830 -0.048934
N28   N     N_R   0.605150 0.897640 0.056170 -0.051679
N29   N     N_R   0.950040 0.603780 0.055950 -0.039031
N30   N     N_R   0.049960 0.603780 0.944050 -0.034736
N31   N     N_R   0.450040 0.103780 0.055950 -0.039038
N32   N     N_R   0.549960 0.103780 0.944050 -0.034723
Ni1   Ni    Ni4+2 0.934160 0.565860 0.869070 0.207912
Ni2   Ni    Ni4+2 0.065840 0.565860 0.130930 0.213599
Ni3   Ni    Ni4+2 0.434160 0.065860 0.869070 0.207879
Ni4   Ni    Ni4+2 0.565840 0.065860 0.130930 0.213589
Ni5   Ni    Ni4+2 0.067260 0.435560 0.132230 0.203856
Ni6   Ni    Ni4+2 0.932740 0.435560 0.867770 0.196657
Ni7   Ni    Ni4+2 0.567260 0.935560 0.132230 0.203913
Ni8   Ni    Ni4+2 0.432740 0.935560 0.867770 0.196666
O1    O     O_3   0.810731 0.353844 0.283563 -0.595021
C113  C     C_3   0.852250 0.404751 0.287753 -0.277681
H61   H     H_    0.818996 0.422539 0.204169 0.152544
H62   H     H_    0.930003 0.400305 0.331602 0.129136
H63   H     H_    0.840469 0.434490 0.335250 0.169975
O2    O     O_3   0.148407 0.311088 0.811212 -0.591232
C114  C     C_3   0.248120 0.311246 0.890153 -0.055626
H64   H     H_    0.283650 0.301730 0.849482 0.123958
H65   H     H_    0.273574 0.282878 0.960550 0.108553
H66   H     H_    0.270293 0.353554 0.924680 0.153111
O3    O     O_3   0.310416 0.854021 0.283278 -0.594876
C115  C     C_3   0.352474 0.904794 0.287907 -0.277464
H67   H     H_    0.319533 0.922671 0.204455 0.152626
H68   H     H_    0.430206 0.900107 0.331898 0.128933
H69   H     H_    0.340841 0.934578 0.335467 0.169934
O4    O     O_3   0.648366 0.811079 0.811238 -0.591303
C116  C     C_3   0.748074 0.811247 0.890224 -0.054462
H70   H     H_    0.783641 0.801740 0.849594 0.124200
H71   H     H_    0.773510 0.782877 0.960613 0.108273
H72   H     H_    0.770223 0.853555 0.924756 0.153193
O5    O     O_3   0.103789 0.401136 0.658364 -0.578146
C117  C     C_3   0.025336 0.370860 0.572020 -0.118944
H73   H     H_    0.038822 0.355510 0.512153 0.172128
H74   H     H_    0.958503 0.395298 0.529269 0.090250
H75   H     H_    0.013648 0.334147 0.606986 0.160240
O6    O     O_3   0.170628 0.409108 0.530957 -0.622294
C118  C     C_3   0.270405 0.412364 0.597883 -0.230146
H76   H     H_    0.299164 0.414153 0.686794 0.157703
H77   H     H_    0.295646 0.448470 0.575100 0.129215
H78   H     H_    0.298867 0.374518 0.585064 0.155134
O7    O     O_3   0.603735 0.901125 0.658352 -0.577618
C119  C     C_3   0.525308 0.870814 0.572060 -0.119237
H79   H     H_    0.538853 0.855395 0.512285 0.172116
H80   H     H_    0.458465 0.895246 0.529205 0.090026
H81   H     H_    0.513597 0.834143 0.607099 0.160225
O8    O     O_3   0.670614 0.909049 0.531075 -0.621557
C120  C     C_3   0.770287 0.913021 0.595743 -0.231489
H82   H     H_    0.800614 0.915465 0.685057 0.157104
H83   H     H_    0.793828 0.949044 0.570706 0.129794
H84   H     H_    0.798790 0.875167 0.583013 0.155389
O9    O     O_3   0.120549 0.646874 0.493861 -0.645744
C121  C     C_3   0.168292 0.698224 0.529523 -0.324784
H85   H     H_    0.219986 0.701044 0.508297 0.157594
H86   H     H_    0.204832 0.706196 0.618623 0.107700
H87   H     H_    0.115455 0.731593 0.484316 0.196265
O10   O     O_3   0.202267 0.596339 0.769128 -0.617378
C122  C     C_3   0.250262 0.645268 0.825959 -0.283788
H88   H     H_    0.204634 0.671946 0.837692 0.153149
H89   H     H_    0.277643 0.668029 0.785241 0.116345
H90   H     H_    0.312616 0.633804 0.909292 0.184451
O11   O     O_3   0.620993 0.146853 0.494229 -0.645679
C123  C     C_3   0.668922 0.198143 0.530084 -0.324723
H91   H     H_    0.720634 0.200924 0.508881 0.157568
H92   H     H_    0.705486 0.206041 0.619212 0.107664
H93   H     H_    0.616209 0.231582 0.484995 0.196264
O12   O     O_3   0.702480 0.096142 0.769322 -0.617306
C124  C     C_3   0.750714 0.144991 0.826318 -0.283442
H94   H     H_    0.705226 0.171736 0.838169 0.153099
H95   H     H_    0.778186 0.167716 0.785662 0.116302
H96   H     H_    0.813024 0.133419 0.909598 0.184437
N33   N     N_2   0.263920 0.596276 0.625422 -0.122126
H97   H     H_    0.303863 0.630471 0.635820 0.155984
C125  C     C_3   0.319501 0.554508 0.708855 -0.919500
H98   H     H_    0.368777 0.535099 0.693404 0.232968
H99   H     H_    0.275064 0.521766 0.709195 0.260709
H100  H     H_    0.362684 0.573943 0.791642 0.271257
N34   N     N_2   0.064476 0.650311 0.634780 -0.124559
H101  H     H_    0.093006 0.689519 0.652494 0.158010
C126  C     C_3   0.966453 0.648827 0.538463 -0.971225
H102  H     H_    0.927743 0.684718 0.540660 0.245591
H103  H     H_    0.930125 0.610819 0.537828 0.250525
H104  H     H_    0.962356 0.651080 0.461509 0.294923
N35   N     N_2   0.764149 0.096051 0.625633 -0.122190
H105  H     H_    0.804224 0.130177 0.636034 0.156052
C127  C     C_3   0.819571 0.054205 0.708941 -0.919633
H106  H     H_    0.868560 0.034615 0.693229 0.232949
H107  H     H_    0.774994 0.021608 0.709412 0.261035
H108  H     H_    0.863032 0.073604 0.791750 0.271128
N36   N     N_2   0.564922 0.150320 0.635173 -0.124521
H109  H     H_    0.593629 0.189487 0.653084 0.158023
C128  C     C_3   0.466915 0.149010 0.538811 -0.971281
H110  H     H_    0.428334 0.184915 0.541203 0.245582
H111  H     H_    0.430416 0.111019 0.537900 0.250517
H112  H     H_    0.462873 0.151370 0.461902 0.295003
O13   O     O_3   0.717907 0.403133 0.652866 -0.649194
C129  C     C_3   0.795637 0.380744 0.658807 -0.300276
H113  H     H_    0.852735 0.369075 0.744393 0.145360
H114  H     H_    0.822036 0.409305 0.623513 0.145259
H115  H     H_    0.772018 0.342323 0.608973 0.170554
O14   O     O_3   0.303234 0.402416 0.287923 -0.646552
C130  C     C_3   0.284941 0.387694 0.365508 -0.313588
H116  H     H_    0.207549 0.383999 0.326434 0.149833
H117  H     H_    0.317891 0.417668 0.434893 0.144314
H118  H     H_    0.317163 0.346721 0.400403 0.174434
O15   O     O_3   0.217917 0.903137 0.652843 -0.649181
C131  C     C_3   0.295644 0.880738 0.658793 -0.300423
H119  H     H_    0.352741 0.869078 0.744384 0.145371
H120  H     H_    0.322044 0.909290 0.623486 0.145279
H121  H     H_    0.272024 0.842312 0.608977 0.170569
O16   O     O_3   0.803143 0.902358 0.286946 -0.646023
C132  C     C_3   0.785901 0.887451 0.365331 -0.317377
H122  H     H_    0.708648 0.884323 0.327462 0.150310
H123  H     H_    0.820361 0.916988 0.435477 0.144057
H124  H     H_    0.817353 0.846176 0.398863 0.175047

loop_
_geom_bond_atom_site_label_1
_geom_bond_atom_site_label_2
_ccdc_geom_bond_type
C63   C65   S    
C22   C29   S    
C55   C59   A    
O3    C115  S    
N3    Ni3   S    
C67   H31   S    
C92   O16   S    
C89   O13   S    
C130  H117  S    
C126  H104  S    
C106  H54   S    
C5    C37   S    
C11   C76   S    
C10   C94   A    
C99   N23   A    
C119  H79   S    
N1    N29   A    
C97   N21   A    
N26   Ni5   S    
C14   C90   A    
C121  H86   S    
C19   C20   S    
C70   C74   A    
N29   Ni2   S    
C127  H107  S    
C79   O7    S    
C18   H6    S    
C131  H121  S    
C78   O6    S    
C34   C60   A    
C18   C25   S    
C117  H74   S    
O4    C116  S    
C100  N24   A    
C25   C29   S    
C5    C101  A    
C61   H21   S    
C52   H20   S    
C41   H13   S    
C28   C32   S    
C43   H15   S    
C51   H19   S    
C90   N14   A    
O1    C113  S    
C17   C21   S    
C117  H75   S    
C64   C66   S    
C19   C23   S    
C94   N18   A    
C65   O1    S    
C116  H70   S    
C130  H116  S    
C36   C68   S    
C67   O3    S    
C8    C104  A    
C22   H58   S    
C124  H95   S    
C129  H113  S    
C20   H8    S    
C64   H28   S    
C44   C50   A    
C63   H27   S    
C122  H89   S    
C104  H52   S    
C68   O4    S    
C57   C61   S    
C59   C63   S    
C119  H81   S    
C62   C68   S    
C60   C64   S    
C89   N13   A    
N4    Ni4   S    
C93   H41   S    
N18   Ni6   S    
N35   C127  S    
C2    H2    S    
C46   H34   S    
C49   C53   A    
C51   C55   A    
C6    C102  A    
C13   C97   A    
C69   C70   A    
C42   H14   S    
C15   C91   A    
C23   H59   S    
C116  H71   S    
N14   Ni5   S    
N2    Ni2   S    
C73   C77   A    
C3    H3    S    
C8    C40   S    
C81   O9    S    
C75   C79   A    
C41   C51   A    
C42   C52   A    
C91   O15   S    
C64   H24   S    
C99   H47   S    
C82   O10   S    
C83   O11   S    
C34   C66   S    
C15   C28   S    
C96   H44   S    
C1    N1    A    
C120  H82   S    
C29   C30   S    
N12   Ni3   S    
N7    N27   A    
C45   H33   S    
N36   C128  S    
C116  H72   S    
C86   H38   S    
C87   N11   A    
O9    C121  S    
C101  N25   A    
C88   N12   A    
C114  H65   S    
C108  N32   A    
O16   C132  S    
N6    Ni6   S    
N8    Ni8   S    
N20   Ni8   S    
C69   C82   S    
C9    C85   A    
C31   C32   S    
C11   C87   A    
C123  H91   S    
C6    C38   S    
O5    C117  S    
C81   N33   S    
C16   C27   S    
N34   C126  S    
C108  H56   S    
C7    C103  A    
C104  N28   A    
C105  C109  A    
C131  H120  S    
C14   C98   A    
C47   H35   S    
N28   Ni7   S    
N21   Ni1   S    
C12   C88   A    
C4    N4    A    
C30   H10   S    
C125  H100  S    
C16   C100  A    
C121  H87   S    
N24   Ni4   S    
C107  N31   A    
C128  H110  S    
N8    N28   A    
C65   H29   S    
C61   C67   S    
C105  N29   A    
C83   C84   S    
C35   C67   S    
N12   N20   A    
C17   C18   S    
C118  H77   S    
O12   C124  S    
C19   C28   S    
C26   C30   S    
C74   C78   A    
C13   C26   S    
C12   C75   S    
C9    C74   S    
C48   N8    A    
C91   N15   A    
C10   C86   A    
C120  H84   S    
C85   N9    A    
C18   C22   S    
C107  C111  A    
N14   N22   A    
C76   C80   A    
C92   N16   A    
C93   N17   A    
C126  H103  S    
N10   N18   A    
N31   Ni4   S    
C96   N20   A    
O10   C122  S    
C71   C72   A    
C114  H66   S    
C123  H93   S    
C21   H57   S    
N33   C125  S    
C119  H80   S    
C68   H32   S    
C37   C41   A    
C24   H60   S    
C40   C44   A    
C33   C59   A    
N19   Ni7   S    
C58   C62   S    
N4    N32   A    
C118  H76   S    
C115  H67   S    
O11   C123  S    
C77   C78   A    
C50   C54   A    
C1    H1    S    
C128  H112  S    
C54   C58   A    
C10   C73   S    
C84   O12   S    
O7    C119  S    
N2    N30   A    
C98   N22   A    
N27   Ni8   S    
C32   H12   S    
C21   C25   S    
N25   Ni6   S    
C1    C109  A    
N9    N17   A    
C98   H46   S    
C3    C111  A    
N30   Ni1   S    
C29   H9    S    
N34   H101  S    
C80   O8    S    
C69   C73   A    
C56   C111  S    
C83   N35   S    
C17   H5    S    
C13   C89   A    
C19   H7    S    
C124  H94   S    
C129  H114  S    
C130  H118  S    
C107  H55   S    
O15   C131  S    
C24   C28   S    
C15   C99   A    
C114  H64   S    
C53   C57   A    
C27   C31   S    
C33   C37   A    
C108  C112  A    
C115  H68   S    
C129  H115  S    
C7    C47   A    
C35   C39   A    
C8    C48   A    
N35   H105  S    
C90   O14   S    
C127  H106  S    
N32   Ni3   S    
C102  H50   S    
C127  H108  S    
C62   H26   S    
C3    N3    A    
C16   C92   A    
C117  H73   S    
C115  H69   S    
O8    C120  S    
C63   H23   S    
O6    C118  S    
C2    C110  A    
C4    H4    S    
C66   H30   S    
C20   C27   S    
C21   C30   S    
C35   C57   A    
C23   C32   S    
C24   C31   S    
N3    N31   A    
C66   O2    S    
N17   Ni5   S    
C61   H25   S    
C132  H122  S    
C5    C45   A    
C105  H53   S    
N9    Ni2   S    
C113  H62   S    
C14   C25   S    
C72   C83   S    
C132  H123  S    
C56   C60   A    
N23   Ni3   S    
N15   Ni8   S    
C123  H92   S    
C22   C26   S    
C124  H96   S    
C86   N10   A    
N13   Ni6   S    
C12   C96   A    
N1    Ni1   S    
C53   C110  S    
C55   C112  S    
O13   C129  S    
C46   N6    A    
C82   N34   S    
C72   C76   A    
C122  H90   S    
C81   C82   S    
C33   C65   S    
C121  H85   S    
C17   C26   S    
C125  H99   S    
C38   C42   A    
C36   C58   A    
C102  N26   A    
N16   Ni7   S    
N7    Ni7   S    
N5    Ni5   S    
C70   C81   S    
C47   N7    A    
C50   H18   S    
C20   C24   S    
C23   C27   S    
C45   N5    A    
N36   H109  S    
N6    N26   A    
C87   H39   S    
N11   Ni4   S    
C88   H40   S    
N22   Ni2   S    
C120  H83   S    
C36   C40   A    
C113  H61   S    
C43   C49   A    
C132  H124  S    
C39   C43   A    
C126  H102  S    
C49   H17   S    
C54   C109  S    
C97   H45   S    
C106  N30   A    
C100  H48   S    
C94   H42   S    
C77   O5    S    
N33   H97   S    
C103  N27   A    
C125  H98   S    
C122  H88   S    
C9    C93   A    
C131  H119  S    
C71   C84   S    
C106  C110  A    
C11   C95   A    
O14   C130  S    
C44   H16   S    
C6    C46   A    
N15   N23   A    
C34   C38   A    
N13   N21   A    
C113  H63   S    
N11   N19   A    
C95   N19   A    
C103  H51   S    
N10   Ni1   S    
C62   H22   S    
C101  H49   S    
C31   H11   S    
C128  H111  S    
C2    N2    A    
C71   C75   A    
O2    C114  S    
C84   N36   S    
C48   H36   S    
C118  H78   S    
C95   H43   S    
C4    C112  A    
C85   H37   S    
C79   C80   A    
N16   N24   A    
C7    C39   S    
N5    N25   A    
C52   C56   A    
