data_mof_unit_33483.cif
_audit_creation_date              2012-12-10T18:45:10-0500
_audit_creation_method            fapswitch 2.2
_symmetry_space_group_name_H-M    P1
_symmetry_Int_Tables_number       1
_space_group_crystal_system       triclinic
_cell_length_a                    10.712231
_cell_length_b                    9.795184
_cell_length_c                    10.651172
_cell_angle_alpha                 89.305528
_cell_angle_beta                  90.208278
_cell_angle_gamma                 89.330248
_cell_volume                      1117.44267385

loop_
_atom_site_label
_atom_site_type_symbol
_atom_type_description
_atom_site_fract_x
_atom_site_fract_y
_atom_site_fract_z
_atom_type_partial_charge
C1    C     C_R   0.260071 0.500312 0.504185 0.971420
C2    C     C_R   0.486984 0.499612 0.739931 0.949441
C3    C     C_R   0.549241 0.761053 0.102051 0.583001
C4    C     C_R   0.392530 0.738484 0.888636 0.581162
C5    C     C_R   0.492292 0.878234 0.047134 -0.366035
C6    C     C_R   0.410228 0.866348 0.946394 -0.356453
C7    C     C_R   0.458445 0.623304 0.938791 -0.080002
C8    C     C_R   0.513254 0.630998 0.057563 -0.074880
C9    C     C_R   0.528405 0.506223 0.125695 -0.059347
C10   C     C_R   0.474324 0.499077 0.874010 -0.052697
C11   C     C_R   0.528370 0.381133 0.064214 -0.222445
C12   C     C_R   0.740384 0.498330 0.499776 0.945303
C13   C     C_R   0.506735 0.378293 0.937766 -0.202838
C14   C     C_R   0.067231 0.387866 0.563650 0.435746
C15   C     C_R   0.938458 0.379739 0.551026 0.447620
C16   C     C_R   0.873159 0.493089 0.498426 -0.209802
C17   C     C_R   0.127924 0.499320 0.507556 -0.189283
C18   C     C_3   0.709969 0.888695 0.192703 -0.326161
C19   C     C_3   0.252175 0.834788 0.739384 -0.279952
C20   C     C_3   0.159048 0.175937 0.599132 -0.222440
C21   C     C_3   0.870393 0.163291 0.513753 -0.314788
C22   C     C_R   0.935256 0.604501 0.446530 -0.252898
C23   C     C_R   0.062908 0.606144 0.448528 -0.290389
C24   C     C_R   0.565361 0.070084 0.588979 -0.113653
C25   C     C_R   0.434121 0.074062 0.411383 -0.136921
C26   C     C_R   0.566032 0.925912 0.588506 -0.086205
C27   C     C_R   0.433792 0.929875 0.411631 -0.062396
C28   C     C_R   0.513845 0.501537 0.259992 0.899023
H1    H     H_    0.544375 0.285176 0.113799 0.158840
H2    H     H_    0.381018 0.876527 0.341115 0.131722
H3    H     H_    0.656478 0.973411 0.236414 0.164827
H4    H     H_    0.739949 0.916232 0.095757 0.161696
H5    H     H_    0.795838 0.872651 0.249718 0.178609
H6    H     H_    0.325228 0.904471 0.703359 0.150930
H7    H     H_    0.189473 0.886704 0.807158 0.155045
H8    H     H_    0.193949 0.805500 0.657932 0.195062
H9    H     H_    0.251511 0.142314 0.635985 0.178508
H10   H     H_    0.090349 0.099772 0.631949 0.168195
H11   H     H_    0.165503 0.175893 0.494671 0.121771
H12   H     H_    0.516445 0.281614 0.890117 0.165945
H13   H     H_    0.952010 0.157702 0.449601 0.111071
H14   H     H_    0.864942 0.064129 0.564765 0.174875
H15   H     H_    0.785172 0.173342 0.455072 0.198765
H16   H     H_    0.507835 0.979171 0.083681 0.164412
H17   H     H_    0.363908 0.958740 0.913568 0.168055
H18   H     H_    0.885025 0.689532 0.403207 0.192523
H19   H     H_    0.110813 0.691081 0.404736 0.175756
H20   H     H_    0.617519 0.123404 0.659972 0.164055
H21   H     H_    0.381499 0.130522 0.340700 0.135623
H22   H     H_    0.618640 0.869433 0.659191 0.137710
N1    N     N_R   0.500000 0.857200 0.500000 -0.066889
N2    N     N_R   0.500000 0.142810 0.500000 -0.083750
O1    O     O_R   0.316770 0.614620 0.499990 -0.625405
O2    O     O_3   0.305185 0.715261 0.793235 -0.593906
O3    O     O_3   0.130391 0.304926 0.650187 -0.577589
O4    O     O_3   0.876729 0.269269 0.603153 -0.574669
O5    O     O_R   0.683230 0.614620 0.500010 -0.616051
O6    O     O_R   0.316800 0.385290 0.500000 -0.612286
O7    O     O_R   0.683200 0.385290 0.500000 -0.599426
O8    O     O_R   0.500010 0.614690 0.316770 -0.579341
O9    O     O_R   0.499990 0.614690 0.683230 -0.602401
O10   O     O_R   0.500040 0.385360 0.316770 -0.649475
O11   O     O_R   0.499960 0.385360 0.683230 -0.632001
O12   O     O_3   0.640660 0.767027 0.195809 -0.587357
Zn1   Zn    Zn3+2 0.500000 0.653120 0.500000 0.984970
Zn2   Zn    Zn3+2 0.500000 0.346880 0.500000 0.948451

loop_
_geom_bond_atom_site_label_1
_geom_bond_atom_site_label_2
_ccdc_geom_bond_type
C24   N2    A    
C21   O4    S    
C10   C13   A    
C6    H17   S    
C7    C10   A    
C20   H10   S    
C1    C17   S    
C2    O9    A    
C2    C10   S    
C15   O4    S    
C23   H19   S    
C28   O8    A    
C14   O3    S    
O11   Zn2   S    
C7    C8    A    
C19   H7    S    
C3    O12   S    
C27   H2    S    
C20   H9    S    
C9    C11   A    
C14   C17   A    
C18   O12   S    
C17   C23   A    
C12   C16   S    
C1    O6    A    
O1    Zn1   S    
C4    C7    A    
C21   H13   S    
C12   O5    A    
C19   O2    S    
C22   H18   S    
C5    H16   S    
C27   N1    A    
O8    Zn1   S    
C20   O3    S    
C19   H8    S    
C26   H22   S    
O7    Zn2   S    
C25   C27   A    
C18   H5    S    
C25   H21   S    
C25   N2    A    
C18   H4    S    
O10   Zn2   S    
C15   C16   A    
C24   H20   S    
O9    Zn1   S    
C11   C13   A    
N2    Zn2   S    
C2    O11   A    
C11   H1    S    
C4    C6    A    
C3    C8    A    
N1    Zn1   S    
O5    Zn1   S    
C5    C6    A    
C20   H11   S    
C1    O1    A    
C14   C15   A    
C13   H12   S    
C16   C22   A    
C18   H3    S    
C4    O2    S    
C26   N1    A    
C12   O7    A    
O6    Zn2   S    
C22   C23   A    
C21   H15   S    
C21   H14   S    
C9    C28   S    
C24   C26   A    
C8    C9    A    
C3    C5    A    
C19   H6    S    
C28   O10   A    
