data_mof_unit_35475.cif
_audit_creation_date              2012-12-10T20:36:41-0500
_audit_creation_method            fapswitch 2.2
_symmetry_space_group_name_H-M    P1
_symmetry_Int_Tables_number       1
_space_group_crystal_system       triclinic
_cell_length_a                    10.611163
_cell_length_b                    10.713118
_cell_length_c                    9.946641
_cell_angle_alpha                 91.566002
_cell_angle_beta                  89.594481
_cell_angle_gamma                 93.580544
_cell_volume                      1128.07562144

loop_
_atom_site_label
_atom_site_type_symbol
_atom_type_description
_atom_site_fract_x
_atom_site_fract_y
_atom_site_fract_z
_atom_type_partial_charge
C1    C     C_R   0.501673 0.260617 0.497971 0.857056
C2    C     C_R   0.567210 0.943046 0.594527 -0.047626
C3    C     C_3   0.566430 0.955405 0.745941 0.499687
C4    C     C_R   0.257626 0.498829 0.500330 0.900071
C5    C     C_3   0.595442 0.095856 0.730811 -0.237700
C6    C     C_R   0.472850 0.391951 0.068014 0.110086
C7    C     C_R   0.557010 0.598188 0.071178 0.489740
C8    C     C_R   0.553573 0.596970 0.928253 -0.097358
C9    C     C_R   0.467613 0.393489 0.926856 0.101339
C10   C     C_3   0.348161 0.310861 0.923180 -0.130709
C11   C     C_3   0.362289 0.299823 0.076635 -0.186980
C12   C     C_3   0.963648 0.502723 0.367181 0.515426
C13   C     C_R   0.494854 0.739378 0.501913 0.882441
C14   C     C_R   0.742382 0.500132 0.498609 0.912854
C15   C     C_3   0.037648 0.495006 0.626275 -0.099659
C16   C     C_3   0.949802 0.394290 0.552482 -0.263913
C17   C     C_3   0.877140 0.499628 0.492890 -0.146448
C18   C     C_3   0.964507 0.598080 0.564191 0.045382
C19   C     C_3   0.050305 0.601560 0.440923 -0.011694
C20   C     C_3   0.037642 0.397361 0.426468 -0.254034
C21   C     C_3   0.122926 0.498261 0.500266 -0.086342
C22   C     C_R   0.581755 0.070735 0.583313 0.033110
C23   C     C_R   0.508785 0.129129 0.491255 -0.064420
C24   C     C_R   0.438159 0.058480 0.394506 -0.154668
C25   C     C_R   0.429304 0.929343 0.401303 -0.100345
C26   C     C_R   0.490358 0.871685 0.505077 -0.056016
H1    H     H_    0.906716 0.307856 0.596803 0.171367
H2    H     H_    0.750152 0.900795 0.752290 0.185525
H3    H     H_    0.683970 0.933337 0.902532 0.258027
H4    H     H_    0.737426 0.232069 0.730359 0.211742
H5    H     H_    0.730378 0.148724 0.869137 0.214088
H6    H     H_    0.755481 0.797041 0.313407 0.353466
H7    H     H_    0.157641 0.322958 0.901237 0.212581
H8    H     H_    0.237169 0.465082 0.923706 0.212049
H9    H     H_    0.180507 0.283608 0.143003 0.239205
H10   H     H_    0.243117 0.435295 0.141941 0.264705
H11   H     H_    0.002246 0.760576 0.670269 0.212027
H12   H     H_    0.524600 0.155352 0.775982 0.202547
H13   H     H_    0.875920 0.760923 0.569534 0.168085
H14   H     H_    0.038039 0.774753 0.365680 0.217377
H15   H     H_    0.167348 0.758682 0.457744 0.173741
H16   H     H_    0.991278 0.438905 0.002288 0.372922
H17   H     H_    0.291314 0.763693 0.875751 0.380136
H18   H     H_    0.595008 0.674166 0.872991 0.225669
H19   H     H_    0.355941 0.220587 0.868362 0.214171
H20   H     H_    0.391358 0.206548 0.105956 0.203659
H21   H     H_    0.068835 0.494100 0.732350 0.166003
H22   H     H_    0.070727 0.313892 0.371549 0.177914
H23   H     H_    0.383931 0.102899 0.319626 0.160453
H24   H     H_    0.372075 0.874831 0.328407 0.187318
N1    N     N_R   0.499140 0.499140 0.142800 -0.165226
N2    N     N_R   0.499140 0.499180 0.857150 -0.131610
N3    N     N_3   0.666631 0.890220 0.808529 -0.409905
N4    N     N_3   0.724581 0.140688 0.764344 -0.473771
N5    N     N_3   0.240025 0.376470 0.877492 -0.412261
N6    N     N_3   0.260696 0.342832 0.161799 -0.400935
N7    N     N_3   0.921857 0.707159 0.637859 -0.415264
N8    N     N_3   0.109545 0.714658 0.383693 -0.405356
O1    O     O_R   0.500020 0.316790 0.614690 -0.631903
O2    O     O_2   0.558790 0.836620 0.155518 -0.303856
O3    O     O_3   0.717483 0.713009 0.287792 -0.499196
O4    O     O_2   0.792237 0.460376 0.163027 -0.280932
O5    O     O_2   0.940671 0.644774 0.149992 -0.234193
O6    O     O_3   0.019616 0.427193 0.095540 -0.638133
O7    O     O_2   0.417450 0.977508 0.965068 -0.307982
O8    O     O_2   0.314907 0.985899 0.746115 -0.344980
O9    O     O_3   0.373790 0.770149 0.828382 -0.539837
O10   O     O_R   0.500000 0.316760 0.385350 -0.614956
O11   O     O_R   0.313960 0.499990 0.614650 -0.595108
O12   O     O_R   0.313940 0.499950 0.385310 -0.614516
O13   O     O_R   0.500000 0.683240 0.614650 -0.572304
O14   O     O_R   0.499980 0.683210 0.385310 -0.562021
O15   O     O_R   0.686060 0.500050 0.614690 -0.619848
O16   O     O_R   0.686040 0.500010 0.385350 -0.520338
O17   O     O_2   0.747907 0.768977 0.042972 -0.296972
S1    S     S_3+6 0.645221 0.731400 0.141092 0.086024
S2    S     S_3+6 0.924604 0.511049 0.191397 0.044789
S3    S     S_3+6 0.413699 0.924047 0.823811 0.005208
Zn1   Zn    Zn3+2 0.500010 0.500020 0.653130 1.001747
Zn2   Zn    Zn3+2 0.499990 0.499980 0.346870 1.059581

loop_
_geom_bond_atom_site_label_1
_geom_bond_atom_site_label_2
_ccdc_geom_bond_type
O10   Zn2   S    
C15   C18   S    
H7    N5    S    
O6    S2    S    
O4    S2    D    
C15   H21   S    
C6    C9    A    
C4    O12   A    
C7    C8    A    
H4    N4    S    
C14   O16   A    
C19   C21   S    
H15   N8    S    
C1    O1    A    
C15   C16   S    
H13   N7    S    
C1    O10   A    
C18   C19   S    
N1    Zn2   S    
C25   H24   S    
C5    C22   S    
C16   C17   S    
C12   C17   S    
C2    C22   A    
C23   C24   A    
C6    N1    A    
N2    Zn1   S    
C9    C10   S    
C8    N2    A    
C16   H1    S    
H8    N5    S    
O3    S1    S    
O16   Zn2   S    
C5    H12   S    
C14   C17   S    
C9    N2    A    
O13   Zn1   S    
C4    O11   A    
C19   N8    S    
O8    S3    D    
H14   N8    S    
O12   Zn2   S    
C14   O15   A    
C5    N4    S    
C24   C25   A    
O1    Zn1   S    
C6    C11   S    
C13   O13   A    
C25   C26   A    
O2    S1    D    
O17   S1    D    
H10   N6    S    
C18   N7    S    
C16   C20   S    
C12   S2    S    
C12   C20   S    
C10   H19   S    
C17   C18   S    
O15   Zn1   S    
C2    C26   A    
C10   N5    S    
C20   H22   S    
C1    C23   S    
C13   C26   S    
O11   Zn1   S    
H16   O6    S    
O5    S2    D    
C24   H23   S    
O7    S3    D    
H9    N6    S    
C8    H18   S    
C3    C5    S    
H6    O3    S    
H2    N3    S    
C7    S1    S    
C13   O14   A    
O9    S3    S    
C2    C3    S    
C7    N1    A    
O14   Zn2   S    
C4    C21   S    
C3    N3    S    
H3    N3    S    
C12   C19   S    
H5    N4    S    
C10   C11   S    
C15   C21   S    
C20   C21   S    
H17   O9    S    
C22   C23   A    
C11   H20   S    
C3    S3    S    
H11   N7    S    
C11   N6    S    
