data_mof_unit_31161.cif
_audit_creation_date              2012-12-10T16:48:00-0500
_audit_creation_method            fapswitch 2.2
_symmetry_space_group_name_H-M    P1
_symmetry_Int_Tables_number       1
_space_group_crystal_system       triclinic
_cell_length_a                    7.799221
_cell_length_b                    8.538084
_cell_length_c                    10.673144
_cell_angle_alpha                 91.451757
_cell_angle_beta                  84.510213
_cell_angle_gamma                 93.365085
_cell_volume                      706.110137624

loop_
_atom_site_label
_atom_site_type_symbol
_atom_type_description
_atom_site_fract_x
_atom_site_fract_y
_atom_site_fract_z
_atom_type_partial_charge
C1    C     C_R   0.544991 0.794434 0.505794 0.942111
C2    C     C_2   0.567070 0.958593 0.509115 -0.389807
C3    C     C_3   0.288407 0.996143 0.651119 -0.379457
C4    C     C_3   0.272543 0.108189 0.766258 -0.376561
C5    C     C_3   0.141043 0.042214 0.869577 -0.871758
C6    C     C_2   0.437077 0.047714 0.553847 -0.072539
C7    C     C_R   0.501306 0.508720 0.737271 0.924193
C8    C     C_R   0.455185 0.206221 0.514423 0.914869
C9    C     C_R   0.501094 0.503033 0.262398 0.969365
C10   C     C_2   0.645980 0.562539 0.058449 0.476087
C11   C     C_2   0.505767 0.504125 0.129250 -0.363073
C12   C     C_2   0.650085 0.545765 0.922466 -0.273511
C13   C     C_2   0.503342 0.541055 0.868091 -0.387584
H1    H     H_    0.394426 0.447149 0.089940 0.102768
H2    H     H_    0.399900 0.127355 0.804673 0.223413
H3    H     H_    0.229670 0.223067 0.739160 0.256461
H4    H     H_    0.165713 0.989294 0.605649 0.221258
H5    H     H_    0.308257 0.879531 0.688950 0.223845
H6    H     H_    0.061161 0.690980 0.662201 0.329962
H7    H     H_    0.773903 0.533502 0.868101 0.197422
H8    H     H_    0.381084 0.567362 0.919517 0.156198
H9    H     H_    0.682575 0.005509 0.454134 0.167603
H10   H     H_    0.013968 0.382150 0.404442 0.149842
H11   H     H_    0.874414 0.668014 0.045372 0.324781
H12   H     H_    0.012407 0.022190 0.833502 0.269897
H13   H     H_    0.182475 0.929732 0.903523 0.258984
H14   H     H_    0.130040 0.127086 0.950132 0.256750
N1    N     N_2   0.950320 0.457950 0.466680 -0.061481
N2    N     N_2   0.049680 0.542050 0.533320 0.099685
O1    O     O_R   0.389250 0.738570 0.508180 -0.631467
O2    O     O_3   0.968471 0.639538 0.615990 -0.644204
O3    O     O_R   0.678390 0.711630 0.486820 -0.553743
O4    O     O_R   0.355470 0.513470 0.691600 -0.661579
O5    O     O_R   0.644610 0.486520 0.670240 -0.562818
O6    O     O_R   0.321610 0.288370 0.513180 -0.644247
O7    O     O_R   0.610750 0.261430 0.491820 -0.639123
O8    O     O_R   0.355390 0.513480 0.329760 -0.641094
O9    O     O_R   0.644530 0.486530 0.308400 -0.557730
O10   O     O_3   0.786343 0.631667 0.113239 -0.742958
Zn1   Zn    Zn3+2 0.306940 0.517990 0.514260 0.953917
Zn2   Zn    Zn3+2 0.693060 0.482010 0.485740 1.035319

loop_
_geom_bond_atom_site_label_1
_geom_bond_atom_site_label_2
_ccdc_geom_bond_type
C4    H3    S    
C6    C8    S    
O3    Zn2   S    
C2    H9    S    
C7    O4    A    
C3    C6    S    
H6    O2    S    
C12   H7    S    
C4    H2    S    
C9    O8    A    
O6    Zn1   S    
O1    Zn1   S    
N2    O2    S    
H10   N1    S    
C9    C11   S    
O7    Zn2   S    
C2    C6    D    
O5    Zn2   S    
C10   C12   S    
O9    Zn2   S    
C5    H12   S    
N2    Zn1   S    
C1    O1    A    
C7    O5    A    
C3    H4    S    
O8    Zn1   S    
C11   H1    S    
O4    Zn1   S    
C10   C11   D    
C13   H8    S    
C3    C4    S    
N1    Zn2   S    
C7    C13   S    
H11   O10   S    
C12   C13   D    
C3    H5    S    
C1    C2    S    
C8    O7    A    
N1    N2    D    
C9    O9    A    
C5    H14   S    
C10   O10   S    
C1    O3    A    
C5    H13   S    
C4    C5    S    
C8    O6    A    
