data_mof_unit_27906.cif
_audit_creation_date              2012-12-10T17:22:07-0500
_audit_creation_method            fapswitch 2.2
_symmetry_space_group_name_H-M    P1
_symmetry_Int_Tables_number       1
_space_group_crystal_system       triclinic
_cell_length_a                    15.876708
_cell_length_b                    10.851614
_cell_length_c                    9.624717
_cell_angle_alpha                 88.922765
_cell_angle_beta                  90.561319
_cell_angle_gamma                 94.060802
_cell_volume                      1653.70740312

loop_
_atom_site_label
_atom_site_type_symbol
_atom_type_description
_atom_site_fract_x
_atom_site_fract_y
_atom_site_fract_z
_atom_type_partial_charge
C1    C     C_R   0.501614 0.261946 0.502652 0.810710
C2    C     C_3   0.949092 0.417609 0.625419 0.131742
C3    C     C_3   0.917136 0.500638 0.504695 0.072817
C4    C     C_3   0.956821 0.635270 0.522758 0.168085
C5    C     C_3   0.055714 0.636212 0.522620 0.212487
C6    C     C_1   0.824697 0.498746 0.502800 0.058465
C7    C     C_1   0.175334 0.501026 0.499656 0.030601
C8    C     C_1   0.250807 0.500054 0.498629 -0.086834
C9    C     C_R   0.485789 0.104619 0.770709 -0.239009
C10   C     C_R   0.452729 0.036151 0.884098 -0.200143
C11   C     C_R   0.416010 0.917695 0.865360 0.442505
C12   C     C_R   0.340391 0.499376 0.499511 0.827948
C13   C     C_R   0.419428 0.863800 0.735606 -0.186701
C14   C     C_R   0.460242 0.928135 0.622742 0.037175
C15   C     C_R   0.482466 0.055718 0.634538 0.114577
C16   C     C_R   0.500669 0.126444 0.509777 -0.089915
C17   C     C_R   0.509180 0.065560 0.384061 -0.159614
C18   C     C_R   0.502318 0.938261 0.379955 -0.157468
C19   C     C_R   0.481012 0.868493 0.499328 -0.073020
C20   C     C_R   0.595711 0.683775 0.147499 -0.101879
C21   C     C_R   0.618412 0.796403 0.085443 -0.242758
C22   C     C_R   0.609242 0.810271 0.944435 -0.157778
C23   C     C_R   0.491929 0.735924 0.499103 0.815043
C24   C     C_R   0.589409 0.706371 0.863717 0.304476
C25   C     C_R   0.546931 0.595441 0.925411 0.137626
C26   C     C_R   0.547802 0.591050 0.075285 0.147533
C27   C     C_R   0.451668 0.415572 0.072944 0.350418
C28   C     C_R   0.453420 0.414487 0.926024 -0.089453
C29   C     C_R   0.659461 0.497606 0.500369 0.844523
C30   C     C_3   0.046815 0.417330 0.622035 -0.358745
C31   C     C_3   0.045485 0.453383 0.363612 -0.434360
C32   C     C_3   0.948046 0.453004 0.364290 -0.442343
C33   C     C_1   0.749115 0.497722 0.501490 -0.072725
C34   C     C_3   0.083176 0.502590 0.502715 0.085769
Cu1   Cu    Cu3+1 0.499990 0.499990 0.640660 0.992092
Cu2   Cu    Cu3+1 0.500010 0.500010 0.359340 1.010086
H1    H     H_    0.073596 0.448393 0.723783 0.210526
H2    H     H_    0.930515 0.455097 0.726509 0.188870
H3    H     H_    0.937398 0.691950 0.431858 0.118326
H4    H     H_    0.523509 0.116350 0.288202 0.177769
H5    H     H_    0.517849 0.191947 0.795800 0.191513
H6    H     H_    0.455437 0.075826 0.986594 0.188088
H7    H     H_    0.389643 0.771752 0.724285 0.191983
H8    H     H_    0.514660 0.894496 0.283002 0.184872
H9    H     H_    0.066364 0.321999 0.607517 0.219735
H10   H     H_    0.615018 0.674988 0.253041 0.203399
H11   H     H_    0.647974 0.871073 0.145832 0.171154
H12   H     H_    0.633830 0.897109 0.897772 0.192662
H13   H     H_    0.414389 0.345515 0.870740 0.169356
H14   H     H_    0.070853 0.511982 0.275285 0.202491
H15   H     H_    0.064165 0.357862 0.346707 0.230177
H16   H     H_    0.920014 0.357957 0.345001 0.244948
H17   H     H_    0.926892 0.512662 0.277189 0.188827
H18   H     H_    0.079140 0.694198 0.432466 0.116998
N1    N     N_R   0.500800 0.501210 0.147910 -0.212268
N2    N     N_R   0.500820 0.501290 0.852040 -0.213650
O1    O     O_R   0.499990 0.319640 0.618810 -0.607582
O2    O     O_R   0.500000 0.319660 0.381240 -0.549138
O3    O     O_R   0.379430 0.499990 0.618840 -0.577317
O4    O     O_R   0.379440 0.500020 0.381260 -0.523584
O5    O     O_R   0.500000 0.680340 0.618760 -0.577349
O6    O     O_R   0.500010 0.680360 0.381190 -0.592708
O7    O     O_R   0.620560 0.499980 0.618740 -0.527036
O8    O     O_R   0.620570 0.500010 0.381160 -0.616228
Br1   Br    Br    0.897545 0.248454 0.621820 -0.461171
Cl1   Cl    Cl    0.371167 0.833181 0.006793 -0.573510
Br2   Br    Br    0.373156 0.296947 0.159907 -0.472840
Br3   Br    Br    0.668769 0.726458 0.714002 -0.441011
Cl2   Cl    Cl    0.106309 0.706865 0.672735 -0.488040
Cl3   Cl    Cl    0.914537 0.707675 0.671476 -0.460200

loop_
_geom_bond_atom_site_label_1
_geom_bond_atom_site_label_2
_ccdc_geom_bond_type
Cu1   N2    S    
C22   H12   S    
C24   C25   A    
C4    H3    S    
C18   H8    S    
C10   H6    S    
C32   H17   S    
C9    C10   A    
C2    H2    S    
C30   H9    S    
C9    H5    S    
Cu1   Cu2   S    
C14   C15   A    
C25   N2    A    
C8    C12   S    
Cu1   O1    S    
C3    C6    S    
C5    C34   S    
C2    Br1   S    
C29   O7    A    
C17   C18   A    
C28   N2    A    
C29   O8    A    
C1    C16   S    
C7    C8    T    
Cu1   O5    S    
C6    C33   T    
C31   C32   S    
C13   C14   A    
C26   N1    A    
C11   C13   A    
C16   C17   A    
C1    O2    A    
Cu2   O6    S    
C4    Cl3   S    
Cu2   O4    S    
C21   C22   A    
C2    C3    S    
Cu2   O2    S    
C12   O3    A    
C9    C15   A    
C3    C32   S    
C7    C34   S    
C22   C24   A    
C31   C34   S    
C27   Br2   S    
C10   C11   A    
C27   N1    A    
C31   H14   S    
C15   C16   A    
C12   O4    A    
C29   C33   S    
C5    H18   S    
C13   H7    S    
C2    C30   S    
C20   C21   A    
Cu1   O3    S    
C18   C19   A    
C28   H13   S    
C23   O5    A    
C27   C28   A    
Cu2   N1    S    
C30   C34   S    
C19   C23   S    
C32   H16   S    
Cu1   O7    S    
C21   H11   S    
C25   C26   A    
Cu2   O8    S    
C24   Br3   S    
C5    Cl2   S    
C14   C19   A    
C17   H4    S    
C23   O6    A    
C20   H10   S    
C3    C4    S    
C30   H1    S    
C31   H15   S    
C4    C5    S    
C20   C26   A    
C11   Cl1   S    
C1    O1    A    
