data_mof_unit_17290.cif
_audit_creation_date              2012-12-10T20:54:26-0500
_audit_creation_method            fapswitch 2.2
_symmetry_space_group_name_H-M    P1
_symmetry_Int_Tables_number       1
_space_group_crystal_system       triclinic
_cell_length_a                    12.857091
_cell_length_b                    15.835713
_cell_length_c                    15.060838
_cell_angle_alpha                 89.981923
_cell_angle_beta                  97.928492
_cell_angle_gamma                 90.327452
_cell_volume                      3037.04300482

loop_
_atom_site_label
_atom_site_type_symbol
_atom_type_description
_atom_site_fract_x
_atom_site_fract_y
_atom_site_fract_z
_atom_type_partial_charge
C1    C     C_R   0.498153 0.339047 0.499749 0.905869
C2    C     C_R   0.501847 0.660953 0.500251 0.905867
C3    C     C_R   0.405519 0.952577 0.483227 -0.059027
C4    C     C_R   0.594485 0.047423 0.516775 -0.059029
C5    C     C_1   0.507286 0.823650 0.501821 -0.037936
C6    C     C_1   0.492717 0.176350 0.498178 -0.037947
C7    C     C_1   0.494135 0.251031 0.499061 -0.179097
C8    C     C_1   0.505866 0.748969 0.500939 -0.179090
C9    C     C_R   0.528579 0.426625 0.955913 -0.048558
C10   C     C_R   0.471412 0.573374 0.044086 -0.048545
C11   C     C_R   0.501789 0.500668 0.905247 -0.062421
C12   C     C_R   0.498206 0.499332 0.094752 -0.062420
C13   C     C_R   0.473856 0.573958 0.949894 -0.042043
C14   C     C_R   0.526138 0.426042 0.050105 -0.042037
C15   C     C_1   0.500667 0.500541 0.807056 0.103582
C16   C     C_1   0.499331 0.499458 0.192944 0.103568
C17   C     C_R   0.297579 0.498251 0.481825 0.888625
C18   C     C_R   0.702421 0.501750 0.518175 0.888623
C19   C     C_R   0.814906 0.506195 0.530786 -0.116784
C20   C     C_R   0.185095 0.493806 0.469213 -0.116783
C21   C     C_R   0.018256 0.444806 0.392271 -0.043843
C22   C     C_R   0.981746 0.555190 0.607732 -0.043843
C23   C     C_R   0.127559 0.450821 0.396298 -0.072303
C24   C     C_R   0.872443 0.549173 0.603706 -0.072303
C25   C     C_R   0.136269 0.530912 0.535707 -0.289542
C26   C     C_R   0.863731 0.469092 0.464290 -0.289542
C27   C     C_R   0.029763 0.521608 0.536272 0.097320
C28   C     C_R   0.970238 0.478393 0.463728 0.097323
C29   C     C_R   0.598049 0.959187 0.519402 -0.046985
C30   C     C_R   0.401956 0.040813 0.480596 -0.046981
C31   C     C_R   0.503860 0.912877 0.502368 0.025595
C32   C     C_R   0.496145 0.087123 0.497630 0.025596
H1    H     H_    0.816720 0.433517 0.411726 0.180636
H2    H     H_    0.183280 0.566492 0.588268 0.180633
N1    N     N_1   0.499970 0.500020 0.270540 -0.080966
N2    N     N_1   0.500030 0.499980 0.729460 -0.080965
O1    O     O_R   0.500000 0.378020 0.573650 -0.604885
O2    O     O_R   0.500000 0.621980 0.426350 -0.604886
O3    O     O_R   0.500050 0.378020 0.426320 -0.608450
O4    O     O_R   0.499950 0.621980 0.573680 -0.608453
O5    O     O_R   0.346340 0.499990 0.561490 -0.618792
O6    O     O_R   0.653660 0.500010 0.438510 -0.618791
O7    O     O_R   0.346380 0.499990 0.414160 -0.607846
O8    O     O_R   0.653620 0.500010 0.585840 -0.607842
Zn1   Zn    Zn3+2 0.499970 0.500000 0.598370 0.990113
Zn2   Zn    Zn3+2 0.500030 0.500000 0.401630 0.990111
C33   C     C_R   0.818868 0.589666 0.673831 0.151686
C34   C     C_R   0.822377 0.552316 0.758756 -0.105756
C35   C     C_R   0.769201 0.589327 0.823671 -0.157750
C36   C     C_R   0.712390 0.663629 0.804180 -0.109505
C37   C     C_R   0.708842 0.701211 0.719811 -0.095628
C38   C     C_R   0.761967 0.664471 0.654750 -0.139567
H3    H     H_    0.865424 0.494356 0.774217 0.114346
H4    H     H_    0.771611 0.560253 0.888967 0.121913
H5    H     H_    0.671034 0.691998 0.854427 0.131176
H6    H     H_    0.664590 0.758608 0.704674 0.135788
H7    H     H_    0.758157 0.693707 0.589368 0.120638
C39   C     C_R   0.181137 0.410316 0.326182 0.151688
C40   C     C_R   0.238038 0.335513 0.345280 -0.139566
C41   C     C_R   0.291165 0.298760 0.280228 -0.095619
C42   C     C_R   0.287620 0.336326 0.195851 -0.109497
C43   C     C_R   0.230809 0.410626 0.176343 -0.157761
C44   C     C_R   0.177631 0.447650 0.241249 -0.105764
H8    H     H_    0.241846 0.306289 0.410667 0.120636
H9    H     H_    0.335417 0.241365 0.295378 0.135791
H10   H     H_    0.328978 0.307948 0.145611 0.131183
H11   H     H_    0.228401 0.439688 0.111042 0.121917
H12   H     H_    0.134583 0.505608 0.225775 0.114344
C45   C     C_R   0.955491 0.403728 0.313487 0.106806
C46   C     C_R   0.893335 0.452940 0.249340 -0.166242
C47   C     C_R   0.835456 0.414622 0.174526 -0.130973
C48   C     C_R   0.839650 0.327162 0.163202 -0.088407
C49   C     C_R   0.901121 0.277821 0.226971 -0.134519
C50   C     C_R   0.958967 0.315878 0.301942 -0.158367
H13   H     H_    0.890061 0.520799 0.257319 0.130772
H14   H     H_    0.787552 0.452698 0.125223 0.129899
H15   H     H_    0.795233 0.297635 0.105029 0.138301
H16   H     H_    0.904068 0.210087 0.218239 0.134016
H17   H     H_    0.006462 0.277114 0.350897 0.135733
C51   C     C_R   0.044515 0.596255 0.686522 0.106805
C52   C     C_R   0.041030 0.684100 0.698093 -0.158375
C53   C     C_R   0.098877 0.722144 0.773072 -0.134523
C54   C     C_R   0.160357 0.672792 0.836823 -0.088403
C55   C     C_R   0.164562 0.585336 0.825474 -0.130979
C56   C     C_R   0.106681 0.547033 0.750652 -0.166241
H18   H     H_    0.993527 0.722873 0.649151 0.135734
H19   H     H_    0.095922 0.789874 0.781823 0.134016
H20   H     H_    0.204775 0.702308 0.895002 0.138306
H21   H     H_    0.212475 0.547253 0.874762 0.129903
H22   H     H_    0.109963 0.479177 0.742653 0.130775
C57   C     C_R   0.692705 0.098688 0.534595 0.143716
C58   C     C_R   0.725090 0.149267 0.466628 -0.140307
C59   C     C_R   0.813537 0.201441 0.484927 -0.139232
C60   C     C_R   0.870669 0.203056 0.570851 -0.102936
C61   C     C_R   0.839519 0.152339 0.638592 -0.144771
C62   C     C_R   0.750846 0.100292 0.620658 -0.142424
H23   H     H_    0.680935 0.149091 0.399961 0.135781
H24   H     H_    0.837325 0.241025 0.432669 0.139338
H25   H     H_    0.938901 0.243727 0.584952 0.129622
H26   H     H_    0.883639 0.153806 0.705190 0.124818
H27   H     H_    0.726667 0.062110 0.673941 0.117946
C63   C     C_R   0.307296 0.901311 0.465429 0.143709
C64   C     C_R   0.274925 0.850744 0.533415 -0.140304
C65   C     C_R   0.186475 0.798567 0.515139 -0.139229
C66   C     C_R   0.129325 0.796937 0.429220 -0.102933
C67   C     C_R   0.160460 0.847643 0.361460 -0.144757
C68   C     C_R   0.249136 0.899693 0.379371 -0.142414
H28   H     H_    0.319095 0.850931 0.600077 0.135778
H29   H     H_    0.162698 0.758992 0.567412 0.139342
H30   H     H_    0.061091 0.756264 0.415137 0.129627
H31   H     H_    0.116326 0.846164 0.294866 0.124816
H32   H     H_    0.273304 0.937866 0.326075 0.117942
C69   C     C_1   0.698141 0.916115 0.537582 0.161263
N3    N     N_1   0.777902 0.881782 0.552104 -0.227576
C70   C     C_1   0.301863 0.083884 0.462418 0.161253
N4    N     N_1   0.222101 0.118217 0.447899 -0.227576
C71   C     C_1   0.553535 0.350022 0.101482 0.136161
N5    N     N_1   0.575094 0.289332 0.142602 -0.220551
C72   C     C_1   0.446456 0.649976 0.898516 0.136140
N6    N     N_1   0.424895 0.710666 0.857394 -0.220548
C73   C     C_R   0.559145 0.349589 0.909771 0.127529
C74   C     C_R   0.493386 0.278124 0.902005 -0.140393
C75   C     C_R   0.520426 0.206828 0.855602 -0.134408
C76   C     C_R   0.612988 0.206500 0.816609 -0.099271
C77   C     C_R   0.678957 0.277334 0.824259 -0.125450
C78   C     C_R   0.652357 0.348665 0.870811 -0.155593
H33   H     H_    0.420904 0.278038 0.931105 0.121931
H34   H     H_    0.469363 0.151966 0.849492 0.130175
H35   H     H_    0.633494 0.151387 0.780455 0.122009
H36   H     H_    0.750530 0.277045 0.793914 0.127976
H37   H     H_    0.703849 0.403307 0.876051 0.118019
C79   C     C_R   0.440829 0.650406 0.090226 0.127526
C80   C     C_R   0.506555 0.721898 0.097955 -0.140375
C81   C     C_R   0.479497 0.793193 0.144348 -0.134414
C82   C     C_R   0.386950 0.793495 0.183367 -0.099266
C83   C     C_R   0.321013 0.722636 0.175754 -0.125446
C84   C     C_R   0.347631 0.651305 0.129211 -0.155599
H38   H     H_    0.579026 0.722005 0.068835 0.121933
H39   H     H_    0.530534 0.848076 0.150430 0.130169
H40   H     H_    0.366428 0.848609 0.219513 0.122001
H41   H     H_    0.249451 0.722905 0.206119 0.127975
H42   H     H_    0.296164 0.596644 0.123999 0.118025

loop_
_geom_bond_atom_site_label_1
_geom_bond_atom_site_label_2
_ccdc_geom_bond_type
C23   C39   S    
C6    C32   S    
C84   H42   S    
C59   C60   A    
C49   C50   A    
C61   C62   A    
C66   H30   S    
C52   C53   A    
C75   C76   A    
C40   H8    S    
C51   C56   A    
C43   H11   S    
C54   C55   A    
C78   H37   S    
C18   C19   S    
C18   O6    A    
C16   N1    T    
O6    Zn2   S    
C65   H29   S    
C67   C68   A    
C35   H4    S    
C17   C20   S    
C37   H6    S    
C68   H32   S    
C74   H33   S    
C19   C26   A    
C48   H15   S    
C63   C64   A    
C57   C62   A    
C11   C15   S    
C42   H10   S    
C12   C16   S    
C79   C80   A    
C9    C73   S    
C49   H16   S    
C46   C47   A    
C52   H18   S    
C57   C58   A    
C1    O1    A    
C25   H2    S    
C67   H31   S    
C4    C57   S    
C42   C43   A    
C82   C83   A    
C54   H20   S    
C80   H38   S    
C40   C41   A    
C62   H27   S    
C82   H40   S    
C77   H36   S    
C65   C66   A    
C13   C72   S    
C58   H23   S    
C6    C7    T    
C17   O5    A    
C30   C70   S    
C34   H3    S    
C37   C38   A    
C45   C50   A    
C55   C56   A    
C48   C49   A    
C81   H39   S    
C61   H26   S    
C51   C52   A    
C39   C40   A    
C21   C45   S    
C41   C42   A    
C3    C30   A    
C9    C14   A    
C17   O7    A    
C43   C44   A    
C18   O8    A    
C2    O2    A    
C26   H1    S    
C33   C34   A    
C20   C23   A    
C56   H22   S    
C14   C71   S    
C36   C37   A    
N2    Zn1   S    
C3    C31   A    
C9    C11   A    
C73   C74   A    
C4    C32   A    
C10   C12   A    
O3    Zn2   S    
C3    C63   S    
C34   C35   A    
C21   C28   A    
C12   C14   A    
C41   H9    S    
C35   C36   A    
C60   C61   A    
C22   C27   A    
C21   C23   A    
C80   C81   A    
C22   C24   A    
C55   H21   S    
O1    Zn1   S    
C63   C68   A    
C15   N2    T    
C64   C65   A    
O8    Zn1   S    
C69   N3    T    
C39   C44   A    
C29   C69   S    
C44   H12   S    
C1    C7    S    
C24   C33   S    
C2    C8    S    
C4    C29   A    
C83   C84   A    
C10   C13   A    
C47   H14   S    
C5    C8    T    
C72   N6    T    
C33   C38   A    
C25   C27   A    
C66   C67   A    
C81   C82   A    
C26   C28   A    
C36   H5    S    
C50   H17   S    
C19   C24   A    
C79   C84   A    
C22   C51   S    
C73   C78   A    
C29   C31   A    
C71   N5    T    
C30   C32   A    
C11   C13   A    
C75   H34   S    
C77   C78   A    
C60   H25   S    
C58   C59   A    
C83   H41   S    
C76   H35   S    
C45   C46   A    
O7    Zn2   S    
C10   C79   S    
O2    Zn2   S    
C38   H7    S    
C1    O3    A    
C2    O4    A    
C53   H19   S    
C47   C48   A    
O4    Zn1   S    
C46   H13   S    
C53   C54   A    
C20   C25   A    
C27   C28   A    
O5    Zn1   S    
C64   H28   S    
C74   C75   A    
N1    Zn2   S    
C59   H24   S    
C70   N4    T    
C76   C77   A    
C5    C31   S    
