data_mof_unit_60696.cif
_audit_creation_date              2013-03-05T16:00:40-0500
_audit_creation_method            fapswitch 2.2
_symmetry_space_group_name_H-M    P1
_symmetry_Int_Tables_number       1
_space_group_crystal_system       triclinic
_cell_length_a                    18.745265
_cell_length_b                    18.735559
_cell_length_c                    18.710877
_cell_angle_alpha                 109.372775
_cell_angle_beta                  109.416555
_cell_angle_gamma                 109.574754
_cell_volume                      5061.68149963

loop_
_atom_site_label
_atom_site_type_symbol
_atom_site_description
_atom_site_fract_x
_atom_site_fract_y
_atom_site_fract_z
_atom_type_partial_charge
O1    O     O_R   0.591640 0.539900 0.448310 -0.602226
O2    O     O_R   0.591610 0.643330 0.551710 -0.580233
C1    C     C_R   0.621587 0.620050 0.501447 0.997078
O3    O     O_R   0.408400 0.448280 0.356670 -0.611442
O4    O     O_R   0.408370 0.551710 0.460080 -0.580953
C2    C     C_R   0.379871 0.499735 0.379925 0.937617
Zn1   Zn    Zn3+2 0.500020 0.430940 0.430950 1.153690
Zn2   Zn    Zn3+2 0.499980 0.569060 0.569050 1.188727
O5    O     O_R   0.408390 0.356670 0.448290 -0.597835
O6    O     O_R   0.408360 0.460100 0.551690 -0.603936
O7    O     O_R   0.591630 0.448290 0.539920 -0.572441
O8    O     O_R   0.591600 0.551720 0.643330 -0.559178
C3    C     C_R   0.379719 0.379823 0.499906 0.950730
C4    C     C_R   0.619653 0.499480 0.620275 1.042419
H1    H     H_    0.167135 0.110142 0.226029 0.251723
C5    C     C_R   0.230461 0.206348 0.196688 -0.289714
H2    H     H_    0.254297 0.168727 0.164293 0.227049
C6    C     C_R   0.248463 0.287433 0.202944 0.726534
C7    C     C_R   0.218656 0.337239 0.245865 -0.184890
C8    C     C_R   0.167809 0.303422 0.280590 0.106154
C9    C     C_R   0.149100 0.220727 0.272213 0.622000
C10   C     C_R   0.181107 0.173208 0.231337 -0.285359
C11   C     C_R   0.172921 0.423857 0.186734 0.684443
C12   C     C_R   0.186682 0.503292 0.189919 -0.207175
C13   C     C_R   0.264455 0.582648 0.256081 0.022821
C14   C     C_R   0.329431 0.580898 0.318031 0.311387
C15   C     C_R   0.314857 0.500517 0.313705 -0.223667
C16   C     C_R   0.236571 0.421924 0.248757 -0.004668
C17   C     C_R   0.331738 0.708231 0.231640 0.159892
C18   C     C_R   0.343604 0.789405 0.239512 0.571426
C19   C     C_R   0.303697 0.829204 0.275756 -0.404927
H3    H     H_    0.312937 0.891345 0.281072 0.257778
C20   C     C_R   0.252444 0.789560 0.305640 0.548030
C21   C     C_R   0.240117 0.709356 0.298767 0.555548
C22   C     C_R   0.278496 0.667535 0.261077 -0.257977
C23   C     C_R   0.765814 0.754010 0.582736 0.330927
C24   C     C_R   0.827654 0.818147 0.580386 -0.288551
H4    H     H_    0.887042 0.870956 0.640557 0.218299
C25   C     C_R   0.813801 0.813927 0.500651 -0.218560
C26   C     C_R   0.738228 0.745962 0.422119 0.731699
C27   C     C_R   0.676589 0.681520 0.423542 -0.201764
H5    H     H_    0.617834 0.628884 0.362678 0.222925
C28   C     C_R   0.689695 0.685857 0.503195 -0.229739
C29   C     C_R   0.678946 0.504530 0.760770 0.544639
C30   C     C_R   0.743698 0.507148 0.827078 0.206344
C31   C     C_R   0.813983 0.503652 0.817179 -0.317957
C32   C     C_R   0.820091 0.498985 0.743572 -0.249347
H6    H     H_    0.874286 0.496094 0.736409 0.217440
C33   C     C_R   0.755509 0.496199 0.678013 0.660576
C34   C     C_R   0.685272 0.499259 0.686875 -0.360915
C35   C     C_R   0.246737 0.327121 0.507803 -0.253847
H7    H     H_    0.245430 0.385995 0.513004 0.241982
C36   C     C_R   0.182190 0.265091 0.509535 0.322768
C37   C     C_R   0.186385 0.189524 0.503289 -0.356789
C38   C     C_R   0.253868 0.177130 0.496000 0.590843
C39   C     C_R   0.316897 0.238983 0.493388 0.589958
C40   C     C_R   0.313281 0.313925 0.499795 -0.338233
O9    O     O_R   0.948300 0.539910 0.091570 -0.563911
O10   O     O_R   0.051750 0.643320 0.091550 -0.659173
C41   C     C_R   0.001682 0.620066 0.122022 0.947336
O11   O     O_R   0.039910 0.448280 0.091610 -0.548200
O12   O     O_R   0.143370 0.551700 0.091590 -0.628872
C42   C     C_R   0.120252 0.501595 0.121844 0.996073
Zn3   Zn    Zn3+2 0.930950 0.430940 0.999980 1.217484
Zn4   Zn    Zn3+2 0.069100 0.569040 0.999960 1.089658
O13   O     O_R   0.948300 0.356650 0.908390 -0.569027
O14   O     O_R   0.051750 0.460070 0.908380 -0.602404
O15   O     O_R   0.856690 0.448280 0.908350 -0.580760
O16   O     O_R   0.960140 0.551690 0.908340 -0.621425
C43   C     C_R   0.000690 0.379909 0.880560 1.002244
C44   C     C_R   0.879933 0.501271 0.881044 0.997872
O17   O     O_R   0.051710 0.908290 0.460000 -0.575977
O18   O     O_R   0.948270 0.908330 0.356580 -0.586350
C45   C     C_R   0.000457 0.880409 0.379882 1.007742
O19   O     O_R   0.960090 0.908280 0.551610 -0.615424
O20   O     O_R   0.856650 0.908310 0.448190 -0.577785
C46   C     C_R   0.879763 0.879860 0.500104 0.953061
Zn5   Zn    Zn3+2 0.069070 0.999890 0.568970 1.185007
Zn6   Zn    Zn3+2 0.930930 0.999930 0.430860 1.195200
O21   O     O_R   0.051730 0.091500 0.643240 -0.606779
O22   O     O_R   0.948290 0.091530 0.539820 -0.607175
O23   O     O_R   0.143350 0.091510 0.551630 -0.564622
O24   O     O_R   0.039910 0.091550 0.448210 -0.570106
C47   C     C_R   0.001792 0.121797 0.620336 0.955313
C48   C     C_R   0.120105 0.121632 0.501470 1.065876
C49   C     C_R   0.019130 0.764036 0.189748 -0.176676
H8    H     H_    0.032653 0.774643 0.141007 0.209608
C50   C     C_R   0.018094 0.828888 0.251450 0.322976
C51   C     C_R   0.000295 0.813950 0.314169 -0.275778
C52   C     C_R   0.983507 0.735255 0.315115 0.214259
C53   C     C_R   0.984499 0.670350 0.252376 0.269728
C54   C     C_R   0.002858 0.685850 0.190040 -0.207638
C55   C     C_R   0.083124 0.317855 0.831145 0.148407
C56   C     C_R   0.084290 0.255538 0.765655 0.245524
C57   C     C_R   0.004948 0.190770 0.687269 -0.246480
C58   C     C_R   0.926332 0.188781 0.674042 -0.249740
H9    H     H_    0.865431 0.138657 0.614075 0.213814
C59   C     C_R   0.925119 0.249844 0.738854 0.640935
C60   C     C_R   0.003021 0.314119 0.816679 -0.323764
F1    F     F_    0.215377 0.829552 0.342290 -0.575369
F2    F     F_    0.192847 0.673401 0.331255 -0.557056
N1    N     N_R   0.782551 0.757371 0.664964 0.233374
O25   O     O_R   0.828170 0.832420 0.736913 -0.316602
O26   O     O_R   0.763430 0.686412 0.670037 -0.370999
F3    F     F_    0.725214 0.740846 0.344292 -0.574270
F4    F     F_    0.610481 0.508174 0.768528 -0.565985
N2    N     N_R   0.739360 0.516631 0.904804 0.258292
O27   O     O_R   0.808130 0.573335 0.981593 -0.377661
O28   O     O_R   0.664822 0.475292 0.899481 -0.221517
F5    F     F_    0.762585 0.492696 0.607147 -0.581519
N3    N     N_R   0.115041 0.280834 0.519543 0.256217
O29   O     O_R   0.086918 0.259749 0.568404 -0.363710
O30   O     O_R   0.090683 0.327408 0.490043 -0.247793
F6    F     F_    0.257534 0.104172 0.489603 -0.547410
F7    F     F_    0.382522 0.226922 0.486940 -0.574537
N4    N     N_R   0.037173 0.909650 0.250627 0.231858
O31   O     O_R   0.014138 0.909590 0.176855 -0.324150
O32   O     O_R   0.087855 0.984143 0.323191 -0.347558
N5    N     N_R   0.965314 0.721164 0.379597 0.240589
O33   O     O_R   0.900715 0.726738 0.387442 -0.355034
O34   O     O_R   0.010183 0.697991 0.427225 -0.239079
N6    N     N_R   0.964355 0.588579 0.250929 0.253716
O35   O     O_R   0.892129 0.543826 0.247790 -0.256361
O36   O     O_R   0.019263 0.560047 0.255827 -0.266084
N7    N     N_R   0.162683 0.384388 0.911850 0.261624
O37   O     O_R   0.231015 0.432230 0.911184 -0.231322
O38   O     O_R   0.167720 0.395708 0.986191 -0.322074
F8    F     F_    0.294906 0.317539 0.166926 -0.579924
N8    N     N_R   0.165271 0.257650 0.779384 0.255163
O39   O     O_R   0.213494 0.258127 0.848333 -0.258843
O40   O     O_R   0.192701 0.262556 0.724876 -0.313906
F9    F     F_    0.848331 0.247669 0.724968 -0.614293
N9    N     N_R   0.134137 0.351337 0.322883 0.250403
O41   O     O_R   0.181289 0.435651 0.374235 -0.352572
O42   O     O_R   0.057551 0.310215 0.313777 -0.194567
F10   F     F_    0.100796 0.186376 0.304749 -0.589532
F11   F     F_    0.098334 0.347595 0.121809 -0.601038
N10   N     N_R   0.410932 0.660059 0.383848 0.221602
O43   O     O_R   0.412115 0.727199 0.436242 -0.308706
O44   O     O_R   0.484126 0.665526 0.390547 -0.390093
N11   N     N_R   0.373668 0.668394 0.194248 0.270541
O45   O     O_R   0.449310 0.716759 0.205344 -0.209960
O46   O     O_R   0.335022 0.584023 0.145419 -0.285753
F12   F     F_    0.392409 0.829449 0.210349 -0.549279

loop_
_geom_bond_atom_site_label_1
_geom_bond_atom_site_label_2
_geom_bond_distance
_ccdc_geom_bond_type
C38   C39   1.378333 A    
C55   C56   1.396737 A    
N2    O28   1.301233 A    
O18   C45   1.277260 A    
C57   C58   1.396056 A    
O20   Zn6   2.014537 S    
O21   C47   1.277830 A    
N9    O41   1.301000 A    
C32   C33   1.378727 A    
O13   C43   1.276435 A    
C36   C37   1.412528 A    
C39   C40   1.395675 A    
Zn1   O7    2.017463 S    
C1    C28   1.428928 S    
C14   C15   1.406395 A    
C17   C18   1.409630 A    
O4    C2    1.277800 A    
C25   C46   1.431178 S    
C45   C51   1.428787 S    
C23   C24   1.387512 A    
C24   H4    1.084170 S    
C6    C7    1.406574 A    
N11   O46   1.301054 A    
C18   C19   1.396810 A    
O7    C4    1.279441 A    
C49   C50   1.381906 A    
C3    C40   1.428852 S    
O9    C41   1.275765 A    
C18   F12   1.356897 S    
N4    O31   1.301596 A    
C23   N1    1.439134 S    
C21   C22   1.406173 A    
C27   H5    1.084286 S    
O11   C42   1.279284 A    
O5    C3    1.277942 A    
O17   Zn5   2.017817 S    
C6    F8    1.357762 S    
C31   C32   1.396153 A    
H1    C10   1.082635 S    
C19   H3    1.082563 S    
C5    H2    1.082372 S    
Zn4   O14   2.018370 S    
C53   N6    1.438218 S    
C58   C59   1.376709 A    
N2    O27   1.301155 A    
C19   C20   1.393532 A    
C35   C40   1.394943 A    
C8    N9    1.439122 S    
C55   C60   1.407001 A    
C9    F10   1.356711 S    
O12   Zn4   2.017135 S    
C36   N3    1.440591 S    
N5    O34   1.301204 A    
O10   C41   1.281529 A    
C9    C10   1.395998 A    
C27   C28   1.396796 A    
C56   C57   1.412536 A    
O3    Zn1   2.018220 S    
C41   C54   1.435886 S    
O9    Zn3   2.018455 S    
C56   N8    1.437250 S    
O16   C44   1.277269 A    
C35   H7    1.084075 S    
C21   F2    1.355840 S    
C32   H6    1.084208 S    
C12   C13   1.412455 A    
O17   C45   1.276629 A    
C53   C54   1.409901 A    
Zn6   O22   2.017692 S    
C49   H8    1.084265 S    
C13   C14   1.393369 A    
C30   C31   1.409400 A    
O1    C1    1.277571 A    
C47   C57   1.437945 S    
Zn3   O13   2.017762 S    
C50   N4    1.440199 S    
O11   Zn3   2.018500 S    
O12   C42   1.277708 A    
C37   C48   1.430717 S    
Zn5   O23   2.014663 S    
C2    C15   1.428527 S    
Zn2   O8    2.018220 S    
C17   N11   1.441057 S    
C58   H9    1.084000 S    
C8    C9    1.409331 A    
C20   C21   1.395470 A    
O18   Zn6   2.018493 S    
N3    O30   1.301350 A    
C5    C6    1.395593 A    
C11   C16   1.381260 A    
O20   C46   1.278189 A    
N1    O26   1.300766 A    
C7    C16   1.485598 S    
O19   C46   1.279490 A    
C31   C44   1.431214 S    
N10   O44   1.300631 A    
C13   C22   1.487239 S    
O3    C2    1.275375 A    
C26   C27   1.378571 A    
O24   C48   1.278375 A    
O8    C4    1.279115 A    
C59   C60   1.395547 A    
C12   C42   1.437394 S    
N7    O37   1.301152 A    
N6    O36   1.300753 A    
Zn3   O15   2.017048 S    
C25   C26   1.397638 A    
O22   C47   1.282427 A    
C43   C60   1.429433 S    
N9    O42   1.301051 A    
N8    O39   1.301198 A    
C29   C34   1.400629 A    
Zn1   O5    2.015013 S    
C37   C38   1.401155 A    
C5    C10   1.393789 A    
N3    O29   1.300109 A    
O1    Zn1   2.015544 S    
C11   F11   1.361133 S    
O2    Zn2   2.015014 S    
C29   C30   1.390500 A    
C14   N10   1.438529 S    
O6    C3    1.278838 A    
O4    Zn2   2.017463 S    
N5    O33   1.300601 A    
C38   F6    1.359163 S    
C29   F4    1.359722 S    
O23   C48   1.278076 A    
C17   C22   1.419497 A    
C20   F1    1.356171 S    
C52   N5    1.437433 S    
O14   C43   1.276531 A    
C7    C8    1.418527 A    
O2    C1    1.278256 A    
N6    O35   1.301274 A    
C24   C25   1.396380 A    
C49   C54   1.394944 A    
N11   O45   1.301248 A    
O10   Zn4   2.017675 S    
Zn6   O24   2.016150 S    
C52   C53   1.392755 A    
C4    C34   1.433067 S    
O15   C44   1.277195 A    
Zn4   O16   2.018329 S    
C39   F7    1.358587 S    
N4    O32   1.300258 A    
Zn5   O21   2.018535 S    
N1    O25   1.301437 A    
O19   Zn5   2.015977 S    
C55   N7    1.437527 S    
N10   O43   1.301000 A    
C11   C12   1.399542 A    
C50   C51   1.408013 A    
Zn2   O6    2.015544 S    
C33   C34   1.397738 A    
C59   F9    1.358700 S    
C15   C16   1.406338 A    
N7    O38   1.300892 A    
C26   F3    1.358240 S    
C23   C28   1.409930 A    
C35   C36   1.387259 A    
C51   C52   1.408292 A    
C30   N2    1.438805 S    
C33   F5    1.358339 S    
N8    O40   1.300852 A    
