data_mof_unit_58838.cif
_audit_creation_date              2012-12-11T17:08:30-0500
_audit_creation_method            fapswitch 2.2
_symmetry_space_group_name_H-M    P1
_symmetry_Int_Tables_number       1
_space_group_crystal_system       triclinic
_cell_length_a                    6.99677
_cell_length_b                    14.528263
_cell_length_c                    16.079722
_cell_angle_alpha                 90.013857
_cell_angle_beta                  90.095269
_cell_angle_gamma                 90.06509
_cell_volume                      1634.51508678

loop_
_atom_site_label
_atom_site_type_symbol
_atom_type_description
_atom_site_fract_x
_atom_site_fract_y
_atom_site_fract_z
_atom_type_partial_charge
O1    O     O_R   0.505700 0.583890 0.413310 -0.535228
O2    O     O_R   0.175960 0.594920 0.586080 -0.544902
O3    O     O_R   0.005660 0.416110 0.586690 -0.536285
C1    C     C_R   0.345052 0.616903 0.614638 0.699244
O4    O     O_R   0.175980 0.594920 0.413930 -0.545010
O5    O     O_R   0.005680 0.416110 0.413310 -0.540488
C2    C     C_R   0.344805 0.616616 0.385145 0.700632
O6    O     O_R   0.505680 0.583890 0.586690 -0.534873
O7    O     O_3   0.339200 0.441330 0.500000 -0.373117
V1    V     V_3+5 0.064350 0.510880 0.500000 1.395848
O8    O     O_R   0.675960 0.405080 0.413920 -0.539693
C3    C     C_R   0.844816 0.383003 0.385339 0.693549
O9    O     O_R   0.675940 0.405080 0.586070 -0.544109
C4    C     C_R   0.844732 0.383216 0.614804 0.701576
V2    V     V_3+5 0.564340 0.489120 0.500000 1.402433
O10   O     O_3   0.839360 0.558670 0.500000 -0.370863
C5    C     C_R   0.001127 0.319786 0.743986 0.044250
C6    C     C_R   0.852553 0.317513 0.685366 -0.094900
C7    C     C_R   0.704549 0.253248 0.698945 -0.194063
H1    H     H_    0.584292 0.249881 0.656706 0.130070
C8    C     C_R   0.716333 0.188417 0.764084 -0.159148
H2    H     H_    0.604503 0.137328 0.769976 0.142962
C9    C     C_R   0.875633 0.186377 0.818043 -0.143200
C10   C     C_R   0.011808 0.256127 0.808598 0.083597
C11   C     C_3   0.225044 0.251571 0.802875 0.148522
C12   C     C_3   0.212901 0.322110 0.732602 -0.437441
H3    H     H_    0.276671 0.182963 0.782242 0.098563
H4    H     H_    0.256258 0.293867 0.671258 0.152867
H5    H     H_    0.274942 0.390585 0.747608 0.171468
C13   C     C_R   0.725340 0.247476 0.189334 0.094052
C14   C     C_R   0.882358 0.188573 0.180433 -0.124655
C15   C     C_R   0.034972 0.200011 0.236750 -0.173744
H6    H     H_    0.158704 0.155893 0.232658 0.141560
C16   C     C_R   0.023037 0.263538 0.302860 -0.174849
H7    H     H_    0.139286 0.267390 0.347101 0.134016
C17   C     C_R   0.857451 0.317043 0.315054 -0.107581
C18   C     C_R   0.713136 0.310055 0.254914 0.102479
C19   C     C_3   0.504922 0.292547 0.265846 -0.416805
C20   C     C_3   0.518179 0.224735 0.194129 -0.396988
H8    H     H_    0.417275 0.354207 0.251084 0.170048
H9    H     H_    0.473086 0.259124 0.326445 0.176368
H10   H     H_    0.438798 0.247375 0.137794 0.174557
H11   H     H_    0.493337 0.152087 0.213053 0.176997
C21   C     C_R   0.518116 0.690110 0.735083 0.084029
C22   C     C_R   0.354685 0.682851 0.684899 -0.077594
C23   C     C_R   0.200522 0.741421 0.703090 -0.167320
H12   H     H_    0.075990 0.741494 0.663484 0.138160
C24   C     C_R   0.211578 0.805343 0.768672 -0.161693
H13   H     H_    0.096197 0.852412 0.778365 0.165966
C25   C     C_R   0.376941 0.814138 0.817349 -0.106260
C26   C     C_R   0.530589 0.757016 0.797570 0.039556
C27   C     C_3   0.725798 0.785525 0.770960 -0.185411
C28   C     C_3   0.717403 0.708391 0.706998 -0.444396
H14   H     H_    0.831080 0.774196 0.821696 0.114268
H15   H     H_    0.812924 0.649707 0.722479 0.153840
H16   H     H_    0.725476 0.730742 0.640923 0.203739
C29   C     C_R   0.516874 0.688964 0.264257 0.083073
C30   C     C_R   0.353890 0.682137 0.314572 -0.077940
C31   C     C_R   0.200195 0.741183 0.296551 -0.167630
H17   H     H_    0.075652 0.741249 0.335986 0.138636
C32   C     C_R   0.211715 0.805566 0.231363 -0.162523
H18   H     H_    0.096260 0.852712 0.221652 0.165026
C33   C     C_R   0.377358 0.814521 0.183069 -0.103465
C34   C     C_R   0.530348 0.756840 0.202694 0.041070
C35   C     C_3   0.725636 0.784390 0.230532 -0.194880
C36   C     C_3   0.717091 0.705141 0.292381 -0.440311
H19   H     H_    0.830965 0.774852 0.179726 0.115415
H20   H     H_    0.727291 0.725112 0.359042 0.202831
H21   H     H_    0.811123 0.646585 0.274992 0.153297
O11   O     O_R   0.229000 0.916070 0.913330 -0.538998
O12   O     O_R   0.558770 0.905070 0.086080 -0.532729
O13   O     O_R   0.729000 0.083900 0.086690 -0.532021
C37   C     C_R   0.389945 0.883923 0.115448 0.687746
O14   O     O_R   0.558720 0.905070 0.913930 -0.532316
O15   O     O_R   0.728960 0.083900 0.913310 -0.533549
C38   C     C_R   0.389675 0.883721 0.884776 0.690680
O16   O     O_R   0.229050 0.916070 0.086710 -0.538741
O17   O     O_3   0.395460 0.058650 0.000020 -0.371154
V3    V     V_3+5 0.670340 0.989120 0.000000 1.479101
O18   O     O_R   0.058670 0.094960 0.913900 -0.536124
C39   C     C_R   0.889589 0.116750 0.885173 0.759647
O19   O     O_R   0.058720 0.094960 0.086050 -0.543921
C40   C     C_R   0.890081 0.117747 0.114029 0.727665
V4    V     V_3+5 0.170330 0.010930 0.999970 1.460830
O20   O     O_3   0.895340 0.941350 0.999980 -0.364752
C41   C     C_2   0.726461 0.881163 0.732908 0.769638
O21   O     O_2   0.809731 0.943966 0.768237 -0.584770
O22   O     O_R   0.624858 0.898673 0.659583 -0.653100
H22   H     H_    0.633658 0.965456 0.641685 0.293837
C42   C     C_2   0.726773 0.878846 0.271218 0.779930
O23   O     O_2   0.641591 0.891988 0.336610 -0.550274
O24   O     O_R   0.819053 0.952070 0.232003 -0.676544
H23   H     H_    0.809548 0.011317 0.265047 0.278803
N1    N     N_2   0.326229 0.284749 0.876523 -0.491808
H24   H     H_    0.470304 0.294687 0.866661 0.262641
C43   C     C_3   0.240166 0.355241 0.928225 -0.524628
H25   H     H_    0.336518 0.370829 0.981362 0.180074
H26   H     H_    0.102289 0.330591 0.954145 0.192672
H27   H     H_    0.217306 0.419395 0.892082 0.184962

loop_
_geom_bond_atom_site_label_1
_geom_bond_atom_site_label_2
_ccdc_geom_bond_type
C36   H20   S    
C4    C6    S    
C7    H1    S    
C29   C36   S    
C1    O6    A    
O12   V3    S    
C42   O23   D    
C22   C23   A    
C21   C22   A    
O14   C38   A    
C5    C12   S    
C17   C18   A    
C7    C8    A    
C6    C7    A    
O13   V3    S    
O5    C3    A    
C19   C20   S    
C41   O22   S    
C36   H21   S    
V2    O10   S    
C43   H27   S    
C14   C40   S    
C16   H7    S    
C32   C33   A    
O8    V2    S    
C21   C28   S    
C35   H19   S    
C43   H26   S    
C9    C10   A    
O1    V2    S    
C3    C17   S    
O11   V4    S    
O7    V1    S    
C2    C30   S    
O18   V4    S    
C24   C25   A    
C31   H17   S    
O1    C2    A    
O9    C4    A    
C32   H18   S    
C27   H14   S    
C25   C26   A    
C20   H10   S    
C1    C22   S    
C28   H15   S    
C35   C42   S    
C23   C24   A    
C31   C32   A    
C5    C10   A    
C26   C27   S    
C10   C11   S    
C19   H9    S    
O4    C2    A    
O17   V3    S    
O15   C39   A    
C20   H11   S    
C33   C37   S    
O16   V4    S    
C30   C31   A    
C13   C18   A    
C15   C16   A    
O2    C1    A    
C18   C19   S    
C25   C38   S    
C42   O24   S    
C14   C15   A    
C43   H25   S    
C5    C6    A    
V4    O20   S    
N1    C43   S    
O3    C4    A    
C21   C26   A    
C24   H13   S    
C35   C36   S    
O6    V2    S    
O19   V4    S    
O14   V3    S    
O9    V2    S    
O11   C38   A    
O2    V1    S    
V3    O20   S    
C27   C28   S    
C29   C34   A    
O12   C37   A    
C28   H16   S    
C23   H12   S    
C9    C39   S    
C41   O21   D    
O18   C39   A    
O5    V1    S    
O8    C3    A    
C11   H3    S    
C12   H4    S    
C15   H6    S    
C8    C9    A    
C11   C12   S    
O4    V1    S    
O3    V1    S    
V1    O10   S    
C34   C35   S    
C19   H8    S    
C29   C30   A    
C13   C14   A    
C27   C41   S    
O24   H23   S    
C13   C20   S    
C16   C17   A    
O7    V2    S    
N1    H24   S    
O13   C40   A    
C33   C34   A    
O17   V4    S    
C11   N1    S    
O22   H22   S    
C12   H5    S    
O19   C40   A    
C37   O16   A    
C8    H2    S    
O15   V3    S    
