data_mof_unit_44386.cif
_audit_creation_date              2013-03-05T16:11:43-0500
_audit_creation_method            fapswitch 2.2
_symmetry_space_group_name_H-M    P1
_symmetry_Int_Tables_number       1
_space_group_crystal_system       triclinic
_cell_length_a                    10.686607
_cell_length_b                    9.984546
_cell_length_c                    10.668935
_cell_angle_alpha                 90.512151
_cell_angle_beta                  94.407719
_cell_angle_gamma                 89.675434
_cell_volume                      1134.95880155

loop_
_atom_site_label
_atom_site_type_symbol
_atom_site_description
_atom_site_fract_x
_atom_site_fract_y
_atom_site_fract_z
_atom_type_partial_charge
O1    O     O_R   0.316770 0.614620 0.499990 -0.662997
O2    O     O_R   0.683230 0.385380 0.500010 -0.662983
O3    O     O_R   0.683230 0.614620 0.500010 -0.620130
O4    O     O_R   0.316770 0.385380 0.499990 -0.619940
C1    C     C_R   0.872362 0.496398 0.502828 -0.066015
C2    C     C_R   0.127639 0.503632 0.497112 -0.066127
C3    C     C_R   0.260749 0.500742 0.498902 0.916171
C4    C     C_R   0.739252 0.499260 0.501085 0.915796
O5    O     O_R   0.499970 0.614650 0.313950 -0.598711
O6    O     O_R   0.500030 0.385350 0.686050 -0.598697
O7    O     O_R   0.500030 0.614650 0.686050 -0.639863
O8    O     O_R   0.499970 0.385350 0.313950 -0.639837
C5    C     C_R   0.496488 0.499805 0.257947 1.002359
C6    C     C_R   0.503527 0.500194 0.742054 1.001982
Zn1   Zn    Zn3+2 0.500000 0.653120 0.500000 1.007091
Zn2   Zn    Zn3+2 0.500000 0.346880 0.500000 1.007145
N1    N     N_R   0.500000 0.857200 0.500000 -0.190666
N2    N     N_R   0.500000 0.142800 0.500000 -0.190684
C7    C     C_3   0.396262 0.562584 0.030329 0.201346
C8    C     C_3   0.603757 0.437408 0.969676 0.201269
C9    C     C_3   0.500523 0.625248 0.959845 0.197595
C10   C     C_3   0.499497 0.374745 0.040160 0.197622
C11   C     C_3   0.397791 0.435784 0.946836 -0.257119
C12   C     C_3   0.602229 0.564207 0.053169 -0.257167
C13   C     C_3   0.503169 0.499370 0.875985 -0.274381
C14   C     C_3   0.496851 0.500623 0.124018 -0.274406
C15   C     C_R   0.590187 0.072668 0.570267 0.001493
C16   C     C_R   0.409815 0.927331 0.429731 0.001523
C17   C     C_R   0.413937 0.070947 0.423591 0.046080
C18   C     C_R   0.586061 0.929052 0.576410 0.046331
C19   C     C_R   0.056761 0.438956 0.397508 -0.010859
C20   C     C_R   0.943231 0.561186 0.602360 -0.010662
C21   C     C_R   0.927388 0.430251 0.403472 -0.125472
C22   C     C_R   0.072612 0.569797 0.596459 -0.125459
C23   C     C_2   0.697589 0.147525 0.630135 0.652324
H1    H     H_    0.682678 0.240980 0.677801 0.130316
O9    O     O_2   0.805031 0.108196 0.621433 -0.489601
C24   C     C_2   0.302415 0.852473 0.369857 0.652237
H2    H     H_    0.317329 0.759020 0.322188 0.130321
O10   O     O_2   0.194972 0.891798 0.378555 -0.489596
C25   C     C_2   0.334292 0.142463 0.325311 0.524174
H3    H     H_    0.324463 0.248331 0.328590 0.122143
O11   O     O_2   0.283507 0.084482 0.234063 -0.481236
C26   C     C_2   0.665695 0.857535 0.674695 0.523729
H4    H     H_    0.675487 0.751660 0.671436 0.121820
O12   O     O_2   0.716508 0.915519 0.765927 -0.481379
C27   C     C_2   0.283157 0.361119 0.895545 0.609614
H5    H     H_    0.216243 0.326833 0.959527 0.138554
O13   O     O_2   0.264804 0.337326 0.783374 -0.556160
C28   C     C_2   0.716868 0.638858 0.104469 0.609552
H6    H     H_    0.783768 0.673178 0.040488 0.138655
O14   O     O_2   0.735244 0.662592 0.216648 -0.556293
N3    N     N_R   0.284538 0.638770 0.058013 0.254438
O15   O     O_R   0.173817 0.595172 0.018824 -0.354197
O16   O     O_R   0.296269 0.763010 0.094009 -0.289071
N4    N     N_R   0.715480 0.361212 0.942005 0.254503
O17   O     O_R   0.826197 0.404766 0.981264 -0.354085
O18   O     O_R   0.703735 0.236987 0.905967 -0.289094
N5    N     N_R   0.495889 0.764251 0.917980 0.247709
O19   O     O_R   0.572179 0.852020 0.971848 -0.263479
O20   O     O_R   0.402961 0.805196 0.841810 -0.291907
N6    N     N_R   0.504133 0.235743 0.082027 0.247712
O21   O     O_R   0.427849 0.147970 0.028155 -0.263446
O22   O     O_R   0.597059 0.194801 0.158199 -0.292031
C29   C     C_2   0.115227 0.393966 0.281529 0.415192
H7    H     H_    0.078286 0.310335 0.225431 0.170299
O23   O     O_2   0.204538 0.453418 0.244701 -0.604855
C30   C     C_2   0.884697 0.606424 0.718207 0.414618
H8    H     H_    0.921186 0.690739 0.773776 0.170274
O24   O     O_2   0.795790 0.546523 0.755446 -0.604156
C31   C     C_2   0.847714 0.357077 0.304655 0.519272
H9    H     H_    0.761685 0.402036 0.263983 0.089748
O25   O     O_2   0.873486 0.242735 0.273996 -0.468737
C32   C     C_2   0.152298 0.642848 0.695360 0.519721
H10   H     H_    0.238265 0.597774 0.736056 0.089574
O26   O     O_2   0.126633 0.757218 0.726049 -0.468800

loop_
_geom_bond_atom_site_label_1
_geom_bond_atom_site_label_2
_geom_bond_distance
_ccdc_geom_bond_type
C25   H3    1.062193 S    
C23   H1    1.075632 S    
C8    N4    1.459893 S    
C27   O13   1.219208 D    
N3    O15   1.300338 A    
C32   O26   1.220660 D    
C16   C17   1.437098 A    
C7    C9    1.530842 S    
C12   C14   1.545995 S    
C9    N5    1.461185 S    
C24   H2    1.075633 S    
O7    C6    1.293323 A    
C8    C13   1.541356 S    
N4    O17   1.300345 A    
Zn1   N1    2.037646 S    
C7    C14   1.541346 S    
O5    C5    1.287656 A    
N6    O22   1.300396 A    
O7    Zn1   2.025120 S    
C8    C12   1.542216 S    
C30   H8    1.082368 S    
C29   O23   1.218983 D    
C1    C21   1.408730 A    
C28   O14   1.219208 D    
C19   C21   1.392139 A    
O1    Zn1   1.997611 S    
O2    Zn2   1.997610 S    
C20   C30   1.492830 S    
C1    C20   1.410430 A    
C7    N3    1.459895 S    
C2    C19   1.410511 A    
N5    O19   1.300013 A    
C15   C18   1.437096 A    
N1    C18   1.380898 A    
C25   O11   1.220534 D    
C18   C26   1.484259 S    
O4    C3    1.294851 A    
C26   O12   1.220536 D    
N3    O16   1.299166 A    
C12   C28   1.501986 S    
N5    O20   1.300396 A    
C11   C27   1.501990 S    
C32   H10   1.082847 S    
O8    Zn2   2.025121 S    
O3    C4    1.294834 A    
O6    C6    1.287653 A    
C31   O25   1.220578 D    
C15   C23   1.473930 S    
C2    C22   1.408745 A    
C20   C22   1.392087 A    
O4    Zn2   1.993338 S    
C7    C11   1.542219 S    
N6    O21   1.300010 A    
C10   N6    1.461189 S    
C27   H5    1.084653 S    
C16   C24   1.473937 S    
C28   H6    1.084654 S    
N2    C17   1.380909 A    
C22   C32   1.491883 S    
Zn2   N2    2.037646 S    
C8    C10   1.530837 S    
C5    C14   1.429280 S    
O3    Zn1   1.993337 S    
C26   H4    1.062208 S    
C23   O9    1.221387 D    
C19   C29   1.492973 S    
C9    C13   1.537623 S    
C17   C25   1.484269 S    
O1    C3    1.287543 A    
N1    C16   1.368180 A    
O2    C4    1.287572 A    
N2    C15   1.368179 A    
C1    C4    1.421319 S    
C2    C3    1.421283 S    
O5    Zn1   2.018380 S    
C31   H9    1.082828 S    
O6    Zn2   2.018379 S    
C24   O10   1.221385 D    
N4    O18   1.299163 A    
C11   C13   1.546013 S    
C6    C13   1.429297 S    
C21   C31   1.491826 S    
O8    C5    1.293309 A    
C30   O24   1.219411 D    
C29   H7    1.081580 S    
C10   C14   1.537611 S    
C9    C12   1.543093 S    
C10   C11   1.543086 S    
