data_mof_unit_14662.cif
_audit_creation_date              2012-12-10T16:41:54-0500
_audit_creation_method            fapswitch 2.2
_symmetry_space_group_name_H-M    P1
_symmetry_Int_Tables_number       1
_space_group_crystal_system       triclinic
_cell_length_a                    10.889698
_cell_length_b                    8.707635
_cell_length_c                    7.55571
_cell_angle_alpha                 102.126953
_cell_angle_beta                  97.198241
_cell_angle_gamma                 94.21512
_cell_volume                      691.260096023

loop_
_atom_site_label
_atom_site_type_symbol
_atom_type_description
_atom_site_fract_x
_atom_site_fract_y
_atom_site_fract_z
_atom_type_partial_charge
C1    C     C_R   0.491293 0.200679 0.455084 0.848378
C2    C     C_2   0.528634 0.966187 0.562618 0.051055
C3    C     C_R   0.265095 0.497520 0.496568 0.821802
C4    C     C_R   0.506256 0.799420 0.545005 0.865213
C5    C     C_R   0.734094 0.490295 0.501699 0.808185
C6    C     C_2   0.916329 0.441398 0.354144 -0.256182
C7    C     C_2   0.862905 0.452697 0.506383 0.085653
C8    C     C_2   0.047704 0.418092 0.351398 0.201244
C9    C     C_2   0.132352 0.505046 0.488370 -0.318364
C10   C     C_2   0.466065 0.034301 0.438087 -0.070208
Cu1   Cu    Cu3+1 0.513740 0.517380 0.684380 0.941421
Cu2   Cu    Cu3+1 0.486260 0.482620 0.315620 0.949280
H1    H     H_    0.863445 0.452885 0.227482 0.144324
H2    H     H_    0.103003 0.589901 0.597591 0.144463
N1    N     N_2   0.465540 0.456420 0.038510 -0.044197
N2    N     N_2   0.534460 0.543580 0.961490 0.022075
O1    O     O_R   0.508930 0.286130 0.619780 -0.596117
O2    O     O_R   0.485720 0.256780 0.308360 -0.591866
O3    O     O_R   0.333540 0.514670 0.655670 -0.608300
O4    O     O_R   0.310330 0.485320 0.344250 -0.571987
O5    O     O_R   0.514280 0.743220 0.691640 -0.592382
O6    O     O_R   0.491070 0.713870 0.380220 -0.570208
O7    O     O_R   0.689670 0.514680 0.655750 -0.566964
O8    O     O_R   0.666460 0.485330 0.344330 -0.581432
N3    N     N_2   0.920639 0.399749 0.660736 -0.427720
H3    H     H_    0.980474 0.313586 0.636858 0.261169
C11   C     C_3   0.953114 0.513783 0.832740 -0.686195
H4    H     H_    0.913305 0.465892 0.939847 0.234822
H5    H     H_    0.918565 0.629616 0.825951 0.227622
H6    H     H_    0.055714 0.532361 0.871619 0.207298
C12   C     C_3   0.080708 0.301040 0.191821 -0.839455
H7    H     H_    0.995939 0.229784 0.109313 0.223008
H8    H     H_    0.126254 0.364600 0.101375 0.236108
H9    H     H_    0.142735 0.218740 0.241203 0.217763
C13   C     C_3   0.351897 0.952847 0.305479 -0.888603
H10   H     H_    0.378075 0.868894 0.188349 0.252747
H11   H     H_    0.288222 0.889806 0.376785 0.226078
H12   H     H_    0.298618 0.039321 0.247942 0.219914
N4    N     N_2   0.633242 0.046913 0.691073 -0.456911
H13   H     H_    0.691130 0.127555 0.649714 0.259761
C14   C     C_3   0.616402 0.086187 0.882073 -0.582332
H14   H     H_    0.624264 0.216408 0.931535 0.243646
H15   H     H_    0.690450 0.039492 0.964199 0.206495
H16   H     H_    0.524186 0.036108 0.904589 0.221256
C15   C     C_3   0.353994 0.361981 0.939050 -0.425663
H17   H     H_    0.323566 0.279089 0.021718 0.164839
H18   H     H_    0.278230 0.438421 0.923160 0.167717
H19   H     H_    0.367226 0.287124 0.808925 0.198035
N5    N     N_2   0.590872 0.681402 0.075828 -0.252594
H20   H     H_    0.541129 0.775380 0.062757 0.243400
C16   C     C_3   0.718959 0.716686 0.056355 -0.590362
H21   H     H_    0.761845 0.817305 0.168507 0.178239
H22   H     H_    0.725930 0.749975 0.923868 0.228922
H23   H     H_    0.770118 0.613495 0.066065 0.216110

loop_
_geom_bond_atom_site_label_1
_geom_bond_atom_site_label_2
_ccdc_geom_bond_type
C2    C4    S    
C9    H2    S    
C12   H8    S    
C3    O3    A    
C6    C7    D    
C3    C9    S    
N3    C11   S    
C4    O6    A    
Cu1   N2    S    
Cu2   O8    S    
C1    O1    A    
C12   H7    S    
C7    N3    S    
Cu2   N1    S    
Cu1   Cu2   S    
C16   H23   S    
Cu2   O4    S    
N5    C16   S    
C12   H9    S    
C3    O4    A    
N4    C14   S    
C15   H17   S    
C6    H1    S    
C4    O5    A    
C14   H15   S    
Cu1   O3    S    
C1    O2    A    
C10   C13   S    
C5    O8    A    
Cu1   O7    S    
C13   H11   S    
C15   H18   S    
C14   H16   S    
C11   H5    S    
N1    C15   S    
N1    N2    D    
C2    C10   D    
Cu2   O6    S    
N4    H13   S    
C13   H12   S    
N2    N5    S    
N5    H20   S    
C14   H14   S    
C15   H19   S    
Cu2   O2    S    
C11   H4    S    
C5    C7    S    
Cu1   O1    S    
C6    C8    S    
C16   H22   S    
N3    H3    S    
C8    C12   S    
C2    N4    S    
Cu1   O5    S    
C1    C10   S    
C16   H21   S    
C8    C9    D    
C11   H6    S    
C13   H10   S    
C5    O7    A    
