data_mof_unit_14964.cif
_audit_creation_date              2012-10-26T19:40:39-0400
_audit_creation_method            fapswitch 2.2
_symmetry_space_group_name_H-M    P1
_symmetry_Int_Tables_number       1
_space_group_crystal_system       triclinic
_cell_length_a                    9.670173
_cell_length_b                    10.930316
_cell_length_c                    13.457661
_cell_angle_alpha                 90.090841
_cell_angle_beta                  72.505947
_cell_angle_gamma                 90.279955
_cell_volume                      1356.64141223

loop_
_atom_site_label
_atom_site_type_symbol
_atom_type_description
_atom_site_fract_x
_atom_site_fract_y
_atom_site_fract_z
_atom_type_partial_charge
C1    C     C_R   0.501116 0.734601 0.498456 0.561841
C2    C     C_R   0.375354 0.489212 0.814887 0.004101
C3    C     C_2   0.600603 0.063326 0.532636 0.006987
C4    C     C_R   0.422496 0.493768 0.700102 0.534229
C5    C     C_2   0.482747 0.134390 0.537195 0.006316
C6    C     C_2   0.590242 0.929176 0.537836 -0.115773
C7    C     C_2   0.504737 0.866435 0.493974 -0.092186
C8    C     C_2   0.051285 0.564642 0.564761 -0.012298
C9    C     C_2   0.896657 0.568439 0.561901 -0.008963
C10   C     C_R   0.496261 0.265096 0.508884 0.545728
C11   C     C_R   0.577517 0.498300 0.300019 0.548781
C12   C     C_R   0.434726 0.483264 0.979507 0.039071
C13   C     C_R   0.783582 0.398504 0.028859 -0.130462
C14   C     C_R   0.621250 0.482654 0.186863 0.002652
C15   C     C_R   0.235953 0.531259 0.868415 -0.120635
C16   C     C_R   0.194053 0.545875 0.975683 -0.134315
C17   C     C_R   0.292444 0.524956 0.030726 -0.110036
C18   C     C_2   0.331637 0.085992 0.581060 0.543186
C19   C     C_2   0.747889 0.112561 0.521013 0.591021
C20   C     C_R   0.471128 0.454614 0.871874 0.022051
C21   C     C_R   0.541579 0.467673 0.031690 0.034426
C22   C     C_R   0.676958 0.413664 0.978551 0.047284
C23   C     C_R   0.703157 0.372539 0.876689 -0.132525
C24   C     C_R   0.600996 0.390723 0.824747 -0.113066
C25   C     C_R   0.518580 0.505019 0.135058 -0.122807
C26   C     C_R   0.755532 0.432162 0.132858 -0.131315
Cu1   Cu    Cu3+1 0.361370 0.499980 0.499980 0.988614
Cu2   Cu    Cu3+1 0.638630 0.500020 0.500020 0.975707
H1    H     H_    0.836273 0.414305 0.171944 0.137111
H2    H     H_    0.420548 0.550864 0.178035 0.122275
H3    H     H_    0.159785 0.555749 0.827020 0.133527
H4    H     H_    0.252235 0.539582 0.113587 0.108612
H5    H     H_    0.085731 0.577399 0.016196 0.126934
H6    H     H_    0.624205 0.350811 0.748161 0.192521
H7    H     H_    0.127129 0.078594 0.572013 0.347653
H8    H     H_    0.875426 0.218966 0.579906 0.335503
H9    H     H_    0.661460 0.880872 0.573357 0.150964
H10   H     H_    0.436609 0.911643 0.454377 0.124828
H11   H     H_    0.078727 0.619836 0.623251 0.144002
H12   H     H_    0.129502 0.452263 0.443071 0.216337
H13   H     H_    0.823266 0.630745 0.615016 0.144790
H14   H     H_    0.913057 0.438405 0.453708 0.215451
H15   H     H_    0.803196 0.325895 0.836828 0.129989
H16   H     H_    0.887161 0.357537 0.988541 0.121093
N1    N     N_2   0.152660 0.501340 0.501130 -0.342079
N2    N     N_2   0.846520 0.501370 0.501160 -0.341341
O1    O     O_R   0.382960 0.678040 0.499980 -0.484160
O2    O     O_R   0.224792 0.116676 0.534852 -0.668757
O3    O     O_2   0.850685 0.077478 0.449139 -0.506274
O4    O     O_R   0.770185 0.193132 0.595617 -0.697539
O5    O     O_R   0.617100 0.678080 0.500020 -0.493748
O6    O     O_R   0.325800 0.499940 0.650950 -0.502338
O7    O     O_R   0.559930 0.499980 0.650990 -0.507170
O8    O     O_R   0.382900 0.321920 0.499980 -0.448221
O9    O     O_R   0.617040 0.321960 0.500020 -0.471716
O10   O     O_R   0.440070 0.500020 0.349010 -0.503847
O11   O     O_R   0.674200 0.500060 0.349050 -0.497307
O12   O     O_2   0.300814 0.020369 0.658284 -0.514712

loop_
_geom_bond_atom_site_label_1
_geom_bond_atom_site_label_2
_ccdc_geom_bond_type
C12   C17   A    
C8    C9    S    
C2    C4    S    
Cu2   O7    S    
C3    C19   S    
C6    C7    D    
C2    C15   A    
C8    H11   S    
C16   H5    S    
C19   O3    D    
C9    H13   S    
C23   C24   A    
C3    C6    S    
C12   C20   A    
Cu1   O8    S    
H8    O4    S    
C5    C10   S    
C11   O11   A    
C21   C22   A    
C14   C26   A    
C15   H3    S    
C10   O9    A    
C1    O5    A    
C19   O4    S    
Cu2   N2    S    
C4    O6    A    
C10   O8    A    
H7    O2    S    
C1    O1    A    
C11   C14   S    
C7    H10   S    
C18   O12   D    
C13   C22   A    
C22   C23   A    
C14   C25   A    
H12   N1    S    
C4    O7    A    
Cu2   O5    S    
C13   C26   A    
C6    H9    S    
Cu1   N1    S    
C2    C20   A    
C15   C16   A    
C20   C24   A    
C9    N2    D    
C23   H15   S    
Cu1   O6    S    
Cu2   O11   S    
C26   H1    S    
H14   N2    S    
Cu1   O1    S    
Cu1   Cu2   S    
C17   H4    S    
C21   C25   A    
Cu1   O10   S    
C25   H2    S    
C5    C18   S    
C1    C7    S    
C12   C21   A    
Cu2   O9    S    
C13   H16   S    
C24   H6    S    
C11   O10   A    
C8    N1    D    
C16   C17   A    
C3    C5    D    
C18   O2    S    
