data_mof_unit_22827.cif
_audit_creation_date              2012-12-10T19:49:08-0500
_audit_creation_method            fapswitch 2.2
_symmetry_space_group_name_H-M    P1
_symmetry_Int_Tables_number       1
_space_group_crystal_system       triclinic
_cell_length_a                    28.224408
_cell_length_b                    18.231177
_cell_length_c                    21.681126
_cell_angle_alpha                 89.355824
_cell_angle_beta                  139.764336
_cell_angle_gamma                 90.444305
_cell_volume                      7205.7807343

loop_
_atom_site_label
_atom_site_type_symbol
_atom_type_description
_atom_site_fract_x
_atom_site_fract_y
_atom_site_fract_z
_atom_type_partial_charge
C1    C     C_R   0.858684 0.000040 0.858655 0.949411
C2    C     C_R   0.999959 0.141294 0.499940 0.920426
C3    C     C_3   0.149333 0.972134 0.454244 -0.407466
C4    C     C_3   0.211058 0.022602 0.538265 -0.333780
C5    C     C_3   0.279072 0.978732 0.624445 -0.900795
C6    C     C_3   0.022297 0.851198 0.335544 -0.438448
C7    C     C_3   0.982546 0.777824 0.287834 -0.350300
C8    C     C_3   0.032245 0.713619 0.354525 -0.861550
C9    C     C_3   0.877556 0.084900 0.575299 -0.453254
C10   C     C_3   0.867852 0.143425 0.514648 -0.332519
C11   C     C_3   0.788313 0.148454 0.414050 -0.843729
C12   C     C_3   0.475642 0.346222 0.682265 -0.483408
C13   C     C_R   0.500205 0.358866 0.496939 0.911337
C14   C     C_3   0.469963 0.317873 0.611188 -0.339859
C15   C     C_3   0.424114 0.247648 0.565190 -0.862191
C16   C     C_3   0.612571 0.601470 0.425714 -0.431313
C17   C     C_3   0.601115 0.670776 0.452909 -0.338111
C18   C     C_3   0.672130 0.695514 0.554104 -0.838174
C19   C     C_3   0.633433 0.421780 0.440596 -0.427922
C20   C     C_3   0.666440 0.346540 0.457755 -0.349607
C21   C     C_3   0.747757 0.342894 0.555086 -0.903174
C22   C     C_3   0.349239 0.471658 0.543512 -0.393137
C23   C     C_3   0.292906 0.521508 0.454414 -0.341065
C24   C     C_R   0.499915 0.641252 0.501252 0.928827
C25   C     C_3   0.224799 0.478500 0.368048 -0.905904
C26   C     C_3   0.146716 0.900623 0.998173 0.084763
C27   C     C_3   0.201704 0.838796 0.042172 -0.409194
C28   C     C_3   0.250313 0.825995 0.146972 -0.932605
C29   C     C_3   0.991317 0.187429 0.220430 0.146729
C30   C     C_3   0.931048 0.238876 0.183619 -0.471920
C31   C     C_3   0.962942 0.299437 0.255268 -0.904094
C32   C     C_3   0.819003 0.099296 0.019884 0.069228
C33   C     C_3   0.744363 0.069201 0.926170 -0.357613
C34   C     C_3   0.684457 0.127586 0.869713 -0.942512
C35   C     C_R   0.999374 0.999213 0.621064 0.929845
C36   C     C_3   0.194477 0.067803 0.980279 0.113725
C37   C     C_3   0.249766 0.008192 0.016658 -0.405402
C38   C     C_3   0.315064 0.041795 0.047744 -0.973331
C39   C     C_3   0.677055 0.607422 0.971112 0.073210
C40   C     C_3   0.753072 0.582511 0.068100 -0.332450
C41   C     C_3   0.809646 0.643586 0.117111 -0.975514
C42   C     C_3   0.355610 0.616986 0.078759 0.133330
C43   C     C_3   0.275909 0.602513 0.018549 -0.433904
C44   C     C_3   0.246483 0.664021 0.029259 -0.961170
C45   C     C_3   0.312386 0.430149 0.994857 0.103374
C46   C     C_R   0.000747 0.997572 0.379193 0.917701
C47   C     C_3   0.276969 0.389517 0.014237 -0.434556
C48   C     C_3   0.195420 0.376348 0.921842 -0.924924
C49   C     C_3   0.499628 0.687686 0.766849 0.140069
C50   C     C_3   0.556233 0.741950 0.797725 -0.477114
C51   C     C_3   0.520136 0.799996 0.720568 -0.885897
C52   C     C_R   0.499047 0.494798 0.620664 0.920980
C53   C     C_R   0.501143 0.498913 0.379404 0.925590
C54   C     C_R   0.500607 0.140721 0.500096 0.927649
C55   C     C_R   0.499986 0.859285 0.500302 0.926602
C56   C     C_R   0.000033 0.640718 0.499692 0.926383
C57   C     C_R   0.141311 0.999887 0.140430 0.910825
C58   C     C_R   0.999921 0.359288 0.500202 0.927093
C59   C     C_R   0.640714 0.000034 0.640539 0.929065
C60   C     C_R   0.359281 0.999779 0.359422 0.928522
C61   C     C_R   0.140713 0.499423 0.640664 0.924189
C62   C     C_R   0.859286 0.500037 0.359460 0.927994
C63   C     C_1   0.000244 0.782178 0.498349 -0.206550
C64   C     C_1   0.999843 0.217840 0.500371 -0.215733
C65   C     C_1   0.500832 0.282235 0.497195 -0.205894
C66   C     C_1   0.499821 0.717831 0.501219 -0.219713
C67   C     C_1   0.501186 0.217319 0.498857 -0.197070
C68   C     C_R   0.358700 0.499950 0.859928 0.933648
C69   C     C_1   0.499886 0.782708 0.500926 -0.194631
C70   C     C_1   0.000174 0.717297 0.498952 -0.201699
C71   C     C_1   0.999834 0.282712 0.500578 -0.195297
C72   C     C_R   0.000449 0.000086 0.878981 0.937540
C73   C     C_R   0.996694 0.999913 0.118208 0.971384
C74   C     C_R   0.504225 0.500741 0.882790 0.978113
C75   C     C_R   0.503614 0.499829 0.124939 0.954564
C76   C     C_3   0.947513 0.939299 0.732997 0.210154
C77   C     C_3   0.076956 0.018154 0.287474 0.182349
C78   C     C_3   0.978324 0.920492 0.194003 0.233543
C79   C     C_R   0.641317 0.499967 0.141364 0.934313
C80   C     C_3   0.972433 0.076351 0.758420 0.247537
C81   C     C_3   0.531166 0.424452 0.819033 0.221317
C82   C     C_3   0.542685 0.571438 0.256062 0.234303
C83   C     C_3   0.548756 0.431956 0.262990 0.232520
C84   C     C_3   0.422932 0.514096 0.712078 0.182259
C85   C     C_3   0.963141 0.925389 0.679821 -0.174782
C86   C     C_3   0.080289 0.016638 0.362559 -0.101148
C87   C     C_3   0.977125 0.917282 0.264750 -0.189818
C88   C     C_3   0.959965 0.071667 0.674827 -0.162780
C89   C     C_3   0.523574 0.415975 0.740049 -0.205260
C90   C     C_1   0.717275 0.000085 0.716807 -0.203235
C91   C     C_3   0.538774 0.573057 0.323630 -0.114259
C92   C     C_3   0.551637 0.429943 0.337716 -0.163800
C93   C     C_3   0.418791 0.514188 0.636228 -0.091685
C94   C     C_3   0.083798 0.989588 0.869436 0.905605
C95   C     C_3   0.942744 0.061326 0.158273 0.924781
C96   C     C_3   0.555012 0.564257 0.837537 0.927484
C97   C     C_3   0.420712 0.498227 0.133063 0.919313
C98   C     C_3   0.002225 0.999767 0.812948 -0.187194
C99   C     C_3   0.996855 0.000600 0.186515 -0.166514
C100  C     C_3   0.504339 0.502132 0.814707 -0.149832
C101  C     C_1   0.282726 0.999434 0.282888 -0.211389
C102  C     C_3   0.502473 0.499902 0.191689 -0.178435
C103  C     C_3   0.997404 0.998908 0.687266 -0.109150
C104  C     C_3   0.002340 0.994460 0.312638 -0.101695
C105  C     C_3   0.496639 0.492494 0.686707 -0.073418
C106  C     C_3   0.505955 0.498470 0.315917 -0.111693
C107  C     C_3   0.078709 0.001402 0.792521 -0.530065
C108  C     C_3   0.943190 0.051547 0.230758 -0.647324
C109  C     C_3   0.553373 0.552983 0.764037 -0.657760
C110  C     C_3   0.425084 0.491257 0.209596 -0.638359
C111  C     C_1   0.782143 0.000105 0.781809 -0.203189
C112  C     C_1   0.217294 0.499220 0.717585 -0.218815
C113  C     C_1   0.217864 0.999490 0.217457 -0.224417
C114  C     C_1   0.282148 0.499647 0.783068 -0.219689
C115  C     C_1   0.717858 0.499925 0.218193 -0.195385
C116  C     C_3   0.978527 0.815399 0.799897 0.200861
C117  C     C_3   0.932461 0.745732 0.748514 -0.392150
C118  C     C_3   0.980755 0.677900 0.789322 -0.993617
C119  C     C_3   0.166860 0.085743 0.323061 0.121470
C120  C     C_3   0.188161 0.163944 0.325696 -0.323904
C121  C     C_3   0.255829 0.165415 0.351676 -0.969212
C122  C     C_3   0.848485 0.894890 0.051361 0.185844
C123  C     C_1   0.782726 0.499974 0.283188 -0.205414
C124  C     C_3   0.812137 0.822368 0.032895 -0.410479
C125  C     C_3   0.730481 0.831983 0.963676 -0.993517
C126  C     C_3   0.993148 0.195541 0.819184 0.164294
C127  C     C_3   0.957368 0.246846 0.736014 -0.421883
C128  C     C_3   0.945440 0.323388 0.750111 -0.961429
C129  C     C_3   0.662961 0.400681 0.945889 0.198697
C130  C     C_3   0.682063 0.323909 0.941831 -0.403851
C131  C     C_3   0.751429 0.325691 0.971510 -1.003514
C132  C     C_3   0.558550 0.680978 0.211646 0.182194
C133  C     C_3   0.593180 0.742617 0.283411 -0.414724
C134  C     C_R   0.000100 0.858774 0.498173 0.912118
C135  C     C_3   0.631372 0.798505 0.279437 -0.977704
C136  C     C_3   0.482106 0.316548 0.187175 0.213266
C137  C     C_3   0.512911 0.241098 0.234977 -0.416442
C138  C     C_3   0.451679 0.186876 0.188968 -0.985211
C139  C     C_3   0.336218 0.577527 0.688049 0.157188
C140  C     C_3   0.264702 0.592528 0.582198 -0.403284
C141  C     C_3   0.204921 0.621712 0.565076 -0.922812
C142  C     C_3   0.895535 0.888631 0.580718 -0.416011
C143  C     C_3   0.917852 0.820850 0.565886 -0.341307
C144  C     C_3   0.852234 0.786753 0.468070 -0.850162
H1    H     H_    0.893098 0.967085 0.678341 0.120819
H2    H     H_    0.088951 0.073680 0.386869 0.180755
H3    H     H_    0.076233 0.847507 0.365746 0.201849
H4    H     H_    0.032365 0.858005 0.395640 0.203746
H5    H     H_    0.770414 0.095267 0.376839 0.254337
H6    H     H_    0.751957 0.163111 0.417028 0.251950
H7    H     H_    0.783315 0.191484 0.372665 0.251673
H8    H     H_    0.885039 0.197907 0.548746 0.205072
H9    H     H_    0.903021 0.130666 0.509817 0.256456
H10   H     H_    0.850723 0.033906 0.534732 0.226073
H11   H     H_    0.844851 0.104145 0.582646 0.186469
H12   H     H_    0.454817 0.201837 0.617978 0.267208
H13   H     H_    0.921165 0.908352 0.227523 0.174088
H14   H     H_    0.371502 0.255858 0.537774 0.254051
H15   H     H_    0.410520 0.232345 0.503834 0.263813
H16   H     H_    0.442615 0.358880 0.554386 0.240611
H17   H     H_    0.525726 0.306453 0.648390 0.225285
H18   H     H_    0.501223 0.300750 0.734943 0.222810
H19   H     H_    0.420297 0.353051 0.647500 0.200426
H20   H     H_    0.693216 0.651866 0.606542 0.262453
H21   H     H_    0.714257 0.708426 0.560463 0.248312
H22   H     H_    0.661504 0.745555 0.570899 0.254054
H23   H     H_    0.579882 0.716125 0.402260 0.213901
H24   H     H_    0.991191 0.118074 0.684640 0.184610
H25   H     H_    0.559542 0.659560 0.447556 0.229646
H26   H     H_    0.640304 0.560217 0.482381 0.237832
H27   H     H_    0.653788 0.614744 0.430671 0.183227
H28   H     H_    0.778812 0.384954 0.559298 0.265063
H29   H     H_    0.755687 0.352165 0.613075 0.262655
H30   H     H_    0.769815 0.287892 0.565540 0.257748
H31   H     H_    0.637378 0.303215 0.455668 0.216700
H32   H     H_    0.660863 0.335016 0.402304 0.261321
H33   H     H_    0.667974 0.464825 0.452948 0.195675
H34   H     H_    0.639211 0.426123 0.496724 0.246124
H35   H     H_    0.576068 0.403827 0.769071 0.176846
H36   H     H_    0.239998 0.433475 0.351477 0.262999
H37   H     H_    0.197351 0.454969 0.382224 0.257757
H38   H     H_    0.185626 0.515673 0.305028 0.249575
H39   H     H_    0.275964 0.566870 0.467823 0.209545
H40   H     H_    0.317245 0.546732 0.436567 0.247388
H41   H     H_    0.364046 0.428306 0.525633 0.235740
H42   H     H_    0.320264 0.443051 0.553046 0.182172
H43   H     H_    0.108456 0.879720 0.995357 0.177715
H44   H     H_    0.175837 0.947765 0.047338 0.184385
H45   H     H_    0.170937 0.787743 0.001620 0.228972
H46   H     H_    0.497238 0.614713 0.294784 0.174648
H47   H     H_    0.236926 0.851900 0.036774 0.232617
H48   H     H_    0.283158 0.875831 0.189257 0.271547
H49   H     H_    0.288649 0.779934 0.176404 0.264638
H50   H     H_    0.216252 0.812146 0.154100 0.267618
H51   H     H_    0.029080 0.221160 0.229156 0.179368
H52   H     H_    0.026378 0.166798 0.293010 0.133491
H53   H     H_    0.902859 0.264171 0.115243 0.235582
H54   H     H_    0.890023 0.208287 0.170584 0.218423
H55   H     H_    0.990683 0.275311 0.323959 0.268720
H56   H     H_    0.918175 0.335967 0.226719 0.267068
H57   H     H_    0.524240 0.380855 0.330129 0.152519
H58   H     H_    0.002977 0.332760 0.268201 0.253179
H59   H     H_    0.831828 0.147845 0.003067 0.195579
H60   H     H_    0.815195 0.115652 0.065168 0.126826
H61   H     H_    0.747922 0.048741 0.881700 0.240592
H62   H     H_    0.729237 0.022419 0.941899 0.212610
H63   H     H_    0.680428 0.149795 0.913095 0.258946
H64   H     H_    0.630876 0.102939 0.803974 0.275334
H65   H     H_    0.696339 0.172966 0.848424 0.267095
H66   H     H_    0.223006 0.103036 0.042516 0.166494
H67   H     H_    0.181888 0.106403 0.929427 0.145864
H68   H     H_    0.409953 0.571389 0.611599 0.179841
H69   H     H_    0.271061 0.980094 0.079782 0.232894
H70   H     H_    0.224384 0.967195 0.960882 0.240726
H71   H     H_    0.296708 0.070802 0.986880 0.266450
H72   H     H_    0.354286 0.997912 0.073826 0.269586
H73   H     H_    0.343540 0.080968 0.106604 0.276354
H74   H     H_    0.661422 0.656424 0.982716 0.192981
H75   H     H_    0.680266 0.622080 0.924507 0.122470
H76   H     H_    0.750413 0.565320 0.114768 0.241896
H77   H     H_    0.770911 0.534670 0.058255 0.205867
H78   H     H_    0.815069 0.659776 0.073185 0.263389
H79   H     H_    0.112063 0.958281 0.802857 0.189786
H80   H     H_    0.863752 0.623857 0.187766 0.275620
H81   H     H_    0.793298 0.692104 0.128213 0.264927
H82   H     H_    0.355723 0.668006 0.050367 0.187237
H83   H     H_    0.390397 0.630583 0.152979 0.132865
H84   H     H_    0.241153 0.598741 0.942050 0.231915
H85   H     H_    0.271562 0.550336 0.040599 0.222073
H86   H     H_    0.278745 0.667431 0.104630 0.268863
H87   H     H_    0.188275 0.652941 0.983368 0.268244
H88   H     H_    0.249673 0.717142 0.007009 0.264579
H89   H     H_    0.301103 0.398041 0.941445 0.169820
H90   H     H_    0.947485 0.103099 0.260987 0.162073
H91   H     H_    0.285562 0.483500 0.959483 0.175733
H92   H     H_    0.304797 0.335805 0.049080 0.227586
H93   H     H_    0.282749 0.421960 0.062626 0.215332
H94   H     H_    0.166326 0.429444 0.886313 0.263587
H95   H     H_    0.171186 0.347231 0.938134 0.263749
H96   H     H_    0.187505 0.342078 0.872463 0.265474
H97   H     H_    0.460697 0.719451 0.756901 0.185849
H98   H     H_    0.465234 0.665384 0.695859 0.133313
H99   H     H_    0.583553 0.769453 0.864129 0.234546
H100  H     H_    0.598227 0.712887 0.812025 0.216857
H101  H     H_    0.888254 0.031146 0.190586 0.190970
H102  H     H_    0.493550 0.773758 0.653911 0.265595
H103  H     H_    0.562299 0.839003 0.745196 0.272081
H104  H     H_    0.478352 0.831143 0.705337 0.250934
H105  H     H_    0.111987 0.973711 0.302806 0.034135
H106  H     H_    0.101753 0.054266 0.799602 0.178110
H107  H     H_    0.608825 0.535168 0.804259 0.193370
H108  H     H_    0.386929 0.528407 0.195460 0.184565
H109  H     H_    0.404986 0.436206 0.203928 0.181287
H110  H     H_    0.545694 0.604106 0.729343 0.160597
H111  H     H_    0.008171 0.811268 0.873851 0.155071
H112  H     H_    0.020432 0.816267 0.805150 0.151886
H113  H     H_    0.897970 0.739010 0.756211 0.230129
H114  H     H_    0.895124 0.750457 0.671144 0.231073
H115  H     H_    0.013885 0.682337 0.779357 0.265923
H116  H     H_    0.027387 0.887985 0.229518 0.137862
H117  H     H_    0.945689 0.628300 0.751649 0.273493
H118  H     H_    0.018090 0.671729 0.866651 0.263485
H119  H     H_    0.160801 0.052223 0.275066 0.147893
H120  H     H_    0.210822 0.061634 0.396166 0.123733
H121  H     H_    0.141807 0.190368 0.254483 0.235353
H122  H     H_    0.199301 0.196068 0.379023 0.201441
H123  H     H_    0.302300 0.136375 0.420587 0.274012
H124  H     H_    0.271777 0.223207 0.358135 0.262331
H125  H     H_    0.243594 0.139239 0.294791 0.280680
H126  H     H_    0.819279 0.918179 0.981600 0.185548
H127  H     H_    0.919368 0.086187 0.729872 0.048698
H128  H     H_    0.841243 0.933484 0.082560 0.145194
H129  H     H_    0.820010 0.782072 0.003177 0.241479
H130  H     H_    0.837850 0.800348 0.101046 0.216119
H131  H     H_    0.721103 0.872430 0.991483 0.264096
H132  H     H_    0.707630 0.778401 0.955917 0.267245
H133  H     H_    0.702084 0.850574 0.892734 0.275382
H134  H     H_    0.038881 0.225105 0.887303 0.163946
H135  H     H_    0.953527 0.181392 0.817128 0.128653
H136  H     H_    0.992628 0.251192 0.729347 0.238681
H137  H     H_    0.903327 0.224058 0.669147 0.212772
H138  H     H_    0.489420 0.387093 0.798309 0.132897
H139  H     H_    0.910197 0.320509 0.756838 0.265519
H140  H     H_    0.918072 0.358591 0.687680 0.271231
H141  H     H_    0.998839 0.348754 0.815264 0.264819
H142  H     H_    0.707030 0.417239 0.022024 0.164332
H143  H     H_    0.664518 0.442087 0.909864 0.137790
H144  H     H_    0.690860 0.286594 0.990804 0.231776
H145  H     H_    0.636465 0.301366 0.868688 0.226179
H146  H     H_    0.742278 0.359297 0.920049 0.269014
H147  H     H_    0.766204 0.269160 0.972506 0.267920
H148  H     H_    0.797685 0.349215 0.044031 0.271033
H149  H     H_    0.601222 0.566142 0.300141 0.026924
H150  H     H_    0.524656 0.706361 0.140834 0.165684
H151  H     H_    0.601829 0.648924 0.230618 0.116646
H152  H     H_    0.550123 0.770929 0.267788 0.233594
H153  H     H_    0.634626 0.719387 0.356589 0.221615
H154  H     H_    0.673869 0.771144 0.293278 0.265328
H155  H     H_    0.658289 0.840947 0.334696 0.270647
H156  H     H_    0.590881 0.825808 0.208272 0.264521
H157  H     H_    0.444075 0.309380 0.109857 0.193232
H158  H     H_    0.449271 0.337287 0.193423 0.134726
H159  H     H_    0.546122 0.219780 0.229075 0.238599
H160  H     H_    0.605084 0.446435 0.303412 0.108384
H161  H     H_    0.548759 0.245637 0.311582 0.215812
H162  H     H_    0.418419 0.206615 0.195352 0.263758
H163  H     H_    0.475849 0.132820 0.225612 0.275779
H164  H     H_    0.415578 0.179833 0.112312 0.268042
H165  H     H_    0.344047 0.620601 0.731067 0.186747
H166  H     H_    0.332867 0.524542 0.710377 0.090375
H167  H     H_    0.274265 0.634165 0.554756 0.230519
H168  H     H_    0.245654 0.540722 0.542091 0.217469
H169  H     H_    0.203648 0.590399 0.607601 0.279972
H170  H     H_    0.150895 0.616144 0.488531 0.272021
H171  H     H_    0.391095 0.466622 0.699073 0.044197
H172  H     H_    0.214937 0.680395 0.585364 0.255825
H173  H     H_    0.810483 0.769025 0.460926 0.250650
H174  H     H_    0.827216 0.826852 0.410472 0.268591
H175  H     H_    0.870440 0.738012 0.459983 0.255709
H176  H     H_    0.959816 0.836894 0.573326 0.226847
H177  H     H_    0.942965 0.778919 0.621788 0.217201
H178  H     H_    0.855213 0.869899 0.575927 0.223042
H179  H     H_    0.864664 0.925892 0.519438 0.228891
H180  H     H_    0.265591 0.939248 0.648756 0.261810
H181  H     H_    0.300841 0.948297 0.605911 0.258452
H182  H     H_    0.008255 0.885425 0.720082 0.177545
H183  H     H_    0.322212 0.016659 0.683897 0.248820
H184  H     H_    0.226370 0.062579 0.516768 0.214920
H185  H     H_    0.191726 0.053951 0.559626 0.235395
H186  H     H_    0.136331 0.933700 0.479442 0.231704
H187  H     H_    0.172101 0.936485 0.440361 0.179926
H188  H     H_    0.079362 0.711351 0.368953 0.251300
H189  H     H_    0.053142 0.719620 0.423052 0.279388
H190  H     H_    0.001182 0.661458 0.320591 0.255288
H191  H     H_    0.933056 0.776224 0.268577 0.220941
H192  H     H_    0.965646 0.771172 0.222244 0.257620
O1    O     O_R   0.892660 0.939370 0.892650 -0.605459
O2    O     O_R   0.000020 0.060630 0.092620 -0.557598
O3    O     O_R   0.000020 0.939370 0.092620 -0.619686
O4    O     O_R   0.999980 0.060630 0.907380 -0.619814
O5    O     O_R   0.499980 0.439370 0.907380 -0.636690
O6    O     O_R   0.500020 0.560630 0.092620 -0.610607
O7    O     O_R   0.500020 0.439370 0.092620 -0.570494
O8    O     O_R   0.499980 0.560630 0.907380 -0.569727
O9    O     O_R   0.939350 0.892680 0.439340 -0.618527
O10   O     O_R   0.060650 0.107320 0.560660 -0.620488
O11   O     O_R   0.060650 0.892680 0.560660 -0.626930
O12   O     O_R   0.107340 0.060630 0.107350 -0.617251
O13   O     O_R   0.939350 0.107320 0.439340 -0.628579
O14   O     O_R   0.439350 0.392680 0.439340 -0.630166
O15   O     O_R   0.560650 0.607320 0.560660 -0.615185
O16   O     O_R   0.560650 0.392680 0.560660 -0.627014
O17   O     O_R   0.439350 0.607320 0.439340 -0.624091
O18   O     O_R   0.939380 0.000000 0.531980 -0.628578
O19   O     O_R   0.060620 0.000000 0.468020 -0.641373
O20   O     O_R   0.439380 0.500000 0.531980 -0.646264
O21   O     O_R   0.560620 0.500000 0.468020 -0.648845
O22   O     O_R   0.060570 0.000000 0.653170 -0.636309
O23   O     O_R   0.107340 0.939370 0.107350 -0.652756
O24   O     O_R   0.939430 0.000000 0.346830 -0.627783
O25   O     O_R   0.560570 0.500000 0.653170 -0.628798
O26   O     O_R   0.439430 0.500000 0.346830 -0.629787
O27   O     O_R   0.499910 0.107290 0.447610 -0.618880
O28   O     O_R   0.500090 0.892710 0.552390 -0.622454
O29   O     O_R   0.500090 0.107290 0.552390 -0.624393
O30   O     O_R   0.499910 0.892710 0.447610 -0.621176
O31   O     O_R   0.999910 0.607290 0.447610 -0.625928
O32   O     O_R   0.000090 0.392710 0.552390 -0.621341
O33   O     O_R   0.000090 0.607290 0.552390 -0.620452
O34   O     O_R   0.892660 0.060630 0.892650 -0.635105
O35   O     O_R   0.999910 0.392710 0.447610 -0.619166
O36   O     O_R   0.607280 0.000000 0.555010 -0.618523
O37   O     O_R   0.392720 0.000000 0.444990 -0.622169
O38   O     O_R   0.107280 0.500000 0.555010 -0.623404
O39   O     O_R   0.892720 0.500000 0.444990 -0.620848
O40   O     O_R   0.607300 0.000000 0.659580 -0.625594
O41   O     O_R   0.392700 0.000000 0.340420 -0.623680
O42   O     O_R   0.107300 0.500000 0.659580 -0.619762
O43   O     O_R   0.892700 0.500000 0.340420 -0.623001
O44   O     O_3   0.930852 0.876784 0.754552 -0.623680
O45   O     O_R   0.392660 0.439370 0.892650 -0.630659
O46   O     O_3   0.099596 0.088339 0.288176 -0.629141
O47   O     O_3   0.921829 0.881395 0.106475 -0.627603
O48   O     O_3   0.024218 0.133132 0.821673 -0.601914
O49   O     O_3   0.596821 0.399125 0.914222 -0.609716
O50   O     O_3   0.510463 0.637691 0.200856 -0.619494
O51   O     O_3   0.539838 0.362777 0.224361 -0.624687
O52   O     O_3   0.396337 0.582728 0.706897 -0.637946
O53   O     O_3   0.108767 0.915741 0.904315 -0.725732
O54   O     O_3   0.962705 0.132377 0.152956 -0.614189
O55   O     O_3   0.872277 0.043814 0.064436 -0.709295
O56   O     O_R   0.607340 0.560630 0.107350 -0.646011
O57   O     O_3   0.129858 0.041933 0.946141 -0.650125
O58   O     O_3   0.626861 0.549488 0.931862 -0.677570
O59   O     O_3   0.383740 0.560662 0.068770 -0.643593
O60   O     O_3   0.389757 0.432714 0.078036 -0.697267
O61   O     O_3   0.532280 0.634414 0.838897 -0.624172
O62   O     O_R   0.607340 0.439370 0.107350 -0.608992
O63   O     O_R   0.392660 0.560630 0.892650 -0.630108
O64   O     O_R   0.999980 0.939370 0.907380 -0.624112
Zn1   Zn    Zn3+2 0.000000 0.919050 0.000000 0.953691
Zn2   Zn    Zn3+2 0.500050 0.000000 0.569860 0.924432
Zn3   Zn    Zn3+2 0.999950 0.500000 0.430140 0.925807
Zn4   Zn    Zn3+2 0.000050 0.500000 0.569860 0.945463
Zn5   Zn    Zn3+2 0.000000 0.080950 0.000000 0.966188
Zn6   Zn    Zn3+2 0.500000 0.419050 0.000000 0.986964
Zn7   Zn    Zn3+2 0.500000 0.580950 0.000000 0.961726
Zn8   Zn    Zn3+2 0.919050 0.000000 0.419040 0.922130
Zn9   Zn    Zn3+2 0.080950 0.000000 0.580960 0.923045
Zn10  Zn    Zn3+2 0.419050 0.500000 0.419040 0.917013
Zn11  Zn    Zn3+2 0.580950 0.500000 0.580960 0.914257
Zn12  Zn    Zn3+2 0.499950 0.000000 0.430140 0.946716

loop_
_geom_bond_atom_site_label_1
_geom_bond_atom_site_label_2
_ccdc_geom_bond_type
C126  C127  S    
C83   C102  S    
C134  O9    A    
C101  C113  T    
C39   H74   S    
C19   C20   S    
C8    H188  S    
C45   O60   S    
C18   H22   S    
C126  H134  S    
C4    H185  S    
C9    C88   S    
C125  H131  S    
C95   C99   S    
O16   Zn11  S    
C1    O34   A    
C76   C98   S    
C143  C144  S    
O5    Zn6   S    
C53   C106  S    
C25   H37   S    
C88   H24   S    
C127  H136  S    
O27   Zn12  S    
C85   C103  S    
C55   O28   A    
C40   H76   S    
C31   H56   S    
C45   C47   S    
C74   O5    A    
C115  C123  T    
C84   C100  S    
C140  C141  S    
C130  H144  S    
C135  H154  S    
C136  H157  S    
C74   C100  S    
C97   O59   S    
C77   O46   S    
O32   Zn4   S    
C51   H103  S    
C46   O19   A    
C37   C38   S    
O31   Zn3   S    
C11   H6    S    
C139  C140  S    
C92   C106  S    
O43   Zn3   S    
O1    Zn1   S    
C37   H70   S    
C48   H95   S    
C116  H112  S    
C109  H107  S    
C5    H181  S    
C96   O61   S    
C4    C5    S    
C49   O61   S    
C49   H97   S    
C56   O33   A    
C6    C7    S    
C34   H63   S    
C21   H28   S    
C96   C109  S    
C56   O31   A    
C131  H147  S    
C40   H77   S    
C74   O8    A    
C32   H59   S    
C130  C131  S    
C80   C88   S    
O6    Zn7   S    
C12   H19   S    
C8    H190  S    
C139  H166  S    
C14   H17   S    
C5    H180  S    
C29   O54   S    
C84   C93   S    
C57   O23   A    
O30   Zn12  S    
O45   Zn6   S    
C20   H31   S    
C20   C21   S    
C16   C91   S    
C78   C99   S    
C133  C135  S    
O21   Zn11  S    
C22   C23   S    
C103  C107  S    
C46   O24   A    
C76   C85   S    
C61   O42   A    
C78   C87   S    
C79   C115  S    
O29   Zn2   S    
C86   C104  S    
C121  H123  S    
C112  C114  T    
C25   H36   S    
C7    C8    S    
O18   Zn8   S    
C33   H61   S    
C95   O55   S    
C39   H75   S    
C36   C37   S    
C57   O12   A    
O11   Zn9   S    
C58   O35   A    
C133  H152  S    
C140  H167  S    
C109  H110  S    
C4    H184  S    
C6    H4    S    
C132  O50   S    
C19   C92   S    
C116  O44   S    
C42   O59   S    
O3    Zn1   S    
C26   H44   S    
C2    O13   A    
C28   H50   S    
O42   Zn4   S    
C9    C10   S    
C19   H33   S    
C41   H78   S    
C138  H164  S    
O63   Zn7   S    
C5    H183  S    
C26   O53   S    
C90   C111  T    
C33   C34   S    
O28   Zn2   S    
C42   H82   S    
C108  H90   S    
C94   C107  S    
C120  H122  S    
C129  H143  S    
C15   H14   S    
C50   H99   S    
C95   C108  S    
C39   C40   S    
C122  H126  S    
C57   C113  S    
C110  H108  S    
C29   H51   S    
C87   H13   S    
C7    H192  S    
C22   H42   S    
C142  H179  S    
C23   H39   S    
C29   C30   S    
C135  H155  S    
C124  H129  S    
C119  H120  S    
O14   Zn10  S    
C17   C18   S    
C82   C102  S    
O17   Zn10  S    
O10   Zn9   S    
C55   C69   S    
C58   O32   A    
C11   H7    S    
C30   H54   S    
C52   C105  S    
C10   C11   S    
C128  H140  S    
C122  C124  S    
C3    C4    S    
C121  H125  S    
C85   H182  S    
C137  H161  S    
C120  C121  S    
C68   O63   A    
C129  C130  S    
C2    O10   A    
C3    H186  S    
C105  C109  S    
C107  H106  S    
C53   O26   A    
O64   Zn1   S    
C77   C86   S    
C48   H94   S    
C122  H128  S    
C82   O50   S    
C126  H135  S    
O24   Zn8   S    
C117  C118  S    
C117  H114  S    
C16   H27   S    
C20   H32   S    
C118  H117  S    
C78   O47   S    
C96   C100  S    
C130  H145  S    
C62   O43   A    
C84   O52   S    
C77   C99   S    
C129  O49   S    
O36   Zn12  S    
C41   H80   S    
C144  H173  S    
C12   H18   S    
C138  H162  S    
C9    H11   S    
C49   C50   S    
C89   C105  S    
C78   H116  S    
C14   C15   S    
C61   C112  S    
C125  H132  S    
C54   O29   A    
O40   Zn2   S    
O41   Zn12  S    
C75   O6    A    
C38   H71   S    
C88   C103  S    
C31   H55   S    
C60   O37   A    
C25   H38   S    
C26   C27   S    
O33   Zn4   S    
C44   H87   S    
C45   H89   S    
C128  H141  S    
C35   C103  S    
C55   O30   A    
C30   C31   S    
C136  H158  S    
C58   C71   S    
C94   C98   S    
C64   C71   T    
C31   H58   S    
C10   H8    S    
C61   O38   A    
C47   H93   S    
C18   H20   S    
C11   H5    S    
O9    Zn8   S    
C16   C17   S    
C65   C67   T    
C97   C102  S    
C24   C66   S    
C81   C89   S    
C3    C86   S    
C38   H73   S    
C86   H2    S    
C10   H9    S    
C37   H69   S    
C48   H96   S    
C18   H21   S    
C60   O41   A    
C41   H81   S    
C94   O53   S    
C143  H177  S    
C119  O46   S    
C141  H169  S    
C43   H84   S    
C38   H72   S    
C94   O57   S    
C136  C137  S    
C13   C65   S    
C118  H115  S    
C34   H64   S    
O39   Zn4   S    
C83   H160  S    
C46   C104  S    
C108  H101  S    
O37   Zn2   S    
C32   H60   S    
C143  H176  S    
C63   C134  S    
C15   H15   S    
C59   O40   A    
C144  H175  S    
C139  H165  S    
C35   O22   A    
C93   H68   S    
C50   C51   S    
O22   Zn9   S    
C54   O27   A    
O25   Zn11  S    
C76   H1    S    
O8    Zn7   S    
C79   O62   A    
C77   H105  S    
C42   C43   S    
C127  C128  S    
C35   O18   A    
C104  C108  S    
C47   H92   S    
O38   Zn3   S    
C141  H170  S    
C80   C98   S    
C81   H138  S    
C45   H91   S    
C82   H149  S    
C119  C120  S    
C43   H85   S    
C81   C100  S    
C3    H187  S    
C36   O57   S    
C97   O60   S    
C132  H151  S    
C80   H127  S    
C32   C33   S    
C51   H104  S    
C1    C111  S    
C127  H137  S    
C140  H168  S    
C125  H133  S    
C137  H159  S    
C44   H88   S    
O2    Zn5   S    
C82   C91   S    
C36   H67   S    
C87   C104  S    
C76   O44   S    
C16   H26   S    
C21   H30   S    
O12   Zn5   S    
C133  H153  S    
C142  C143  S    
O13   Zn8   S    
C52   O20   A    
C116  H111  S    
C83   O51   S    
C6    H3    S    
C73   O2    A    
C81   O49   S    
C43   C44   S    
C49   H98   S    
C72   C98   S    
C42   H83   S    
C83   C92   S    
C62   O39   A    
C72   O4    A    
C131  H148  S    
C75   O7    A    
C129  H142  S    
C52   O25   A    
C50   H100  S    
C8    H189  S    
C17   H25   S    
C66   C69   T    
C110  H109  S    
O35   Zn3   S    
C116  C117  S    
C7    H191  S    
C72   O64   A    
C44   H86   S    
C84   H171  S    
C126  O48   S    
C93   C105  S    
C124  H130  S    
C119  H119  S    
C132  C133  S    
O26   Zn10  S    
O7    Zn6   S    
C32   O55   S    
O15   Zn11  S    
C13   O14   A    
O4    Zn5   S    
C136  O51   S    
C23   C25   S    
C141  H172  S    
C91   C106  S    
C27   H47   S    
C28   H48   S    
C121  H124  S    
C62   C123  S    
C2    C64   S    
C107  H79   S    
C91   H46   S    
C33   H62   S    
C134  O11   A    
C12   C89   S    
C51   H102  S    
C17   H23   S    
C54   C67   S    
C68   O45   A    
C73   O3    A    
C6    C87   S    
C14   H16   S    
C59   C90   S    
C34   H65   S    
C75   C102  S    
C117  H113  S    
C26   H43   S    
C47   C48   S    
C118  H118  S    
C63   C70   T    
C28   H49   S    
C79   O56   A    
C19   H34   S    
C15   H12   S    
C144  H174  S    
C138  H163  S    
C40   C41   S    
C12   C14   S    
C9    H10   S    
C56   C70   S    
C96   O58   S    
C22   C93   S    
C1    O1    A    
C60   C101  S    
O56   Zn7   S    
O23   Zn1   S    
C106  C110  S    
O20   Zn10  S    
C122  O47   S    
C73   C99   S    
C120  H121  S    
C131  H146  S    
C53   O21   A    
C59   O36   A    
C85   C142  S    
C29   H52   S    
C27   H45   S    
C137  C138  S    
C21   H29   S    
C128  H139  S    
C139  O52   S    
O62   Zn6   S    
C22   H41   S    
C142  H178  S    
C39   O58   S    
C23   H40   S    
C135  H156  S    
C97   C110  S    
O19   Zn9   S    
C132  H150  S    
C89   H35   S    
C13   O16   A    
C24   O17   A    
C30   H53   S    
C24   O15   A    
C36   H66   S    
C27   C28   S    
C80   O48   S    
O34   Zn5   S    
C95   O54   S    
C92   H57   S    
C68   C114  S    
C124  C125  S    
