data_mof_unit_21238.cif
_audit_creation_date              2012-12-10T18:04:37-0500
_audit_creation_method            fapswitch 2.2
_symmetry_space_group_name_H-M    P1
_symmetry_Int_Tables_number       1
_space_group_crystal_system       triclinic
_cell_length_a                    19.240657
_cell_length_b                    18.311243
_cell_length_c                    12.748346
_cell_angle_alpha                 90.589371
_cell_angle_beta                  97.875598
_cell_angle_gamma                 89.882693
_cell_volume                      4448.90111966

loop_
_atom_site_label
_atom_site_type_symbol
_atom_type_description
_atom_site_fract_x
_atom_site_fract_y
_atom_site_fract_z
_atom_type_partial_charge
C1    C     C_R   0.410308 0.101154 0.444341 0.964172
C2    C     C_R   0.409973 0.899490 0.443573 0.975108
C3    C     C_R   0.910470 0.601323 0.444514 0.968979
C4    C     C_R   0.909919 0.399553 0.443534 0.976014
C5    C     C_R   0.726620 0.243994 0.533574 -0.196726
C6    C     C_R   0.739339 0.773120 0.540416 -0.149744
C7    C     C_R   0.227533 0.743215 0.534537 -0.196018
C8    C     C_R   0.239287 0.273323 0.538123 -0.086089
C9    C     C_R   0.707530 0.298720 0.602076 -0.136904
C10   C     C_R   0.765533 0.761176 0.646795 -0.210261
C11   C     C_R   0.208106 0.798059 0.602619 -0.137760
C12   C     C_R   0.265098 0.259961 0.644283 -0.328433
C13   C     C_R   0.224644 0.870727 0.581878 0.470598
C14   C     C_R   0.337065 0.241835 0.666752 0.324736
C15   C     C_R   0.724310 0.371361 0.581646 0.469064
C16   C     C_R   0.836826 0.740601 0.669335 0.363306
C17   C     C_R   0.269172 0.884296 0.504818 0.470017
C18   C     C_R   0.372085 0.219234 0.582376 0.564964
C19   C     C_R   0.769050 0.384967 0.504905 0.468540
C20   C     C_R   0.871559 0.717827 0.584770 0.535741
C21   C     C_R   0.680397 0.186519 0.508950 0.416721
C22   C     C_R   0.696531 0.833036 0.520145 0.439350
C23   C     C_R   0.181546 0.685486 0.510017 0.415921
C24   C     C_R   0.195792 0.332773 0.519222 0.544770
C25   C     C_R   0.630405 0.211010 0.672261 0.354681
C26   C     C_R   0.656752 0.814812 0.691129 0.414065
C27   C     C_R   0.131085 0.710321 0.672892 0.356605
C28   C     C_R   0.157147 0.314472 0.691065 0.456514
C29   C     C_R   0.365456 0.836717 0.414055 -0.104921
C30   C     C_R   0.357215 0.155845 0.409072 -0.123872
C31   C     C_R   0.865055 0.337088 0.413724 -0.106520
C32   C     C_R   0.857512 0.656273 0.410013 -0.115969
C33   C     C_R   0.641177 0.015702 0.127547 0.435605
C34   C     C_R   0.141358 0.512774 0.127080 0.427972
C35   C     C_R   0.378426 0.990346 0.764168 0.550441
C36   C     C_R   0.878266 0.491610 0.764417 0.543444
C37   C     C_R   0.353352 0.970762 0.857746 0.209248
C38   C     C_R   0.853200 0.471717 0.858007 0.216283
C39   C     C_R   0.591352 0.900096 0.556164 0.938291
C40   C     C_R   0.589005 0.102648 0.555004 0.965375
C41   C     C_R   0.091500 0.400237 0.556330 0.941194
C42   C     C_R   0.089224 0.602432 0.555162 0.963585
C43   C     C_R   0.400219 0.968874 0.952613 0.375688
C44   C     C_R   0.900128 0.469433 0.952771 0.382895
C45   C     C_R   0.470062 0.995070 0.954398 -0.175380
C46   C     C_R   0.970072 0.495171 0.954439 -0.174072
C47   C     C_R   0.494703 0.005469 0.854743 -0.128531
C48   C     C_R   0.994806 0.505093 0.854738 -0.119104
C49   C     C_R   0.518703 0.004103 0.049183 -0.047711
C50   C     C_R   0.018704 0.504023 0.049232 -0.051093
C51   C     C_R   0.588908 0.023725 0.041065 -0.250097
C52   C     C_R   0.089125 0.522509 0.041100 -0.249692
C53   C     C_R   0.606115 0.049811 0.946334 0.396903
C54   C     C_R   0.106611 0.548416 0.946491 0.395326
C55   C     C_R   0.567144 0.022021 0.854388 0.583548
C56   C     C_R   0.067381 0.521159 0.854452 0.582479
C57   C     C_R   0.501378 0.997897 0.152725 -0.072908
C58   C     C_R   0.001291 0.498501 0.152785 -0.073881
C59   C     C_R   0.621574 0.007122 0.226363 0.496859
C60   C     C_R   0.121713 0.505218 0.226111 0.488334
C61   C     C_R   0.665352 0.279747 0.679802 0.337039
C62   C     C_R   0.720695 0.776064 0.723381 0.307594
C63   C     C_R   0.165941 0.779102 0.680354 0.338219
C64   C     C_R   0.219156 0.272327 0.720859 0.326018
C65   C     C_R   0.634858 0.166502 0.581377 -0.360975
C66   C     C_R   0.648459 0.848855 0.590343 -0.353025
C67   C     C_R   0.135548 0.665849 0.581977 -0.360334
C68   C     C_R   0.148291 0.348449 0.590214 -0.381454
C69   C     C_R   0.392655 0.780030 0.357280 -0.465455
C70   C     C_R   0.324332 0.153405 0.304012 -0.373001
C71   C     C_R   0.891773 0.280484 0.356226 -0.461284
C72   C     C_R   0.825233 0.655334 0.304519 -0.438070
C73   C     C_R   0.370160 0.708247 0.367464 0.465727
C74   C     C_R   0.262181 0.192204 0.273381 0.349815
C75   C     C_R   0.868680 0.208832 0.365504 0.467561
C76   C     C_R   0.762023 0.692569 0.275494 0.447180
C77   C     C_R   0.321232 0.693987 0.436021 0.565655
C78   C     C_R   0.231240 0.231565 0.350862 0.509770
C79   C     C_R   0.819718 0.194594 0.434005 0.564852
C80   C     C_R   0.729727 0.727923 0.353687 0.522458
C81   C     C_R   0.284801 0.753308 0.478550 -0.147177
C82   C     C_R   0.267621 0.237523 0.455783 -0.040982
C83   C     C_R   0.783788 0.253975 0.477338 -0.147378
C84   C     C_R   0.766330 0.735140 0.458791 -0.131250
C85   C     C_R   0.306455 0.825310 0.465120 -0.154102
C86   C     C_R   0.332596 0.203290 0.482377 -0.232283
C87   C     C_R   0.805964 0.325891 0.464669 -0.154844
C88   C     C_R   0.832007 0.702130 0.484649 -0.195242
H1    H     H_    0.448293 0.996042 0.169767 0.227767
H2    H     H_    0.948146 0.497517 0.169756 0.228232
H3    H     H_    0.436828 0.790156 0.315029 0.191617
H4    H     H_    0.344735 0.117874 0.246923 0.184304
H5    H     H_    0.935980 0.290492 0.313996 0.190380
H6    H     H_    0.846431 0.621538 0.246215 0.190170
N1    N     N_R   0.552340 1.000000 0.237260 -0.214752
N2    N     N_R   0.052340 0.500000 0.237260 -0.215316
N3    N     N_R   0.448170 0.000000 0.762060 -0.171159
N4    N     N_R   0.948170 0.500000 0.762060 -0.168684
O1    O     O_R   0.448200 0.076800 0.373930 -0.653221
O2    O     O_R   0.448200 0.923200 0.373930 -0.638913
O3    O     O_R   0.948200 0.576800 0.373930 -0.652382
O4    O     O_R   0.948200 0.423200 0.373930 -0.638695
O5    O     O_R   0.414750 0.076790 0.542400 -0.553257
O6    O     O_R   0.414750 0.923210 0.542400 -0.559575
O7    O     O_R   0.914750 0.576790 0.542400 -0.551478
O8    O     O_R   0.914750 0.423210 0.542400 -0.560780
O9    O     O_R   0.585240 0.923200 0.457600 -0.603800
O10   O     O_R   0.585240 0.076800 0.457600 -0.612468
O11   O     O_R   0.085240 0.423200 0.457600 -0.599136
O12   O     O_R   0.085240 0.576800 0.457600 -0.615755
O13   O     O_R   0.551780 0.923190 0.626070 -0.524959
O14   O     O_R   0.551780 0.076810 0.626070 -0.499452
O15   O     O_R   0.051780 0.423190 0.626070 -0.522470
O16   O     O_R   0.051780 0.576810 0.626070 -0.499387
Zn1   Zn    Zn3+2 0.522330 0.000000 0.387520 0.966209
Zn2   Zn    Zn3+2 0.022330 0.500000 0.387520 0.965641
Zn3   Zn    Zn3+2 0.477660 0.000000 0.612480 1.086658
Zn4   Zn    Zn3+2 0.977660 0.500000 0.612480 1.090889
O17   O     O_3   0.593603 0.183902 0.750292 -0.556434
C89   C     C_3   0.553491 0.236534 0.797083 0.006833
H7    H     H_    0.532122 0.280124 0.742004 0.140262
H8    H     H_    0.584589 0.260247 0.869079 0.175498
H9    H     H_    0.508159 0.208295 0.823632 0.213635
O18   O     O_3   0.598343 0.809835 0.744171 -0.564021
C90   C     C_3   0.612409 0.832582 0.850861 -0.174887
H10   H     H_    0.655316 0.873291 0.865668 0.104767
H11   H     H_    0.623666 0.784456 0.902641 0.196580
H12   H     H_    0.564456 0.858677 0.873360 0.168259
O19   O     O_3   0.094520 0.683002 0.751081 -0.553715
C91   C     C_3   0.054691 0.735474 0.798689 0.001196
H13   H     H_    0.033005 0.779144 0.744017 0.135748
H14   H     H_    0.086139 0.759031 0.870500 0.175972
H15   H     H_    0.009550 0.707139 0.825661 0.213207
O20   O     O_3   0.102197 0.318198 0.751729 -0.573885
C92   C     C_3   0.125097 0.333239 0.859756 -0.103865
H16   H     H_    0.175626 0.363463 0.873728 0.131545
H17   H     H_    0.128922 0.281715 0.905278 0.209284
H18   H     H_    0.084924 0.367400 0.891317 0.133800
O21   O     O_3   0.625417 0.122593 0.941068 -0.606708
C93   C     C_3   0.695854 0.135754 0.983095 -0.194621
H19   H     H_    0.731963 0.091417 0.964741 0.170650
H20   H     H_    0.700197 0.146993 0.069471 0.201417
H21   H     H_    0.713202 0.185995 0.946310 0.185161
O22   O     O_3   0.127340 0.620769 0.941129 -0.606624
C94   C     C_3   0.197410 0.632971 0.985847 -0.193531
H22   H     H_    0.233455 0.588732 0.966917 0.173821
H23   H     H_    0.200663 0.642853 0.072433 0.199740
H24   H     H_    0.215681 0.683706 0.951470 0.183627
O23   O     O_3   0.711662 0.015540 0.116392 -0.600359
C95   C     C_3   0.733632 0.942545 0.106853 -0.263445
H25   H     H_    0.702641 0.914370 0.038245 0.114967
H26   H     H_    0.730421 0.911692 0.180795 0.216669
H27   H     H_    0.789296 0.942499 0.093003 0.186319
O24   O     O_3   0.211666 0.510291 0.114785 -0.606599
C96   C     C_3   0.233196 0.436606 0.114322 -0.244170
H28   H     H_    0.198815 0.403509 0.054707 0.116008
H29   H     H_    0.234776 0.412151 0.194112 0.221751
H30   H     H_    0.287090 0.434289 0.092783 0.187345
O25   O     O_3   0.332763 0.998269 0.672045 -0.520410
C97   C     C_3   0.294357 0.063474 0.679520 -0.169666
H31   H     H_    0.327284 0.108145 0.719091 0.120522
H32   H     H_    0.248975 0.054429 0.722970 0.204722
H33   H     H_    0.273600 0.081689 0.598543 0.184552
O26   O     O_3   0.832574 0.500858 0.672509 -0.531680
C98   C     C_3   0.791950 0.564252 0.683099 -0.123854
H34   H     H_    0.822213 0.608429 0.728929 0.149315
H35   H     H_    0.745351 0.551512 0.722048 0.218208
H36   H     H_    0.772839 0.585272 0.603041 0.168624
O27   O     O_3   0.377225 0.939049 0.040798 -0.634638
C99   C     C_3   0.393531 0.863875 0.043184 -0.306416
H37   H     H_    0.451118 0.854527 0.048824 0.171683
H38   H     H_    0.365597 0.834652 0.972805 0.187172
H39   H     H_    0.375808 0.840056 0.114663 0.198766
O28   O     O_3   0.877081 0.439770 0.041038 -0.632750
C100  C     C_3   0.893195 0.364554 0.043560 -0.312671
H40   H     H_    0.950769 0.355053 0.049480 0.167367
H41   H     H_    0.865319 0.335358 0.973108 0.187302
H42   H     H_    0.875254 0.340835 0.114943 0.198636
O29   O     O_3   0.283545 0.951308 0.852463 -0.688641
H43   H     H_    0.271520 0.944234 0.924706 0.382057
O30   O     O_3   0.783390 0.452286 0.852810 -0.689801
H44   H     H_    0.771437 0.444949 0.925035 0.383779
O31   O     O_3   0.600142 0.000466 0.769253 -0.561816
C101  C     C_3   0.673226 0.013883 0.778848 -0.319347
H45   H     H_    0.702179 0.987702 0.850041 0.123036
H46   H     H_    0.684132 0.073261 0.777990 0.215926
H47   H     H_    0.693481 0.989608 0.708959 0.148005
O32   O     O_3   0.100144 0.500398 0.768769 -0.557694
C102  C     C_3   0.173532 0.512032 0.779323 -0.302493
H48   H     H_    0.201523 0.485069 0.850568 0.127677
H49   H     H_    0.185716 0.571168 0.779104 0.212350
H50   H     H_    0.193653 0.487439 0.709564 0.145144
O33   O     O_3   0.190239 0.926508 0.627317 -0.727454
H51   H     H_    0.192243 0.971528 0.585713 0.358752
O34   O     O_3   0.375854 0.251847 0.765180 -0.788628
H52   H     H_    0.350554 0.286190 0.807051 0.352725
O35   O     O_3   0.689841 0.427146 0.626900 -0.729680
H53   H     H_    0.691243 0.471885 0.584481 0.356107
O36   O     O_3   0.875544 0.748123 0.768236 -0.767480
H54   H     H_    0.852854 0.785162 0.809276 0.343490
O37   O     O_3   0.664973 0.324223 0.767141 -0.707428
H55   H     H_    0.626541 0.359812 0.748068 0.355710
O38   O     O_3   0.734284 0.743182 0.820454 -0.737651
H56   H     H_    0.739897 0.783146 0.873798 0.309876
O39   O     O_3   0.165440 0.823697 0.767539 -0.706664
H57   H     H_    0.126837 0.859081 0.748395 0.354178
O40   O     O_3   0.229354 0.238527 0.818126 -0.781006
H58   H     H_    0.263184 0.197909 0.815829 0.352811
O41   O     O_3   0.677931 0.152647 0.410629 -0.516317
C103  C     C_3   0.638656 0.196796 0.333605 -0.175003
H59   H     H_    0.584885 0.207458 0.353287 0.132382
H60   H     H_    0.633106 0.167488 0.256362 0.180844
H61   H     H_    0.665807 0.249283 0.323468 0.125392
O42   O     O_3   0.704227 0.876543 0.434181 -0.558027
C104  C     C_3   0.768114 0.915651 0.456873 -0.209737
H62   H     H_    0.763399 0.958985 0.517298 0.157475
H63   H     H_    0.780118 0.942034 0.383659 0.248179
H64   H     H_    0.814000 0.880070 0.483380 0.123250
O43   O     O_3   0.179793 0.650879 0.412312 -0.519721
C105  C     C_3   0.141340 0.694659 0.333933 -0.176062
H65   H     H_    0.087457 0.706138 0.352542 0.133345
H66   H     H_    0.136044 0.664633 0.257282 0.180857
H67   H     H_    0.169018 0.746721 0.323167 0.125426
O44   O     O_3   0.206575 0.379951 0.438697 -0.557065
C106  C     C_3   0.267917 0.421301 0.472367 -0.248802
H68   H     H_    0.258282 0.461103 0.535310 0.149627
H69   H     H_    0.282453 0.452230 0.404403 0.261885
H70   H     H_    0.314228 0.386659 0.500417 0.126162
O45   O     O_3   0.812122 0.122663 0.461948 -0.682275
H71   H     H_    0.799854 0.121724 0.534893 0.313498
O46   O     O_3   0.661232 0.750325 0.325711 -0.694006
H72   H     H_    0.635583 0.742291 0.386855 0.324840
O47   O     O_3   0.314136 0.622149 0.464789 -0.685657
H73   H     H_    0.301514 0.621472 0.537539 0.314840
O48   O     O_3   0.164282 0.260295 0.328305 -0.740619
H74   H     H_    0.145387 0.251357 0.253125 0.368811
O49   O     O_3   0.400412 0.650239 0.320438 -0.706697
H75   H     H_    0.434145 0.669355 0.275212 0.329717
O50   O     O_3   0.228791 0.188755 0.170309 -0.788897
H76   H     H_    0.257499 0.159195 0.126709 0.350881
O51   O     O_3   0.898390 0.150840 0.317645 -0.706286
H77   H     H_    0.932201 0.169937 0.272532 0.326506
O52   O     O_3   0.727386 0.689661 0.173245 -0.723192
H78   H     H_    0.756725 0.662481 0.127844 0.337108
O53   O     O_3   0.277902 0.955090 0.471751 -0.593486
C107  C     C_3   0.237489 0.964251 0.371865 -0.393116
H79   H     H_    0.257914 0.930093 0.310193 0.185317
H80   H     H_    0.181091 0.951942 0.374497 0.162736
H81   H     H_    0.241053 0.022165 0.348598 0.215056
O54   O     O_3   0.444670 0.217598 0.596154 -0.577771
C108  C     C_3   0.468459 0.274141 0.534959 -0.376924
H82   H     H_    0.454888 0.263462 0.448635 0.167152
H83   H     H_    0.526251 0.277301 0.550437 0.168684
H84   H     H_    0.447731 0.328322 0.556445 0.169402
O55   O     O_3   0.778304 0.455880 0.472709 -0.592010
C109  C     C_3   0.738325 0.465730 0.372637 -0.389128
H85   H     H_    0.758924 0.431889 0.310795 0.185792
H86   H     H_    0.681822 0.453545 0.374524 0.162262
H87   H     H_    0.742194 0.523775 0.350182 0.213613
O56   O     O_3   0.944138 0.716192 0.598312 -0.576934
C110  C     C_3   0.967770 0.774025 0.539301 -0.383757
H88   H     H_    0.948586 0.827812 0.565208 0.167356
H89   H     H_    0.952398 0.766137 0.452689 0.168055
H90   H     H_    0.025667 0.775787 0.552313 0.170296
O57   O     O_3   0.673632 0.010897 0.310920 -0.687193
H91   H     H_    0.653278 0.999721 0.374830 0.409029
O58   O     O_3   0.173951 0.508085 0.310462 -0.689834
H92   H     H_    0.153102 0.500148 0.374878 0.412009

loop_
_geom_bond_atom_site_label_1
_geom_bond_atom_site_label_2
_ccdc_geom_bond_type
C92   H18   S    
C54   O22   S    
O38   H56   S    
C98   H34   S    
C8    C24   A    
C96   H29   S    
C8    C82   A    
C11   C13   A    
O27   C99   S    
C14   C18   A    
C53   C55   A    
C83   C87   A    
O50   H76   S    
C93   H21   S    
C72   C76   A    
O44   C106  S    
C1    O1    A    
C105  H66   S    
C94   H22   S    
C43   O27   S    
O23   C95   S    
C92   H16   S    
C40   O14   A    
C10   C62   A    
O30   H44   S    
C3    O7    A    
C38   C44   A    
C18   C86   A    
C38   O30   S    
C57   H1    S    
C2    C29   S    
C9    C61   A    
O10   Zn1   S    
O26   C98   S    
C28   C68   A    
C93   H20   S    
O19   C91   S    
C19   C87   A    
C104  H63   S    
C36   O26   S    
O1    Zn1   S    
O14   Zn3   S    
C12   C64   A    
C108  H83   S    
C99   H37   S    
O52   H78   S    
C6    C22   A    
C109  H87   S    
C106  H70   S    
C49   C57   A    
C101  H45   S    
O41   C103  S    
C92   H17   S    
O51   H77   S    
O37   H55   S    
C23   C67   A    
C74   O50   S    
C102  H49   S    
C29   C69   A    
C58   N2    A    
O28   C100  S    
C22   C66   A    
O11   Zn2   S    
C61   O37   S    
C15   C19   A    
C21   C65   A    
C42   O16   A    
C79   O45   S    
C56   O32   S    
C89   H8    S    
C78   O48   S    
C49   C51   A    
C95   H27   S    
C109  H86   S    
C70   C74   A    
C90   H12   S    
C50   C52   A    
O48   H74   S    
C69   C73   A    
C17   O53   S    
C8    C12   A    
C30   C86   A    
O57   H91   S    
C1    O5    A    
C29   C85   A    
C89   H9    S    
C80   C84   A    
C40   O10   A    
C72   H6    S    
C3    O3    A    
C24   O44   S    
C2    O2    A    
O36   H54   S    
C98   H35   S    
N3    Zn3   S    
C13   O33   S    
O53   C107  S    
O8    Zn4   S    
C96   H30   S    
C34   C60   A    
C35   N3    A    
O5    Zn3   S    
O2    Zn1   S    
C59   N1    A    
C25   O17   S    
C105  H65   S    
C30   C70   A    
C44   C46   A    
N4    Zn4   S    
C41   C68   S    
C23   O43   S    
C45   C47   A    
C37   O29   S    
C64   O40   S    
C107  H80   S    
C31   C87   A    
C59   O57   S    
O40   H58   S    
C26   C66   A    
C97   H33   S    
C84   C88   A    
C108  H82   S    
C76   O52   S    
C25   C65   A    
C93   H19   S    
C14   O34   S    
C100  H41   S    
C104  H64   S    
N1    Zn1   S    
O43   C105  S    
C110  H89   S    
C110  H88   S    
C100  H42   S    
O56   C110  S    
C108  H84   S    
C41   O11   A    
O54   C108  S    
C82   C86   A    
C4    O8    A    
O15   Zn4   S    
C4    O4    A    
O32   C102  S    
C51   C53   A    
C97   H32   S    
C37   C43   A    
C102  H50   S    
C91   H14   S    
O31   C101  S    
C15   O35   S    
C5    C83   A    
C5    C9    A    
O45   H71   S    
C75   O51   S    
C58   H2    S    
C53   O21   S    
C78   C82   A    
C7    C11   A    
O25   C97   S    
C77   C81   A    
C16   C20   A    
C109  H85   S    
C77   O47   S    
C106  H68   S    
C50   C58   A    
C52   C54   A    
C3    C32   S    
C25   C61   A    
C43   C45   A    
O9    Zn1   S    
O24   C96   S    
O16   Zn4   S    
C16   O36   S    
C27   C63   A    
C20   O56   S    
C60   N2    A    
C19   O55   S    
C7    C81   A    
C12   C14   A    
C2    O6    A    
C103  H59   S    
C34   O24   S    
C103  H60   S    
C40   C65   S    
C22   O42   S    
C63   O39   S    
C90   H10   S    
C27   O19   S    
C39   C66   S    
C17   C85   A    
O7    Zn4   S    
C91   H15   S    
C33   C51   A    
C80   O46   S    
O55   C109  S    
C6    C84   A    
O12   Zn2   S    
O46   H72   S    
C94   H24   S    
C89   H7    S    
C28   C64   A    
C47   C55   A    
O6    Zn3   S    
O47   H73   S    
C57   N1    A    
C102  H48   S    
C48   C56   A    
O39   H57   S    
C107  H79   S    
O3    Zn2   S    
C55   O31   S    
C35   C37   A    
O42   C104  S    
C70   H4    S    
C76   C80   A    
O4    Zn2   S    
C44   O28   S    
O22   C94   S    
C39   O9    A    
C110  H90   S    
O17   C89   S    
C54   C56   A    
O20   C92   S    
C71   H5    S    
C35   O25   S    
C98   H36   S    
C103  H61   S    
C48   N4    A    
C46   C50   A    
C34   C52   A    
C47   N3    A    
C101  H47   S    
C13   C17   A    
O13   Zn3   S    
O58   H92   S    
C97   H31   S    
C36   C38   A    
C91   H13   S    
C42   O12   A    
C41   O15   A    
C101  H46   S    
C100  H40   S    
C33   O23   S    
C73   O49   S    
C71   C75   A    
C39   O13   A    
O21   C93   S    
C42   C67   S    
C10   C16   A    
C99   H38   S    
C18   O54   S    
C7    C23   A    
C94   H23   S    
C20   C88   A    
C31   C71   A    
C1    C30   S    
C106  H69   S    
C21   O41   S    
C45   C49   A    
C95   H26   S    
C26   O18   S    
C104  H62   S    
C26   C62   A    
O35   H53   S    
O49   H75   S    
C62   O38   S    
C4    C31   S    
C27   C67   A    
C6    C10   A    
C24   C68   A    
O34   H52   S    
C79   C83   A    
C46   C48   A    
C28   O20   S    
C5    C21   A    
C33   C59   A    
O33   H51   S    
C74   C78   A    
C96   H28   S    
C90   H11   S    
O29   H43   S    
C73   C77   A    
C95   H25   S    
N2    Zn2   S    
C36   N4    A    
C60   O58   S    
C69   H3    S    
C11   C63   A    
C75   C79   A    
C99   H39   S    
C105  H67   S    
C81   C85   A    
C9    C15   A    
O18   C90   S    
C32   C72   A    
C107  H81   S    
C32   C88   A    
