data_mof_unit_64973.cif
_audit_creation_date              2013-03-05T16:36:34-0500
_audit_creation_method            fapswitch 2.2
_symmetry_space_group_name_H-M    P1
_symmetry_Int_Tables_number       1
_space_group_crystal_system       triclinic
_cell_length_a                    19.219267
_cell_length_b                    18.486104
_cell_length_c                    10.768943
_cell_angle_alpha                 90.691366
_cell_angle_beta                  89.788015
_cell_angle_gamma                 89.981811
_cell_volume                      3825.78598033

loop_
_atom_site_label
_atom_site_type_symbol
_atom_site_description
_atom_site_fract_x
_atom_site_fract_y
_atom_site_fract_z
_atom_type_partial_charge
O1    O     O_R   0.398180 0.560840 0.499970 -0.579182
O2    O     O_R   0.601820 0.439160 0.500030 -0.596620
O3    O     O_R   0.601820 0.560840 0.500030 -0.593713
O4    O     O_R   0.398180 0.439160 0.499970 -0.579327
C1    C     C_R   0.365781 0.500051 0.498784 0.859916
C2    C     C_R   0.634412 0.499948 0.499533 0.862113
O5    O     O_R   0.499990 0.560810 0.316770 -0.560713
O6    O     O_R   0.500010 0.439190 0.683230 -0.563616
O7    O     O_R   0.500010 0.560810 0.683230 -0.558686
O8    O     O_R   0.499990 0.439190 0.316770 -0.561306
C3    C     C_R   0.498208 0.499494 0.259608 0.930292
C4    C     C_R   0.498070 0.500552 0.740225 0.940716
Zn1   Zn    Zn3+2 0.500000 0.581210 0.500000 1.106574
Zn2   Zn    Zn3+2 0.500000 0.418790 0.500000 1.098208
C5    C     C_R   0.448983 0.628797 0.116823 0.464031
C6    C     C_R   0.441619 0.374481 0.883346 0.441551
C7    C     C_R   0.529407 0.633000 0.899956 0.477058
C8    C     C_R   0.523118 0.365441 0.097332 0.472220
C9    C     C_R   0.465178 0.696165 0.063916 0.127126
C10   C     C_R   0.454959 0.306202 0.934999 0.133822
C11   C     C_R   0.510442 0.698303 0.960276 0.135934
C12   C     C_R   0.499080 0.301395 0.039291 0.153422
C13   C     C_R   0.500568 0.566710 0.942416 -0.167569
C14   C     C_R   0.497496 0.433401 0.056444 -0.163738
C15   C     C_R   0.478860 0.564757 0.064560 -0.162805
C16   C     C_R   0.474670 0.436744 0.935359 -0.160835
C17   C     C_R   0.491145 0.501680 0.872681 -0.075541
C18   C     C_R   0.491726 0.498797 0.126881 -0.078386
C19   C     C_R   0.743255 0.439574 0.436411 -0.135928
C20   C     C_R   0.250912 0.550480 0.551971 -0.157270
C21   C     C_R   0.260188 0.453005 0.399554 -0.148673
C22   C     C_R   0.747992 0.560161 0.527628 -0.129408
H1    H     H_    0.714267 0.392407 0.406362 0.189221
H2    H     H_    0.274518 0.586616 0.619340 0.210777
H3    H     H_    0.291253 0.416191 0.343921 0.217671
H4    H     H_    0.722713 0.606593 0.570179 0.188616
C23   C     C_R   0.814618 0.440648 0.418658 -0.169919
C24   C     C_R   0.179527 0.552730 0.533950 -0.149651
C25   C     C_R   0.188825 0.454532 0.382583 -0.166385
C26   C     C_R   0.819650 0.560754 0.512177 -0.151502
H5    H     H_    0.839451 0.394402 0.374519 0.146542
H6    H     H_    0.148276 0.590612 0.587730 0.156510
H7    H     H_    0.165000 0.417228 0.317054 0.158747
H8    H     H_    0.848759 0.607276 0.545092 0.146458
C27   C     C_R   0.853301 0.501134 0.456846 0.100583
C28   C     C_R   0.148508 0.504339 0.449891 0.085216
C29   C     C_R   0.709626 0.499606 0.489574 -0.033753
C30   C     C_R   0.291146 0.500374 0.485164 -0.065631
C31   C     C_R   0.964472 0.564018 0.410921 -0.167584
C32   C     C_R   0.038352 0.438356 0.467702 -0.160158
C33   C     C_R   0.036658 0.564959 0.409794 -0.168929
C34   C     C_R   0.966350 0.437667 0.470957 -0.166120
H9    H     H_    0.936464 0.612843 0.387755 0.151643
H10   H     H_    0.066752 0.389958 0.492197 0.158069
H11   H     H_    0.063845 0.614471 0.387343 0.154704
H12   H     H_    0.940099 0.388635 0.498926 0.151220
C35   C     C_R   0.073455 0.502310 0.439506 0.092359
C36   C     C_R   0.928979 0.500736 0.444091 0.099588
C37   C     C_R   0.552216 0.725930 0.439148 0.441143
C38   C     C_R   0.449188 0.271345 0.439774 0.451315
C39   C     C_R   0.448300 0.728559 0.558988 0.467911
C40   C     C_R   0.551291 0.274285 0.562777 0.423010
C41   C     C_R   0.553767 0.802078 0.438238 -0.233476
C42   C     C_R   0.450585 0.195186 0.438304 -0.221955
C43   C     C_R   0.449408 0.804767 0.560121 -0.206075
C44   C     C_R   0.553119 0.198122 0.563762 -0.239951
H13   H     H_    0.595268 0.829703 0.389651 0.191423
H14   H     H_    0.410094 0.165421 0.390084 0.201486
H15   H     H_    0.408436 0.834620 0.607451 0.192592
H16   H     H_    0.594075 0.170771 0.613720 0.191449
C45   C     C_R   0.502401 0.842266 0.499713 0.012940
C46   C     C_R   0.502830 0.157664 0.500293 0.003328
N1    N     N_R   0.500000 0.689440 0.500000 -0.190014
N2    N     N_R   0.500000 0.310560 0.500000 -0.196495
C47   C     C_R   0.500536 0.961077 0.387649 -0.123997
C48   C     C_R   0.508246 0.038502 0.612038 -0.127525
C49   C     C_R   0.507051 0.962489 0.611959 -0.136288
C50   C     C_R   0.499812 0.037100 0.387920 -0.138526
H17   H     H_    0.497574 0.931896 0.299957 0.200197
H18   H     H_    0.511209 0.067498 0.699838 0.203975
H19   H     H_    0.509551 0.934399 0.699561 0.199615
H20   H     H_    0.496713 0.065055 0.300271 0.202189
C51   C     C_R   0.503980 0.076764 0.500093 0.125596
C52   C     C_R   0.503535 0.922968 0.499739 0.115569
N3    N     N_R   0.516299 0.232281 0.090790 0.264135
O9    O     O_R   0.579360 0.218601 0.127263 -0.326512
O10   O     O_R   0.467654 0.184855 0.110908 -0.339407
N4    N     N_R   0.538950 0.765846 0.918844 0.265982
O11   O     O_R   0.549881 0.776892 0.801278 -0.353567
O12   O     O_R   0.558758 0.814703 0.999222 -0.322988
N5    N     N_R   0.428687 0.242030 0.874840 0.270414
O13   O     O_R   0.364903 0.239614 0.834938 -0.308503
O14   O     O_R   0.470184 0.188115 0.849915 -0.350193
N6    N     N_R   0.435416 0.761635 0.114561 0.262309
O15   O     O_R   0.425468 0.769206 0.233590 -0.344638
O16   O     O_R   0.414112 0.812331 0.041003 -0.315363
O17   O     O_3   0.401656 0.626861 0.214392 -0.538542
C53   C     C_3   0.341795 0.588154 0.177374 -0.232905
H21   H     H_    0.352340 0.529112 0.171541 0.133971
H22   H     H_    0.320911 0.607922 0.087558 0.160659
H23   H     H_    0.300748 0.596575 0.248781 0.206300
O18   O     O_3   0.397333 0.378469 0.782216 -0.543509
C54   C     C_3   0.338533 0.420516 0.814465 -0.210474
H24   H     H_    0.351914 0.478861 0.822000 0.130820
H25   H     H_    0.313818 0.401720 0.902087 0.162914
H26   H     H_    0.299434 0.414664 0.739505 0.199828
O19   O     O_3   0.581082 0.635031 0.809883 -0.544575
C55   C     C_3   0.641297 0.600503 0.854815 -0.239604
H27   H     H_    0.634123 0.540894 0.857994 0.141961
H28   H     H_    0.656662 0.621990 0.947874 0.177788
H29   H     H_    0.684928 0.611343 0.790105 0.184244
O20   O     O_3   0.574657 0.359992 0.186338 -0.549388
C56   C     C_3   0.636250 0.392054 0.140965 -0.215156
H30   H     H_    0.633389 0.451979 0.148690 0.137684
H31   H     H_    0.648059 0.375200 0.043355 0.177388
H32   H     H_    0.680438 0.373803 0.198350 0.183801
N7    N     N_R   0.606212 0.687823 0.374677 0.223254
O21   O     O_R   0.593748 0.661042 0.264899 -0.405421
O22   O     O_R   0.670494 0.699816 0.406089 -0.403870
N8    N     N_R   0.392064 0.306406 0.381449 0.216467
O23   O     O_R   0.329056 0.287530 0.411476 -0.387878
O24   O     O_R   0.402046 0.340239 0.277937 -0.429298
N9    N     N_R   0.390920 0.693409 0.617372 0.213015
O25   O     O_R   0.400878 0.657326 0.718508 -0.419361
O26   O     O_R   0.328043 0.713918 0.590531 -0.397190
N10   N     N_R   0.603761 0.312786 0.629658 0.227080
O27   O     O_R   0.668330 0.305475 0.595165 -0.400670
O28   O     O_R   0.590616 0.334839 0.742377 -0.408395

loop_
_geom_bond_atom_site_label_1
_geom_bond_atom_site_label_2
_geom_bond_distance
_ccdc_geom_bond_type
O5    Zn1   2.004434 S    
N10   O27   1.300565 A    
O3    C2    1.287980 A    
O17   C53   1.411233 S    
N9    O25   1.298740 A    
N3    O9    1.301089 A    
C15   C18   1.420961 A    
C5    C9    1.410140 A    
C16   C17   1.419517 A    
C32   H10   1.083706 S    
C19   C29   1.399471 A    
O1    C1    1.284868 A    
Zn2   N2    2.000749 S    
C20   C30   1.397449 A    
C9    C11   1.413472 A    
C8    O20   1.385401 S    
C24   H6    1.083478 S    
N7    O22   1.300535 A    
C43   H15   1.083689 S    
C47   C52   1.406307 A    
C5    C15   1.424470 A    
C19   H1    1.081754 S    
C55   H27   1.111498 S    
C20   C24   1.387005 A    
C12   N3    1.437934 S    
O7    Zn1   2.013373 S    
C50   C51   1.408071 A    
C44   C46   1.397741 A    
C21   C25   1.384661 A    
C31   C33   1.387483 A    
C32   C34   1.384195 A    
O19   C55   1.411366 S    
C33   C35   1.397828 A    
C13   C17   1.421719 A    
C37   N1    1.377611 A    
C33   H11   1.083479 S    
O3    Zn1   1.992689 S    
C6    C10   1.409301 A    
C56   H32   1.107112 S    
C22   C26   1.386681 A    
C11   N4    1.438887 S    
C37   N7    1.427445 S    
C8    C12   1.410861 A    
O4    Zn2   1.992693 S    
O2    C2    1.286750 A    
C5    O17   1.387967 S    
C48   C51   1.407690 A    
O20   C56   1.412277 S    
O7    C4    1.278801 A    
N8    O24   1.298413 A    
N3    O10   1.301257 A    
C6    C16   1.424632 A    
C26   C27   1.403176 A    
C1    C30   1.442457 S    
C41   H13   1.083672 S    
C27   C36   1.460441 S    
C2    C29   1.449155 S    
C20   H2    1.081371 S    
C4    C17   1.432015 S    
O18   C54   1.411351 S    
C48   H18   1.082928 S    
C48   C49   1.405380 A    
O8    Zn2   2.013373 S    
N5    O13   1.301104 A    
C40   N10   1.426786 S    
C40   C44   1.408555 A    
N10   O28   1.299702 A    
C25   H7    1.083531 S    
C49   C52   1.406447 A    
C39   N1    1.377517 A    
C43   C45   1.395514 A    
C7    C11   1.411094 A    
C31   C36   1.403653 A    
C45   C52   1.492034 S    
O5    C3    1.283850 A    
N5    O14   1.301126 A    
C50   H20   1.083381 S    
C49   H19   1.083540 S    
O6    C4    1.283686 A    
C54   H25   1.114192 S    
C7    C13   1.424798 A    
N6    O16   1.301352 A    
C9    N6    1.439009 S    
C34   C36   1.402877 A    
C25   C28   1.397443 A    
C6    O18   1.387326 S    
C41   C45   1.395573 A    
C53   H22   1.114210 S    
C21   C30   1.398460 A    
C28   C35   1.447671 S    
C22   C29   1.398725 A    
C8    C14   1.424519 A    
O1    Zn1   1.992927 S    
C10   C12   1.413415 A    
C23   C27   1.401351 A    
C42   H14   1.083694 S    
N8    O23   1.301090 A    
C56   H30   1.111223 S    
O6    Zn2   2.004434 S    
Zn1   N1    2.000749 S    
C32   C35   1.397409 A    
C14   C18   1.423480 A    
N4    O12   1.301408 A    
O4    C1    1.286434 A    
C22   H4    1.082296 S    
C53   H23   1.109259 S    
C37   C41   1.408173 A    
C55   H29   1.108195 S    
C38   C42   1.408017 A    
C39   N9    1.427899 S    
C7    O19   1.386517 S    
N7    O21   1.299269 A    
C14   C16   1.379407 A    
C44   H16   1.083571 S    
C3    C18   1.435111 S    
C31   H9    1.082953 S    
C38   N2    1.376101 A    
C55   H28   1.114420 S    
C38   N8    1.426334 S    
C54   H26   1.109267 S    
C21   H3    1.079733 S    
C42   C46   1.396678 A    
C23   H5    1.082978 S    
N6    O15   1.301157 A    
O2    Zn2   1.992923 S    
C47   C50   1.405401 A    
C24   C28   1.399960 A    
C46   C51   1.495647 S    
N9    O26   1.301006 A    
O8    C3    1.280445 A    
C39   C43   1.408872 A    
C10   N5    1.437431 S    
C26   H8    1.082899 S    
C13   C15   1.379372 A    
N4    O11   1.301177 A    
C53   H21   1.111043 S    
C19   C23   1.384298 A    
C54   H24   1.110970 S    
C40   N2    1.376202 A    
C47   H17   1.083585 S    
C34   H12   1.082868 S    
C56   H31   1.115248 S    
