data_mof_unit_32224.cif
_audit_creation_date              2012-12-11T15:35:21-0500
_audit_creation_method            fapswitch 2.2
_symmetry_space_group_name_H-M    P1
_symmetry_Int_Tables_number       1
_space_group_crystal_system       triclinic
_cell_length_a                    17.564709
_cell_length_b                    24.337255
_cell_length_c                    15.02136
_cell_angle_alpha                 89.764251
_cell_angle_beta                  125.035731
_cell_angle_gamma                 90.332136
_cell_volume                      5257.6183876

loop_
_atom_site_label
_atom_site_type_symbol
_atom_type_description
_atom_site_fract_x
_atom_site_fract_y
_atom_site_fract_z
_atom_type_partial_charge
C1    C     C_R   0.343366 0.149158 0.910616 -0.159942
C2    C     C_R   0.365461 0.844069 0.917294 -0.169802
C3    C     C_R   0.856078 0.653927 0.915985 -0.161708
C4    C     C_R   0.854157 0.346496 0.915784 -0.161119
C5    C     C_R   0.690507 0.120180 0.097168 -0.140123
C6    C     C_R   0.688400 0.876985 0.095268 -0.138468
C7    C     C_R   0.186752 0.626022 0.095042 -0.139348
C8    C     C_R   0.187560 0.376123 0.094837 -0.166411
C9    C     C_R   0.600988 0.873113 0.914146 -0.143113
C10   C     C_R   0.607877 0.120897 0.918157 -0.131081
C11   C     C_R   0.097301 0.369774 0.913525 -0.138439
C12   C     C_R   0.096492 0.633028 0.914450 -0.137280
C13   C     C_R   0.446095 0.999638 0.639867 -0.073908
C14   C     C_R   0.039506 0.500688 0.711859 -0.055385
C15   C     C_R   0.786986 0.003189 0.373221 -0.003244
C16   C     C_R   0.284690 0.498509 0.377741 0.003869
C17   C     C_R   0.694249 0.133125 0.011796 0.053809
C18   C     C_R   0.688122 0.861050 0.007667 0.065999
C19   C     C_R   0.183990 0.644828 0.007065 0.067296
C20   C     C_R   0.184354 0.358818 0.006391 0.084920
C21   C     C_3   0.017232 0.982158 0.658826 -0.451828
C22   C     C_3   0.033047 0.064769 0.576303 -0.453304
C23   C     C_3   0.520665 0.446626 0.644852 -0.481250
C24   C     C_3   0.519462 0.547084 0.641357 -0.450796
C25   C     C_3   0.910944 0.978427 0.568881 -0.000082
C26   C     C_3   0.926358 0.069999 0.500898 -0.057640
C27   C     C_3   0.415737 0.440688 0.548291 0.007471
C28   C     C_3   0.411189 0.542204 0.567743 -0.056727
C29   C     C_3   0.038703 0.972301 0.504697 -0.442341
C30   C     C_3   0.539494 0.493307 0.507441 -0.425296
C31   C     C_3   0.068051 0.004867 0.608498 0.371498
C32   C     C_3   0.565758 0.496720 0.624700 0.393769
C33   C     C_3   0.887190 0.008580 0.461671 0.282606
C34   C     C_3   0.383281 0.496585 0.477389 0.265716
C35   C     C_R   0.451111 0.847871 0.096024 -0.131628
C36   C     C_R   0.438789 0.149857 0.092635 -0.153608
C37   C     C_R   0.942579 0.349831 0.095923 -0.129939
C38   C     C_R   0.944540 0.650589 0.095746 -0.128466
C39   C     C_3   0.939280 0.984191 0.414643 -0.381553
C40   C     C_3   0.439523 0.507967 0.428256 -0.389973
C41   C     C_R   0.333653 0.719035 0.939431 -0.017101
C42   C     C_R   0.327514 0.275590 0.949000 -0.026304
C43   C     C_R   0.835097 0.219151 0.947341 -0.017045
C44   C     C_R   0.828357 0.779786 0.937242 -0.003527
C45   C     C_R   0.786245 0.173283 0.947608 0.000839
C46   C     C_R   0.775504 0.823746 0.935594 0.013398
C47   C     C_R   0.273260 0.679095 0.934505 0.008734
C48   C     C_R   0.280713 0.321006 0.951224 0.008143
C49   C     C_R   0.760903 0.172056 0.020869 0.106574
C50   C     C_R   0.758703 0.825934 0.016602 0.088860
C51   C     C_R   0.256006 0.678481 0.015203 0.101074
C52   C     C_R   0.244953 0.318011 0.013797 0.097852
C53   C     C_R   0.790055 0.213548 0.098263 -0.210599
C54   C     C_R   0.803248 0.789680 0.104650 -0.203515
C55   C     C_R   0.306753 0.712391 0.106018 -0.210777
C56   C     C_R   0.258842 0.272429 0.077867 -0.219191
C57   C     C_R   0.363704 0.752022 0.109715 -0.182910
C58   C     C_R   0.303682 0.227830 0.075136 -0.193901
C59   C     C_R   0.835852 0.258525 0.096985 -0.193593
C60   C     C_R   0.852558 0.746525 0.105110 -0.187480
C61   C     C_R   0.370611 0.759098 0.022008 0.087978
C62   C     C_R   0.334970 0.228590 0.008530 0.087156
C63   C     C_R   0.853901 0.263358 0.018347 0.089063
C64   C     C_R   0.859296 0.738533 0.017967 0.080375
C65   C     C_R   0.523667 0.979406 0.555388 -0.182069
C66   C     C_R   0.366095 0.016597 0.445546 -0.241826
C67   C     C_R   0.112765 0.452582 0.629621 -0.153225
C68   C     C_R   0.106404 0.550426 0.623215 -0.193113
C69   C     C_R   0.525149 0.978454 0.465535 -0.189331
C70   C     C_R   0.368070 0.016359 0.355116 -0.174091
C71   C     C_R   0.112925 0.451579 0.537269 -0.198327
C72   C     C_R   0.108315 0.550501 0.532444 -0.182438
C73   C     C_R   0.447624 0.997111 0.366427 0.151877
C74   C     C_R   0.098352 0.500665 0.480558 0.138374
C75   C     C_R   0.483169 0.045237 0.251547 -0.132755
C76   C     C_R   0.482175 0.953366 0.249176 -0.139088
C77   C     C_R   0.045949 0.545615 0.301542 -0.126202
C78   C     C_R   0.046072 0.454490 0.302163 -0.124486
C79   C     C_R   0.444668 0.998800 0.544870 0.163055
C80   C     C_R   0.088872 0.501281 0.657454 0.141996
C81   C     C_R   0.227535 0.955403 0.729437 0.141191
C82   C     C_R   0.234482 0.047570 0.716690 0.132036
C83   C     C_R   0.729847 0.453013 0.729452 0.144209
C84   C     C_R   0.728724 0.545702 0.725474 0.109135
C85   C     C_R   0.372617 0.178549 0.002970 0.064216
C86   C     C_R   0.398175 0.813696 0.010815 0.051216
C87   C     C_R   0.886320 0.683494 0.009119 0.057332
C88   C     C_R   0.883329 0.317387 0.009153 0.042821
C89   C     C_R   0.455061 0.998722 0.278097 0.030540
C90   C     C_R   0.062375 0.500131 0.365477 0.040898
C91   C     C_R   0.172619 0.003089 0.684408 -0.085374
C92   C     C_R   0.670849 0.498795 0.696721 -0.074008
C93   C     C_R   0.456055 0.045701 0.697353 0.108408
C94   C     C_R   0.454499 0.954339 0.698384 0.122501
C95   C     C_R   0.004860 0.546099 0.734641 0.142399
C96   C     C_R   0.003553 0.454882 0.732997 0.130170
C97   C     C_R   0.746924 0.956259 0.309208 -0.157612
C98   C     C_R   0.738538 0.046117 0.308244 -0.150116
C99   C     C_R   0.242206 0.454203 0.308538 -0.150041
C100  C     C_R   0.246362 0.544402 0.309061 -0.142646
H1    H     H_    0.294677 0.163187 0.828958 0.089084
H2    H     H_    0.335509 0.825909 0.839081 0.120889
H3    H     H_    0.824832 0.673919 0.839683 0.091535
H4    H     H_    0.820773 0.326860 0.838801 0.123726
H5    H     H_    0.029310 0.011391 0.722694 0.140940
H6    H     H_    0.060063 0.090610 0.649776 0.142837
H7    H     H_    0.525995 0.453505 0.721552 0.144680
H8    H     H_    0.544452 0.549440 0.728168 0.140482
H9    H     H_    0.877714 0.004175 0.598825 0.078348
H10   H     H_    0.901575 0.085065 0.549972 0.114029
H11   H     H_    0.377006 0.440154 0.586558 0.082737
H12   H     H_    0.390095 0.526540 0.620404 0.124843
H13   H     H_    0.043045 0.927667 0.516985 0.175484
H14   H     H_    0.083146 0.981219 0.476145 0.144572
H15   H     H_    0.547953 0.451809 0.486480 0.158311
H16   H     H_    0.584484 0.517753 0.492725 0.148990
H17   H     H_    0.908520 0.946104 0.366182 0.149577
H18   H     H_    0.937242 0.013930 0.356965 0.166744
H19   H     H_    0.412167 0.485484 0.351022 0.159972
H20   H     H_    0.434929 0.552271 0.407306 0.159893
H21   H     H_    0.770094 0.214176 0.154278 0.133296
H22   H     H_    0.792550 0.790718 0.168741 0.125080
H23   H     H_    0.296289 0.712194 0.170357 0.123327
H24   H     H_    0.230200 0.270012 0.125322 0.136642
H25   H     H_    0.393220 0.780927 0.176335 0.121596
H26   H     H_    0.310242 0.191620 0.121413 0.131474
H27   H     H_    0.850283 0.291703 0.152678 0.134387
H28   H     H_    0.877098 0.716385 0.169236 0.124047
H29   H     H_    0.583931 0.965676 0.633063 0.117195
H30   H     H_    0.304602 0.030635 0.438786 0.121189
H31   H     H_    0.124873 0.415013 0.673029 0.109528
H32   H     H_    0.111855 0.589079 0.659607 0.117699
H33   H     H_    0.498929 0.836144 0.180388 0.085771
H34   H     H_    0.481331 0.164193 0.175846 0.096707
H35   H     H_    0.986429 0.337623 0.180483 0.091996
H36   H     H_    0.990124 0.662750 0.180132 0.088502
H37   H     H_    0.587210 0.964345 0.473382 0.118994
H38   H     H_    0.308858 0.030910 0.277562 0.121181
H39   H     H_    0.117555 0.412383 0.507097 0.109030
H40   H     H_    0.109469 0.589643 0.499009 0.109334
H41   H     H_    0.479740 0.087324 0.271572 0.099756
H42   H     H_    0.477858 0.910795 0.266710 0.101228
H43   H     H_    0.062795 0.587905 0.327513 0.082589
H44   H     H_    0.062911 0.412333 0.329211 0.082180
H45   H     H_    0.763390 0.914025 0.334568 0.112879
H46   H     H_    0.722482 0.081843 0.336851 0.090526
H47   H     H_    0.241963 0.412445 0.329392 0.112535
H48   H     H_    0.262776 0.586986 0.329187 0.087492
H49   H     H_    0.744926 0.124718 0.182447 0.102747
H50   H     H_    0.744433 0.873717 0.180408 0.093684
H51   H     H_    0.243272 0.629212 0.179926 0.093878
H52   H     H_    0.242873 0.370549 0.179602 0.119283
H53   H     H_    0.578832 0.863348 0.833372 0.111448
H54   H     H_    0.593742 0.124431 0.840276 0.147538
H55   H     H_    0.070269 0.353983 0.834209 0.097846
H56   H     H_    0.068959 0.649528 0.835916 0.117469
H57   H     H_    0.043818 0.943591 0.704720 0.152637
H58   H     H_    0.058077 0.079426 0.528543 0.215738
H59   H     H_    0.555714 0.407319 0.661683 0.159964
H60   H     H_    0.537854 0.586424 0.624224 0.193208
N1    N     N_R   0.392140 0.102630 0.941800 -0.040992
N2    N     N_R   0.392140 0.897370 0.941800 -0.037586
N3    N     N_R   0.892140 0.602630 0.941800 -0.041264
N4    N     N_R   0.892140 0.397370 0.941800 -0.037091
N5    N     N_R   0.450890 0.896450 0.057150 -0.035470
N6    N     N_R   0.450890 0.103550 0.057150 -0.035224
N7    N     N_R   0.950890 0.396450 0.057150 -0.036820
N8    N     N_R   0.950890 0.603550 0.057150 -0.036341
N9    N     N_R   0.525160 0.027960 0.206160 -0.039355
N10   N     N_R   0.525160 0.972040 0.206160 -0.038140
N11   N     N_R   0.025160 0.527960 0.206160 -0.036271
N12   N     N_R   0.025160 0.472040 0.206160 -0.037250
N13   N     N_R   0.317870 0.971120 0.792790 -0.066101
N14   N     N_R   0.317870 0.028880 0.792790 -0.070922
N15   N     N_R   0.817870 0.471120 0.792790 -0.065431
N16   N     N_R   0.817870 0.528880 0.792790 -0.078012
N17   N     N_R   0.473480 0.027920 0.793480 -0.062289
N18   N     N_R   0.473480 0.972080 0.793480 -0.069555
N19   N     N_R   0.973480 0.527920 0.793480 -0.066527
N20   N     N_R   0.973480 0.472080 0.793480 -0.073578
N21   N     N_R   0.681610 0.971120 0.207570 -0.035038
N22   N     N_R   0.681610 0.028880 0.207570 -0.032973
N23   N     N_R   0.181610 0.471120 0.207570 -0.036682
N24   N     N_R   0.181610 0.528880 0.207570 -0.033764
N25   N     N_R   0.605410 0.102620 0.056870 -0.038487
N26   N     N_R   0.605410 0.897380 0.056870 -0.036502
N27   N     N_R   0.105410 0.602620 0.056870 -0.037968
N28   N     N_R   0.105410 0.397380 0.056870 -0.037878
N29   N     N_R   0.549680 0.896430 0.944180 -0.043512
N30   N     N_R   0.549680 0.103570 0.944180 -0.047228
N31   N     N_R   0.049680 0.396430 0.944180 -0.045088
N32   N     N_R   0.049680 0.603570 0.944180 -0.045228
Ni1   Ni    Ni4+2 0.433410 0.064680 0.868830 0.195342
Ni2   Ni    Ni4+2 0.433410 0.935320 0.868830 0.195407
Ni3   Ni    Ni4+2 0.933410 0.564680 0.868830 0.185151
Ni4   Ni    Ni4+2 0.933410 0.435320 0.868830 0.190537
Ni5   Ni    Ni4+2 0.565650 0.934380 0.131170 0.204299
Ni6   Ni    Ni4+2 0.565650 0.065620 0.131170 0.200859
Ni7   Ni    Ni4+2 0.065650 0.434380 0.131170 0.200864
Ni8   Ni    Ni4+2 0.065650 0.565620 0.131170 0.205377
C101  C     C_3   0.867887 0.921005 0.561531 -0.391841
C102  C     C_3   0.906303 0.871528 0.535928 -0.226543
C103  C     C_3   0.846732 0.820380 0.511873 -0.978001
H61   H     H_    0.846491 0.809276 0.583532 0.270369
H62   H     H_    0.774177 0.827479 0.440668 0.261041
H63   H     H_    0.875663 0.785557 0.492822 0.256789
H64   H     H_    0.908268 0.879355 0.464985 0.192651
H65   H     H_    0.977525 0.862164 0.606808 0.193266
H66   H     H_    0.879949 0.912641 0.641614 0.177066
H67   H     H_    0.791147 0.923089 0.503434 0.179852
C104  C     C_3   0.903893 0.118257 0.418559 -0.419874
C105  C     C_3   0.951561 0.173023 0.476719 -0.262438
C106  C     C_3   0.924241 0.219809 0.395772 -0.958546
H68   H     H_    0.942352 0.209322 0.338173 0.271865
H69   H     H_    0.848517 0.227980 0.349945 0.259918
H70   H     H_    0.962527 0.257746 0.440188 0.250752
H71   H     H_    0.931095 0.184200 0.531937 0.196370
H72   H     H_    0.028269 0.169800 0.526465 0.204288
H73   H     H_    0.923854 0.107008 0.362998 0.194057
H74   H     H_    0.830675 0.129656 0.368722 0.191428
C107  C     C_3   0.394810 0.380851 0.501449 -0.389028
C108  C     C_3   0.419811 0.366402 0.421728 -0.217114
C109  C     C_3   0.386074 0.308626 0.375873 -0.980679
H75   H     H_    0.420128 0.277759 0.442417 0.267576
H76   H     H_    0.309496 0.305370 0.332622 0.256654
H77   H     H_    0.403974 0.299341 0.317645 0.261868
H78   H     H_    0.388706 0.395621 0.353156 0.194554
H79   H     H_    0.496040 0.366825 0.464344 0.191931
H80   H     H_    0.433897 0.351800 0.571022 0.183524
H81   H     H_    0.322528 0.368815 0.469525 0.161409
C110  C     C_3   0.364591 0.599364 0.533424 -0.438398
C111  C     C_3   0.393360 0.636036 0.631495 -0.228098
C112  C     C_3   0.335843 0.688482 0.594880 -0.965356
H82   H     H_    0.342184 0.710556 0.534608 0.272718
H83   H     H_    0.261492 0.678643 0.557630 0.260095
H84   H     H_    0.361482 0.715638 0.666056 0.253366
H85   H     H_    0.382972 0.613657 0.688461 0.196310
H86   H     H_    0.467885 0.647715 0.676028 0.196997
H87   H     H_    0.382807 0.620921 0.482617 0.193176
H88   H     H_    0.288230 0.593453 0.488266 0.197757
N33   N     N_3   0.358965 0.716630 0.863973 -0.223927
H89   H     H_    0.303975 0.731926 0.789276 0.102286
H90   H     H_    0.418047 0.740553 0.890966 0.109311
N34   N     N_3   0.367813 0.278340 0.888727 -0.225853
H91   H     H_    0.437217 0.265939 0.939236 0.117037
H92   H     H_    0.331945 0.251627 0.822603 0.095808
N35   N     N_3   0.866246 0.219101 0.877484 -0.225543
H93   H     H_    0.812954 0.234728 0.802068 0.096170
H94   H     H_    0.925249 0.243940 0.909813 0.113547
N36   N     N_3   0.852755 0.779169 0.860890 -0.226310
H95   H     H_    0.912936 0.756130 0.890925 0.111116
H96   H     H_    0.797557 0.761939 0.788203 0.092564
N37   N     N_3   0.761399 0.128583 0.873660 -0.225736
H97   H     H_    0.720636 0.144089 0.794392 0.097738
H98   H     H_    0.822327 0.112604 0.887140 0.116735
N38   N     N_3   0.738043 0.865815 0.853269 -0.228915
H99   H     H_    0.774331 0.902191 0.890781 0.104830
H100  H     H_    0.747971 0.856949 0.792704 0.109992
N39   N     N_3   0.228989 0.639862 0.847970 -0.223282
H101  H     H_    0.191183 0.661743 0.774859 0.088373
H102  H     H_    0.280546 0.617568 0.849746 0.124552
N40   N     N_3   0.267919 0.369470 0.889620 -0.217404
H103  H     H_    0.333518 0.385121 0.917151 0.117992
H104  H     H_    0.235026 0.357773 0.808543 0.096954
C113  C     C_3   0.191403 0.897121 0.711166 -0.461174
C114  C     C_3   0.209173 0.863677 0.639122 -0.237047
C115  C     C_3   0.160637 0.807699 0.611823 -0.981316
H105  H     H_    0.176406 0.786910 0.686447 0.263385
H106  H     H_    0.084124 0.813024 0.555511 0.262161
H107  H     H_    0.183601 0.781177 0.571609 0.261270
H108  H     H_    0.180915 0.885932 0.561663 0.198854
H109  H     H_    0.284490 0.858382 0.679811 0.202981
H110  H     H_    0.212873 0.877640 0.787963 0.194004
H111  H     H_    0.117099 0.895621 0.670639 0.179820
C116  C     C_3   0.225879 0.099412 0.655706 -0.444392
C117  C     C_3   0.209922 0.087769 0.545092 -0.257592
C118  C     C_3   0.167452 0.136784 0.467316 -0.967242
H112  H     H_    0.091563 0.138630 0.428770 0.266748
H113  H     H_    0.199064 0.176231 0.509956 0.263848
H114  H     H_    0.178285 0.131978 0.401844 0.254887
H115  H     H_    0.276521 0.076705 0.558469 0.198591
H116  H     H_    0.164779 0.051930 0.503839 0.188604
H117  H     H_    0.175987 0.128948 0.650652 0.172811
H118  H     H_    0.292790 0.120809 0.704762 0.169640
C119  C     C_3   0.702729 0.395928 0.680888 -0.476563
C120  C     C_3   0.767224 0.372603 0.654121 -0.244597
C121  C     C_3   0.735473 0.315474 0.603195 -0.977772
H119  H     H_    0.717810 0.289262 0.649530 0.262605
H120  H     H_    0.672974 0.318888 0.518138 0.267511
H121  H     H_    0.791840 0.295228 0.603041 0.252075
H122  H     H_    0.767058 0.400449 0.595656 0.209746
H123  H     H_    0.838075 0.370456 0.729119 0.197649
H124  H     H_    0.693933 0.368563 0.733270 0.186941
H125  H     H_    0.635854 0.396137 0.602288 0.190710
C122  C     C_3   0.703502 0.605019 0.688339 -0.441402
C123  C     C_3   0.642695 0.620320 0.566046 -0.287832
C124  C     C_3   0.621707 0.681916 0.552173 -0.951209
H126  H     H_    0.571277 0.691371 0.572138 0.260521
H127  H     H_    0.685485 0.706637 0.606624 0.259203
H128  H     H_    0.590666 0.694187 0.466578 0.256200
H129  H     H_    0.677804 0.609256 0.526616 0.203493
H130  H     H_    0.574457 0.600515 0.518413 0.206110
H131  H     H_    0.677480 0.624842 0.732462 0.195157
H132  H     H_    0.769380 0.623642 0.713430 0.191797
C125  C     C_3   0.458994 0.103475 0.656679 -0.431205
C126  C     C_3   0.427344 0.154062 0.688843 -0.278840
C127  C     C_3   0.474798 0.206894 0.688230 -0.948229
H133  H     H_    0.551190 0.205343 0.749139 0.262154
H134  H     H_    0.459968 0.213599 0.606477 0.263303
H135  H     H_    0.447476 0.242446 0.707769 0.249223
H136  H     H_    0.352723 0.160692 0.627255 0.217576
H137  H     H_    0.437641 0.149258 0.768031 0.206489
H138  H     H_    0.528959 0.109578 0.673819 0.188214
H139  H     H_    0.413728 0.103538 0.566635 0.186973
C128  C     C_3   0.433107 0.895771 0.657037 -0.446950
C129  C     C_3   0.345001 0.889882 0.540632 -0.230124
C130  C     C_3   0.319675 0.829661 0.509404 -0.968133
H140  H     H_    0.374239 0.809321 0.505671 0.265084
H141  H     H_    0.313328 0.807799 0.569572 0.273380
H142  H     H_    0.252382 0.826667 0.428318 0.258682
H143  H     H_    0.286411 0.912144 0.532269 0.182964
H144  H     H_    0.356426 0.907559 0.481207 0.218650
H145  H     H_    0.492317 0.880217 0.656777 0.186391
H146  H     H_    0.425600 0.870214 0.712820 0.182723
C131  C     C_3   0.963789 0.594886 0.657496 -0.469112
C132  C     C_3   0.882922 0.621898 0.650278 -0.246942
C133  C     C_3   0.847288 0.670410 0.571435 -0.954200
H147  H     H_    0.904278 0.700502 0.597966 0.265294
H148  H     H_    0.819767 0.656050 0.487958 0.265961
H149  H     H_    0.791114 0.691662 0.569703 0.267742
H150  H     H_    0.827481 0.590587 0.620879 0.200442
H151  H     H_    0.905252 0.637002 0.731490 0.196168
H152  H     H_    0.016374 0.626720 0.678212 0.181441
H153  H     H_    0.937288 0.580194 0.574337 0.201054
C134  C     C_3   0.962298 0.405436 0.657772 -0.459577
C135  C     C_3   0.892044 0.422703 0.538231 -0.214070
C136  C     C_3   0.852125 0.373054 0.462687 -0.939005
H154  H     H_    0.908750 0.349862 0.467727 0.261555
H155  H     H_    0.814836 0.345495 0.484511 0.273146
H156  H     H_    0.802344 0.387091 0.377545 0.250539
H157  H     H_    0.834775 0.446838 0.529698 0.179005
H158  H     H_    0.925564 0.449587 0.510319 0.210008
H159  H     H_    0.015662 0.378708 0.664468 0.176547
H160  H     H_    0.928201 0.378255 0.682797 0.181311

loop_
_geom_bond_atom_site_label_1
_geom_bond_atom_site_label_2
_ccdc_geom_bond_type
C13   C79   S    
C109  H75   S    
C41   C61   A    
C10   H54   S    
C136  H154  S    
C109  H77   S    
C43   C63   A    
N25   N30   A    
N19   Ni3   S    
C44   C64   A    
C104  H74   S    
C103  H62   S    
N17   Ni1   S    
C120  H122  S    
N28   N31   A    
C35   C86   A    
N36   H96   S    
C5    H49   S    
C94   C128  S    
N12   Ni7   S    
C94   N18   A    
N31   Ni4   S    
C29   H13   S    
N29   Ni2   S    
C82   N14   A    
C75   N9    A    
C121  H120  S    
C132  C133  S    
C38   H36   S    
N20   Ni4   S    
C129  H144  S    
C1    C85   A    
C15   C97   A    
C9    N29   A    
C44   C46   A    
C30   H15   S    
C106  H69   S    
C12   N32   A    
C55   H23   S    
C11   C20   A    
C102  C103  S    
N32   Ni3   S    
C60   H28   S    
N21   N22   A    
C78   C90   A    
C82   C91   A    
C129  C130  S    
C130  H142  S    
N23   N24   A    
C24   C32   S    
C66   C79   A    
N2    N5    A    
N15   N16   A    
C77   N11   A    
C23   H7    S    
C78   N12   A    
C126  C127  S    
C96   N20   A    
C76   N10   A    
N17   N18   A    
C123  C124  S    
C70   H38   S    
C7    C19   A    
C55   C57   A    
C1    H1    S    
C14   C95   A    
C136  H156  S    
C3    H3    S    
C99   H47   S    
C97   H45   S    
C135  C136  S    
N39   H102  S    
N40   H104  S    
C57   C61   A    
C39   H18   S    
C6    N26   A    
C59   C63   A    
C13   C94   A    
C60   C64   A    
C74   C90   S    
C66   C70   A    
C117  H116  S    
C108  H78   S    
C49   C53   A    
C4    H4    S    
C51   C55   A    
N23   Ni7   S    
C134  C135  S    
C48   C52   A    
C40   H19   S    
C105  C106  S    
N13   Ni2   S    
C53   H21   S    
C127  H134  S    
C65   C79   A    
N21   Ni5   S    
C2    N2    A    
C134  H159  S    
C84   C122  S    
C32   C92   S    
N34   H91   S    
C123  H130  S    
C21   C31   S    
N11   Ni8   S    
C7    N27   A    
C8    H52   S    
C25   C101  S    
C114  H108  S    
C57   H25   S    
N37   H97   S    
C115  H107  S    
C2    H2    S    
C59   H27   S    
C130  H141  S    
N33   H89   S    
C135  H158  S    
C75   H41   S    
C16   C34   S    
C43   N35   S    
N24   Ni8   S    
N38   H100  S    
C107  H81   S    
N26   Ni5   S    
C116  H117  S    
C112  H82   S    
C42   C62   A    
C64   C87   S    
C99   N23   A    
C11   H55   S    
C76   C89   A    
C95   C131  S    
C9    H53   S    
C118  H112  S    
C81   C113  S    
C124  H127  S    
N2    Ni2   S    
C131  H153  S    
C12   H56   S    
C101  H66   S    
C27   C107  S    
C17   C49   S    
C133  H148  S    
C29   H14   S    
C93   N17   A    
C16   C100  A    
C41   N33   S    
C110  H88   S    
C81   N13   A    
C77   H43   S    
C107  C108  S    
C78   H44   S    
C128  H146  S    
C26   C33   S    
C37   H35   S    
C41   C47   A    
N1    Ni1   S    
C42   C48   A    
C43   C45   A    
N27   N32   A    
C113  H110  S    
C58   H26   S    
C31   C91   S    
C102  H64   S    
C132  H151  S    
C111  H85   S    
C122  H131  S    
C21   C25   S    
C96   C134  S    
C24   C28   S    
C36   H34   S    
C115  H105  S    
C109  H76   S    
N40   H103  S    
C4    C88   A    
C104  H73   S    
C126  H136  S    
C101  C102  S    
C120  H123  S    
C127  H135  S    
N3    N8    A    
C56   C58   A    
C11   N31   A    
N16   Ni3   S    
C112  H84   S    
C75   C89   A    
C28   C34   S    
C9    C18   A    
C72   H40   S    
C117  C118  S    
C118  H114  S    
N7    Ni7   S    
C84   C92   A    
N10   Ni5   S    
C25   C33   S    
C58   C62   A    
C63   C88   S    
C37   C88   A    
C116  C117  S    
C5    N25   A    
C103  H61   S    
C35   H33   S    
C37   N7    A    
C30   H16   S    
C106  H68   S    
C28   H12   S    
C38   N8    A    
N18   Ni2   S    
C50   C54   A    
C56   H24   S    
C5    C17   A    
C105  H71   S    
C125  H138  S    
N9    N10   A    
C14   C96   A    
C68   H32   S    
N30   Ni1   S    
C47   N39   S    
C119  H125  S    
C69   C73   A    
C24   H8    S    
C83   C119  S    
C3    N3    A    
C1    N1    A    
C128  C129  S    
C46   N38   S    
C136  H155  S    
N35   H94   S    
C103  H63   S    
C77   C90   A    
C127  H133  S    
C72   C74   A    
C122  C123  S    
C47   C51   A    
C22   H58   S    
N36   H95   S    
C39   H17   S    
C13   C93   A    
C98   N22   A    
C119  C120  S    
N5    Ni5   S    
C104  C105  S    
C108  H79   S    
C70   C73   A    
N4    Ni4   S    
C121  H121  S    
C33   C39   S    
C7    H51   S    
C44   N36   S    
C40   H20   S    
C129  H143  S    
C15   C98   A    
N15   Ni4   S    
C18   C50   S    
C106  H70   S    
N8    Ni8   S    
N4    N7    A    
C67   C80   A    
C71   C74   A    
C65   H29   S    
C36   C85   A    
C38   C87   A    
C23   C32   S    
N26   N29   A    
C73   C89   S    
C133  H147  S    
C114  H109  S    
C115  H106  S    
C65   C69   A    
C12   C19   A    
C48   N40   S    
C111  C112  S    
C82   C116  S    
C67   C71   A    
C131  C132  S    
C100  N24   A    
C61   C86   S    
C125  H139  S    
N19   N20   A    
C81   C91   A    
N14   Ni1   S    
C29   C31   S    
C125  C126  S    
C22   C26   S    
C107  H80   S    
C84   N16   A    
C21   H5    S    
C68   C80   A    
N11   N12   A    
C83   N15   A    
C124  H126  S    
C131  H152  S    
N22   Ni6   S    
N6    Ni6   S    
C53   C59   A    
C54   C60   A    
N13   N14   A    
C83   C92   A    
C8    C20   A    
C34   C40   S    
C120  C121  S    
C117  H115  S    
C10   C17   A    
C110  H87   S    
C128  H145  S    
C121  H119  S    
N34   H92   S    
C4    N4    A    
C26   C104  S    
C23   C27   S    
N25   Ni6   S    
C113  C114  S    
C26   H10   S    
N1    N6    A    
C68   C72   A    
N3    Ni3   S    
C54   H22   S    
N27   Ni8   S    
C102  H65   S    
C111  H86   S    
C130  H140  S    
C134  H160  S    
C27   C34   S    
C69   H37   S    
C123  H129  S    
C6    C18   A    
C62   C85   S    
C22   C31   S    
C3    C87   A    
N37   H98   S    
C71   H39   S    
C98   H46   S    
N28   Ni7   S    
C22   H6    S    
C126  H137  S    
C23   H59   S    
N33   H90   S    
C135  H157  S    
N38   H99   S    
C29   C39   S    
C36   N6    A    
C45   C49   A    
C30   C40   S    
C6    H50   S    
C116  H118  S    
C112  H83   S    
C28   C110  S    
C10   N30   A    
C95   N19   A    
C14   C80   S    
C118  H113  S    
C124  H128  S    
N39   H101  S    
C101  H67   S    
C110  C111  S    
C93   C125  S    
C21   H57   S    
C67   H31   S    
C133  H149  S    
N35   H93   S    
C24   H60   S    
C16   C99   A    
C97   N21   A    
C25   H9    S    
C46   C50   A    
C20   C52   S    
C30   C32   S    
C105  H72   S    
C100  H48   S    
C42   N34   S    
C35   N5    A    
C15   C33   S    
C2    C86   A    
C108  C109  S    
C114  C115  S    
C27   H11   S    
C19   C51   S    
C113  H111  S    
C119  H124  S    
C132  H150  S    
N9    Ni6   S    
C8    N28   A    
C52   C56   A    
C45   N37   S    
C122  H132  S    
C66   H30   S    
C76   H42   S    
