data_mof_unit_50413.cif
_audit_creation_date              2013-03-05T16:42:24-0500
_audit_creation_method            fapswitch 2.2
_symmetry_space_group_name_H-M    P1
_symmetry_Int_Tables_number       1
_space_group_crystal_system       triclinic
_cell_length_a                    9.933919
_cell_length_b                    10.720582
_cell_length_c                    15.488826
_cell_angle_alpha                 93.277574
_cell_angle_beta                  68.248514
_cell_angle_gamma                 91.604037
_cell_volume                      1529.52645979

loop_
_atom_site_label
_atom_site_type_symbol
_atom_site_description
_atom_site_fract_x
_atom_site_fract_y
_atom_site_fract_z
_atom_type_partial_charge
O1    O     O_R   0.385310 0.683210 0.499990 -0.596413
O2    O     O_R   0.614650 0.683240 0.500000 -0.621324
C1    C     C_R   0.499828 0.739696 0.503067 0.897782
O3    O     O_R   0.319830 0.499970 0.632240 -0.609784
O4    O     O_R   0.549170 0.500000 0.632250 -0.620022
C2    C     C_R   0.409077 0.492962 0.675429 0.880191
Zn1   Zn    Zn3+2 0.346870 0.499980 0.499990 1.002645
Zn2   Zn    Zn3+2 0.653130 0.500020 0.500010 0.954518
O5    O     O_R   0.385350 0.316760 0.500000 -0.583853
O6    O     O_R   0.614690 0.316790 0.500010 -0.628812
O7    O     O_R   0.450830 0.500000 0.367750 -0.571045
O8    O     O_R   0.680170 0.500030 0.367760 -0.616326
C3    C     C_R   0.497018 0.260157 0.503405 0.882225
C4    C     C_R   0.590936 0.500859 0.324265 0.919734
C5    C     C_R   0.355379 0.460612 0.773587 -0.083495
C6    C     C_R   0.648542 0.500006 0.222788 -0.138311
C7    C     C_R   0.207012 0.341616 0.904944 -0.140830
C8    C     C_R   0.233028 0.381733 0.814997 0.092597
C9    C     C_R   0.448230 0.491838 0.820474 -0.235473
C10   C     C_R   0.433371 0.437737 0.903006 0.090574
C11   C     C_R   0.306291 0.368473 0.948417 0.161213
C12   C     C_R   0.540469 0.454193 0.942591 0.087611
C13   C     C_R   0.505774 0.424573 0.035782 0.087682
C14   C     C_R   0.377190 0.355528 0.080585 -0.206566
C15   C     C_R   0.280717 0.325773 0.036465 -0.165787
C16   C     C_R   0.682850 0.494093 0.890802 -0.231834
C17   C     C_R   0.783199 0.518473 0.932709 -0.170417
C18   C     C_R   0.742330 0.510803 0.028968 0.028739
C19   C     C_R   0.601696 0.463905 0.080680 0.047868
C20   C     C_R   0.837532 0.547990 0.075394 0.299254
C21   C     C_R   0.790515 0.537857 0.172012 -0.263596
C22   C     C_R   0.555885 0.465465 0.177063 -0.245506
H1    H     H_    0.184531 0.271183 0.072138 0.158432
H2    H     H_    0.444428 0.446160 0.218144 0.211603
H3    H     H_    0.861607 0.567422 0.208191 0.200171
H4    H     H_    0.891952 0.544521 0.888796 0.198826
H5    H     H_    0.112426 0.285961 0.941010 0.127912
H6    H     H_    0.534789 0.557904 0.790379 0.155669
H7    H     H_    0.351799 0.318498 0.148247 0.187142
H8    H     H_    0.720941 0.500884 0.816584 0.134072
C23   C     C_R   0.373842 0.932813 0.514472 0.235326
C24   C     C_R   0.493963 0.871711 0.516121 -0.114946
C25   C     C_R   0.603569 0.940603 0.534007 -0.214606
H9    H     H_    0.694705 0.895291 0.541194 0.181339
C26   C     C_R   0.601181 0.070154 0.534820 -0.183739
H10   H     H_    0.691795 0.122397 0.541870 0.185123
C27   C     C_R   0.488118 0.129456 0.518944 -0.125714
C28   C     C_R   0.367721 0.059806 0.519906 0.028584
C29   C     C_3   0.279688 0.060257 0.460236 -0.380274
C30   C     C_3   0.287388 0.918591 0.452988 -0.151169
H11   H     H_    0.168649 0.094879 0.501180 0.226428
H12   H     H_    0.337934 0.104822 0.393771 0.262437
H13   H     H_    0.179632 0.875175 0.489046 0.208517
C31   C     C_R   0.909966 0.599552 0.538330 0.141274
N1    N     N_R   0.856900 0.500860 0.500610 -0.125846
C32   C     C_R   0.949170 0.409524 0.453518 -0.178391
H14   H     H_    0.909880 0.337125 0.417085 0.203118
C33   C     C_R   0.092668 0.407455 0.452243 0.327435
N2    N     N_R   0.142540 0.500820 0.500610 -0.176015
C34   C     C_R   0.051252 0.598852 0.539997 0.036416
C35   C     C_3   0.994440 0.642799 0.640691 0.151659
C36   C     C_3   0.844063 0.649251 0.636026 -0.530220
H15   H     H_    0.001374 0.571536 0.687924 0.089474
H16   H     H_    0.766373 0.581677 0.679860 0.178396
H17   H     H_    0.798904 0.743863 0.639970 0.237247
N3    N     N_R   0.977692 0.602527 0.027476 0.193415
O9    O     O_R   0.990631 0.693433 0.972641 -0.377038
O10   O     O_R   0.084285 0.581727 0.054306 -0.400292
C37   C     C_3   0.362052 0.861686 0.352344 -0.386149
C38   C     C_3   0.522455 0.897596 0.301090 -0.352342
C39   C     C_3   0.574434 0.853228 0.198642 -0.807765
H18   H     H_    0.558746 0.750709 0.191885 0.264119
H19   H     H_    0.513609 0.901132 0.162876 0.269652
H20   H     H_    0.691572 0.875134 0.164074 0.266786
H21   H     H_    0.538928 0.000174 0.305185 0.235202
H22   H     H_    0.591629 0.853000 0.332377 0.214836
H23   H     H_    0.353293 0.758283 0.354114 0.221475
H24   H     H_    0.297950 0.890426 0.311353 0.235434
N4    N     N_R   0.178813 0.303052 0.400386 0.184532
O11   O     O_R   0.314489 0.316899 0.350268 -0.420861
O12   O     O_R   0.113820 0.204194 0.381053 -0.474675
N5    N     N_R   0.056469 0.763453 0.656815 0.229988
O13   O     O_R   0.988036 0.867755 0.664359 -0.432941
O14   O     O_R   0.171456 0.764631 0.678053 -0.376522
C40   C     C_3   0.137078 0.338097 0.761656 -0.410389
C41   C     C_3   0.015477 0.244609 0.809185 -0.385775
C42   C     C_3   0.929974 0.207905 0.747388 -0.772975
H25   H     H_    0.880195 0.291712 0.732713 0.235112
H26   H     H_    0.002175 0.162415 0.680589 0.273380
H27   H     H_    0.842291 0.141112 0.783360 0.270377
H28   H     H_    0.062741 0.158812 0.823199 0.254175
H29   H     H_    0.939202 0.286998 0.875917 0.228372
H30   H     H_    0.086200 0.421546 0.748253 0.214386
H31   H     H_    0.207278 0.293171 0.693982 0.217565

loop_
_geom_bond_atom_site_label_1
_geom_bond_atom_site_label_2
_geom_bond_distance
_ccdc_geom_bond_type
C5    C8    1.424928 A    
N3    O10   1.301390 A    
C42   H25   1.111293 S    
C1    C24   1.417904 S    
C23   C24   1.386324 A    
C37   H23   1.110629 S    
C9    C10   1.390118 A    
N1    C32   1.343141 A    
C31   C34   1.413527 A    
C26   H10   1.083286 S    
C6    C21   1.398085 A    
Zn1   O7    1.922003 S    
C16   C17   1.388858 A    
C13   C19   1.415802 A    
C18   C19   1.422475 A    
C30   C37   1.553053 S    
C19   C22   1.389256 A    
C35   N5    1.465487 S    
C20   C21   1.402544 A    
O7    C4    1.302322 A    
C14   H7    1.079616 S    
C32   H14   1.081389 S    
C35   H15   1.108072 S    
O5    C3    1.298558 A    
C36   H16   1.103615 S    
C2    C5    1.471434 S    
C3    C27   1.430021 S    
C29   H11   1.110944 S    
C13   C14   1.417707 A    
C38   C39   1.526752 S    
N3    O9    1.301678 A    
N2    C34   1.367145 A    
C37   H24   1.112006 S    
C35   C36   1.525755 S    
C40   H30   1.105978 S    
O3    Zn1   1.964766 S    
Zn2   N1    2.027464 S    
Zn1   N2    2.026528 S    
C26   C27   1.410203 A    
C8    C40   1.524617 S    
C30   H13   1.110462 S    
C14   C15   1.389450 A    
O3    C2    1.299306 A    
N4    O12   1.303229 A    
C41   C42   1.527486 S    
C31   C36   1.481668 S    
C33   N2    1.403600 A    
C40   C41   1.537247 S    
C7    C11   1.401081 A    
C34   C35   1.500468 S    
O1    C1    1.288976 A    
C22   H2    1.074098 S    
C5    C9    1.393422 A    
C25   H9    1.083290 S    
C9    H6    1.079304 S    
O4    Zn2   1.922003 S    
C40   H31   1.111888 S    
C27   C28   1.387909 A    
Zn2   O8    1.964763 S    
C29   H12   1.105487 S    
C7    C8    1.410021 A    
C7    H5    1.081028 S    
C25   C26   1.388990 A    
C20   N3    1.438549 S    
C33   N4    1.439303 S    
C28   C29   1.489558 S    
C10   C12   1.414052 A    
C29   C30   1.518452 S    
N5    O14   1.300144 A    
C42   H26   1.111135 S    
C38   H22   1.107833 S    
C21   H3    1.083379 S    
C24   C25   1.401023 A    
C23   C30   1.499996 S    
C38   H21   1.108961 S    
C39   H19   1.110734 S    
Zn1   O5    2.011570 S    
C11   C15   1.393566 A    
C31   N1    1.365660 A    
C36   H17   1.109883 S    
O1    Zn1   1.990584 S    
O2    Zn2   2.011570 S    
O8    C4    1.297477 A    
O6    C3    1.286922 A    
C39   H20   1.110487 S    
C17   H4    1.080716 S    
C6    C22   1.385653 A    
C41   H28   1.111812 S    
C18   C20   1.421463 A    
O2    C1    1.290282 A    
C39   H18   1.110197 S    
C41   H29   1.110892 S    
C16   H8    1.074990 S    
O4    C2    1.303761 A    
C23   C28   1.360890 A    
C32   C33   1.419077 A    
C4    C6    1.459456 S    
C37   C38   1.542885 S    
N4    O11   1.291402 A    
C10   C11   1.410283 A    
Zn2   O6    1.990584 S    
N5    O13   1.301860 A    
C12   C16   1.411172 A    
C42   H27   1.110348 S    
C17   C18   1.399300 A    
C12   C13   1.407353 A    
C15   H1    1.084045 S    
