data_mof_unit_61928.cif
_audit_creation_date              2012-12-10T17:00:43-0500
_audit_creation_method            fapswitch 2.2
_symmetry_space_group_name_H-M    P1
_symmetry_Int_Tables_number       1
_space_group_crystal_system       triclinic
_cell_length_a                    13.112902
_cell_length_b                    13.129456
_cell_length_c                    19.533608
_cell_angle_alpha                 100.340579
_cell_angle_beta                  80.557064
_cell_angle_gamma                 90.653753
_cell_volume                      3262.99316557

loop_
_atom_site_label
_atom_site_type_symbol
_atom_type_description
_atom_site_fract_x
_atom_site_fract_y
_atom_site_fract_z
_atom_type_partial_charge
C1    C     C_R   0.223061 0.537525 0.526308 0.510410
C2    C     C_2   0.506726 0.550715 0.985314 -0.136440
C3    C     C_2   0.507225 0.466307 0.014959 -0.135850
C4    C     C_R   0.775949 0.462367 0.472791 0.506135
C5    C     C_R   0.512711 0.480685 0.233938 0.037483
C6    C     C_2   0.887177 0.447817 0.463295 -0.099474
C7    C     C_2   0.944008 0.521137 0.494299 -0.134538
C8    C     C_2   0.111639 0.560320 0.533770 0.140534
C9    C     C_2   0.055267 0.503027 0.490041 -0.107838
C10   C     C_2   0.544173 0.887786 0.530346 -0.085389
C11   C     C_2   0.507966 0.940390 0.486821 -0.152964
C12   C     C_R   0.503147 0.541611 0.909750 0.040765
C13   C     C_2   0.458947 0.110239 0.466791 -0.107590
C14   C     C_2   0.512050 0.053547 0.499836 -0.153602
C15   C     C_R   0.467237 0.223215 0.478898 0.512339
C16   C     C_R   0.533386 0.776291 0.521243 0.507090
C17   C     C_R   0.510164 0.486448 0.309658 0.502586
C18   C     C_R   0.490167 0.513910 0.690531 0.506311
C19   C     C_R   0.492054 0.523091 0.766157 0.035850
C20   C     C_R   0.547540 0.449319 0.789766 -0.125836
C21   C     C_R   0.553475 0.458715 0.860840 -0.112570
C22   C     C_3   0.067274 0.742220 0.564098 -0.309716
C23   C     C_R   0.449234 0.616560 0.886330 -0.117222
C24   C     C_R   0.443033 0.607055 0.814852 -0.126035
C25   C     C_R   0.565383 0.550320 0.127234 -0.111274
C26   C     C_R   0.566812 0.554039 0.198736 -0.128193
C27   C     C_R   0.459273 0.402178 0.196478 -0.123523
C28   C     C_R   0.459069 0.397670 0.124876 -0.118357
C29   C     C_R   0.510351 0.472667 0.090218 0.040405
H1    H     H_    0.587241 0.384549 0.753263 0.135131
H2    H     H_    0.608960 0.614922 0.226605 0.131489
H3    H     H_    0.417798 0.344122 0.222463 0.131810
H4    H     H_    0.498779 0.390107 0.983997 0.118701
H5    H     H_    0.410837 0.681466 0.923452 0.105476
H6    H     H_    0.608110 0.607295 0.100904 0.108223
H7    H     H_    0.400735 0.665552 0.797701 0.131895
H8    H     H_    0.503142 0.627559 0.017586 0.118485
H9    H     H_    0.598564 0.401664 0.877264 0.107939
H10   H     H_    0.091939 0.647937 0.634080 0.265705
H11   H     H_    0.024281 0.800952 0.606792 0.143592
H12   H     H_    0.417343 0.336629 0.096741 0.104849
H13   H     H_    0.029959 0.737306 0.516516 0.151382
H14   H     H_    0.148380 0.767606 0.551965 0.154788
H15   H     H_    0.091441 0.438612 0.450888 0.129185
H16   H     H_    0.906914 0.592235 0.525071 0.164188
H17   H     H_    0.921234 0.373295 0.436410 0.092501
H18   H     H_    0.558835 0.091053 0.537913 0.160786
H19   H     H_    0.472497 0.899994 0.443252 0.130786
H20   H     H_    0.410480 0.073084 0.429782 0.105408
H21   H     H_    0.573605 0.927843 0.576608 0.090899
N1    N     N_2   0.065035 0.643170 0.586885 -0.523672
O1    O     O_3   0.500000 0.500000 0.500000 -0.436603
O2    O     O_R   0.441420 0.437150 0.344000 -0.548879
O3    O     O_R   0.438960 0.578560 0.667440 -0.548283
O4    O     O_R   0.575450 0.541060 0.341470 -0.545869
O5    O     O_R   0.544160 0.443230 0.647100 -0.546866
O6    O     O_R   0.530110 0.266880 0.518530 -0.541975
O7    O     O_R   0.465470 0.738830 0.563940 -0.539875
O8    O     O_R   0.266890 0.467300 0.476120 -0.556374
O9    O     O_R   0.737530 0.526990 0.441410 -0.534072
O10   O     O_R   0.276880 0.592620 0.567490 -0.542286
O11   O     O_R   0.718700 0.413090 0.514970 -0.534278
O12   O     O_R   0.414920 0.276880 0.447500 -0.539871
O13   O     O_R   0.589510 0.717410 0.470040 -0.533167
Zn1   Zn    Zn3+2 0.571990 0.407410 0.544380 0.935890
Zn2   Zn    Zn3+2 0.407420 0.421690 0.442900 0.930183
Zn3   Zn    Zn3+2 0.598910 0.570150 0.439280 0.937271
Zn4   Zn    Zn3+2 0.421690 0.600750 0.573440 0.932009

loop_
_geom_bond_atom_site_label_1
_geom_bond_atom_site_label_2
_ccdc_geom_bond_type
C22   H13   S    
C10   C16   S    
O4    Zn3   S    
C23   C24   A    
C6    C7    D    
C17   O2    A    
C1    C8    S    
C16   O13   A    
C17   O4    A    
H10   N1    S    
C22   H14   S    
C2    H8    S    
C18   O5    A    
O1    Zn4   S    
C23   H5    S    
C22   H11   S    
C4    O9    A    
C19   C20   A    
C1    O8    A    
C2    C3    D    
C25   C26   A    
O12   Zn2   S    
C2    C12   S    
C26   H2    S    
C20   H1    S    
C13   C14   D    
O2    Zn2   S    
C15   O6    A    
O10   Zn4   S    
C15   O12   A    
C11   H19   S    
C24   H7    S    
O1    Zn3   S    
C25   H6    S    
C13   H20   S    
C7    H16   S    
O7    Zn4   S    
C28   C29   A    
C19   C24   A    
C7    C9    S    
C13   C15   S    
O8    Zn2   S    
C25   C29   A    
C11   C14   S    
C4    C6    S    
C5    C17   S    
C10   C11   D    
C3    H4    S    
O5    Zn1   S    
C10   H21   S    
O13   Zn3   S    
C4    O11   A    
C28   H12   S    
C27   C28   A    
O1    Zn1   S    
O1    Zn2   S    
C20   C21   A    
O3    Zn4   S    
C18   C19   S    
C8    N1    S    
C12   C23   A    
C3    C29   S    
C18   O3    A    
C8    C9    D    
C9    H15   S    
C16   O7    A    
C6    H17   S    
O11   Zn1   S    
C27   H3    S    
C5    C27   A    
C14   H18   S    
C12   C21   A    
C21   H9    S    
C5    C26   A    
O9    Zn3   S    
O6    Zn1   S    
C22   N1    S    
C1    O10   A    
