data_mof_unit_33728.cif
_audit_creation_date              2012-12-11T14:21:21-0500
_audit_creation_method            fapswitch 2.2
_symmetry_space_group_name_H-M    P1
_symmetry_Int_Tables_number       1
_space_group_crystal_system       triclinic
_cell_length_a                    11.599207
_cell_length_b                    11.515003
_cell_length_c                    19.518779
_cell_angle_alpha                 90.018598
_cell_angle_beta                  90.460949
_cell_angle_gamma                 60.383892
_cell_volume                      2266.33855322

loop_
_atom_site_label
_atom_site_type_symbol
_atom_type_description
_atom_site_fract_x
_atom_site_fract_y
_atom_site_fract_z
_atom_type_partial_charge
C1    C     C_R   0.640669 0.116635 0.599198 0.566346
C2    C     C_1   0.654260 0.148318 0.668537 0.014051
C3    C     C_R   0.672436 0.679295 0.189717 0.035900
C4    C     C_R   0.612624 0.745468 0.598434 0.547668
C5    C     C_R   0.543100 0.756978 0.212978 -0.045817
C6    C     C_R   0.518455 0.745260 0.282229 -0.064983
C7    C     C_R   0.756668 0.649127 0.305632 -0.180648
C8    C     C_R   0.781712 0.628894 0.236641 -0.041097
C9    C     C_R   0.437004 0.825724 0.166040 0.398998
C10   C     C_R   0.311439 0.850630 0.182686 -0.126537
C11   C     C_R   0.288943 0.817253 0.247290 -0.116036
C12   C     C_1   0.641683 0.703106 0.667881 0.013618
C13   C     C_R   0.387598 0.770279 0.297886 0.379888
C14   C     C_R   0.628268 0.703993 0.329486 -0.003135
C15   C     C_R   0.160159 0.184201 0.186840 -0.037324
C16   C     C_R   0.241422 0.144616 0.598205 0.560848
C17   C     C_R   0.253506 0.221768 0.206114 -0.036947
C18   C     C_R   0.283256 0.220202 0.276430 -0.119048
C19   C     C_R   0.159143 0.104830 0.301012 0.360035
C20   C     C_R   0.111316 0.129235 0.234651 -0.167124
C21   C     C_R   0.303791 0.277628 0.158241 0.463443
C22   C     C_R   0.342719 0.367224 0.180510 0.430194
C23   C     C_1   0.126008 0.199841 0.859322 0.017823
C24   C     C_R   0.348434 0.386992 0.250059 -0.101062
C25   C     C_R   0.332804 0.305129 0.297443 -0.151561
C26   C     C_R   0.248943 0.145383 0.322609 0.021314
C27   C     C_R   0.693595 0.190824 0.202049 0.005531
C28   C     C_R   0.650922 0.117017 0.406079 0.592326
C29   C     C_R   0.774553 0.063618 0.233276 -0.050154
C30   C     C_R   0.794956 0.058716 0.304330 0.020052
C31   C     C_R   0.627657 0.288769 0.316581 -0.061977
C32   C     C_R   0.632847 0.303524 0.245169 -0.197463
C33   C     C_R   0.845383 0.943168 0.196385 -0.128396
C34   C     C_1   0.171947 0.169377 0.727740 -0.023920
C35   C     C_R   0.949145 0.830700 0.227451 -0.155147
C36   C     C_R   0.979839 0.832273 0.296583 0.017532
C37   C     C_R   0.909307 0.949788 0.333289 0.430591
C38   C     C_R   0.696001 0.160061 0.344719 0.067821
C39   C     C_R   0.081097 0.231764 0.928529 0.580214
C40   C     C_R   0.609530 0.746706 0.400216 0.559121
C41   C     C_R   0.683570 0.604941 0.929697 0.560380
C42   C     C_R   0.708225 0.207015 0.930194 0.558786
C43   C     C_R   0.085775 0.233558 0.123798 0.608819
C44   C     C_R   0.686299 0.610998 0.125254 0.595871
C45   C     C_1   0.149881 0.182662 0.799022 -0.023224
C46   C     C_R   0.712353 0.211916 0.129123 0.567667
C47   C     C_R   0.297567 0.118652 0.393557 0.556371
C48   C     C_1   0.669558 0.647438 0.860290 0.014916
C49   C     C_1   0.654947 0.683338 0.728448 -0.025809
C50   C     C_1   0.662935 0.667265 0.799751 -0.025976
C51   C     C_2   0.563155 0.408798 0.360202 0.237578
C52   C     C_2   0.082102 0.711268 0.331749 0.267552
C53   C     C_2   0.923577 0.546210 0.218935 0.267781
C54   C     C_1   0.196034 0.159401 0.667397 0.011695
C55   C     C_1   0.677742 0.192187 0.860771 0.018041
C56   C     C_1   0.659389 0.166438 0.728919 -0.024839
C57   C     C_1   0.665383 0.181241 0.800249 -0.023230
Cr1   Cr    Cr6+3 0.404720 0.198220 0.499960 1.073797
Cr2   Cr    Cr6+3 0.698290 0.897110 0.500380 1.078034
Cr3   Cr    Cr6+3 0.396970 0.904720 0.499610 1.160392
Cr4   Cr    Cr6+3 0.926180 0.151990 0.028120 1.048668
Cr5   Cr    Cr6+3 0.921330 0.451820 0.027470 1.134449
Cr6   Cr    Cr6+3 0.626260 0.446870 0.028710 1.144575
F1    F     F_    0.369669 0.438943 0.134752 -0.592055
F2    F     F_    0.952391 0.958783 0.397141 -0.565178
F3    F     F_    0.457889 0.858112 0.102154 -0.598238
F4    F     F_    0.354450 0.733845 0.357226 -0.601931
F5    F     F_    0.109796 0.049938 0.345224 -0.562762
F6    F     F_    0.307196 0.252505 0.090037 -0.566703
H1    H     H_    0.838835 0.617903 0.341587 0.155138
H2    H     H_    0.512052 0.505803 0.336229 0.159552
H3    H     H_    0.123532 0.718511 0.380547 0.215119
H4    H     H_    0.989232 0.464235 0.252387 0.128348
H5    H     H_    0.368694 0.464198 0.267278 0.154691
H6    H     H_    0.348617 0.321125 0.349900 0.207190
H7    H     H_    0.823256 0.934593 0.143334 0.184061
H8    H     H_    0.587977 0.403087 0.223217 0.145415
H9    H     H_    0.011154 0.745507 0.196474 0.223677
H10   H     H_    0.231874 0.893505 0.145124 0.160628
H11   H     H_    0.191957 0.833428 0.259000 0.172770
H12   H     H_    0.034086 0.106204 0.220841 0.150131
O1    O     O_R   0.267740 0.231960 0.575440 -0.497567
O2    O     O_R   0.596130 0.579390 0.952730 -0.481064
O3    O     O_R   0.639060 0.321160 0.958670 -0.476732
O4    O     O_R   0.527280 0.186640 0.570530 -0.482508
O5    O     O_R   0.821240 0.124200 0.104370 -0.538705
O6    O     O_R   0.036890 0.167040 0.097840 -0.520628
O7    O     O_R   0.056180 0.349610 0.102880 -0.417453
O8    O     O_R   0.797660 0.564870 0.097950 -0.468700
O9    O     O_R   0.595880 0.584250 0.104270 -0.468485
O10   O     O_R   0.638830 0.325670 0.099150 -0.435253
O11   O     O_3   0.824590 0.350230 0.028100 -0.311401
O12   O     O_R   0.685970 0.784660 0.430010 -0.518306
O13   O     O_R   0.728090 0.003450 0.576380 -0.484581
O14   O     O_R   0.682970 0.789190 0.570490 -0.496333
O15   O     O_R   0.499290 0.771880 0.575530 -0.491545
O16   O     O_R   0.285330 0.030870 0.569730 -0.483046
O17   O     O_R   0.270980 0.227080 0.423890 -0.518622
O18   O     O_R   0.530280 0.182120 0.430050 -0.510653
O19   O     O_R   0.731330 0.998570 0.424830 -0.463994
O20   O     O_2   0.570699 0.401376 0.422621 -0.450561
O21   O     O_2   0.117176 0.601195 0.307962 -0.548656
O22   O     O_2   0.970839 0.573454 0.170203 -0.466287
O23   O     O_R   0.502530 0.767000 0.423990 -0.416262
O24   O     O_R   0.288330 0.026350 0.429250 -0.384668
O25   O     O_3   0.499990 0.000020 0.499980 -0.325394
O26   O     O_R   0.821500 0.119340 0.952830 -0.503763
O27   O     O_R   0.037130 0.162530 0.957360 -0.491195
O28   O     O_R   0.056440 0.344740 0.951340 -0.474188
O29   O     O_R   0.797900 0.560360 0.957470 -0.500534

loop_
_geom_bond_atom_site_label_1
_geom_bond_atom_site_label_2
_ccdc_geom_bond_type
C23   C45   T    
C27   C29   A    
C19   C20   A    
C18   C26   A    
C40   O12   A    
Cr5   O11   S    
C7    H1    S    
C12   C49   T    
Cr3   O25   S    
C7    C8    A    
C52   O21   D    
C47   O17   A    
Cr2   O14   S    
C43   O7    A    
C36   C37   A    
Cr1   O1    S    
C5    C6    A    
C16   O16   A    
C6    C14   A    
C41   O2    A    
Cr5   O8    S    
C29   C33   A    
C56   C57   S    
C30   C38   A    
C1    C2    S    
Cr4   O27   S    
C19   C26   A    
C9    F3    S    
Cr4   O6    S    
C32   H8    S    
C4    O15   A    
C7    C14   A    
C35   C36   A    
C1    O13   A    
C47   O24   A    
C37   F2    S    
Cr6   O11   S    
Cr2   O13   S    
C4    C12   S    
C9    C10   A    
C36   C52   S    
Cr4   O11   S    
C28   O19   A    
C48   C50   T    
C10   C11   A    
C21   C22   A    
Cr2   O19   S    
C15   C20   A    
C18   C25   A    
C51   H2    S    
C1    O4    A    
C39   O27   A    
C3    C44   S    
Cr2   O25   S    
C42   O3    A    
C24   C25   A    
C3    C8    A    
C11   H11   S    
C46   O10   A    
Cr5   O7    S    
C17   C21   A    
C30   C37   A    
Cr6   O2    S    
Cr1   O25   S    
C5    C9    A    
C29   C30   A    
C52   H3    S    
C42   C55   S    
C40   O23   A    
C4    O14   A    
C33   H7    S    
C31   C32   A    
Cr5   O29   S    
C28   C38   S    
C16   O1    A    
C17   C18   A    
Cr3   O23   S    
C19   F5    S    
C34   C45   S    
C26   C47   S    
Cr3   O15   S    
C28   O18   A    
C34   C54   T    
C41   O29   A    
C55   C57   T    
C42   O26   A    
C22   C24   A    
Cr6   O10   S    
Cr1   O4    S    
C44   O9    A    
C27   C46   S    
C13   F4    S    
C15   C17   A    
C27   C32   A    
C53   H4    S    
Cr1   O18   S    
C31   C51   S    
C3    C5    A    
C8    C53   S    
C10   H10   S    
Cr1   O17   S    
C51   O20   D    
C35   H9    S    
C31   C38   A    
Cr6   O3    S    
C43   O6    A    
C15   C43   S    
C2    C56   T    
C6    C13   A    
C11   C13   A    
C24   H5    S    
Cr5   O28   S    
C53   O22   D    
C23   C39   S    
Cr6   O9    S    
C33   C35   A    
C41   C48   S    
Cr4   O26   S    
C16   C54   S    
Cr4   O5    S    
C44   O8    A    
C14   C40   S    
C39   O28   A    
C49   C50   S    
C21   F6    S    
Cr2   O12   S    
C22   F1    S    
C25   H6    S    
C20   H12   S    
Cr3   O16   S    
Cr3   O24   S    
C46   O5    A    
