data_mof_unit_30739.cif
_audit_creation_date              2012-10-26T19:43:55-0400
_audit_creation_method            fapswitch 2.2
_symmetry_space_group_name_H-M    P1
_symmetry_Int_Tables_number       1
_space_group_crystal_system       triclinic
_cell_length_a                    12.381802
_cell_length_b                    13.202202
_cell_length_c                    13.840357
_cell_angle_alpha                 106.406893
_cell_angle_beta                  73.654781
_cell_angle_gamma                 117.275366
_cell_volume                      1898.11367966

loop_
_atom_site_label
_atom_site_type_symbol
_atom_type_description
_atom_site_fract_x
_atom_site_fract_y
_atom_site_fract_z
_atom_type_partial_charge
C1    C     C_R   0.144468 0.713467 0.506891 0.534188
C2    C     C_R   0.563525 0.020452 0.457027 0.007215
C3    C     C_R   0.608858 0.939027 0.389784 0.057674
C4    C     C_R   0.982384 0.502135 0.686250 0.558321
C5    C     C_R   0.524297 0.827744 0.352434 0.123595
C6    C     C_R   0.398273 0.797354 0.386087 -0.090107
C7    C     C_R   0.648692 0.129682 0.495019 -0.130171
C8    C     C_R   0.819707 0.084103 0.394081 -0.130929
C9    C     C_R   0.226298 0.836845 0.506725 -0.034132
C10   C     C_R   0.606786 0.610608 0.697376 0.056572
C11   C     C_R   0.255908 0.360336 0.355263 0.022535
C12   C     C_1   0.968872 0.499677 0.791405 -0.013349
C13   C     C_R   0.347370 0.318964 0.325897 -0.106578
C14   C     C_R   0.439234 0.358084 0.384493 0.150390
C15   C     C_R   0.441769 0.445705 0.473208 -0.017245
C16   C     C_R   0.856100 0.285991 0.484413 0.544357
C17   C     C_R   0.340640 0.480681 0.504530 0.173820
C18   C     C_R   0.539389 0.500910 0.533227 -0.040353
C19   C     C_R   0.514991 0.556113 0.635518 0.019045
C20   C     C_R   0.403635 0.566160 0.671479 -0.105609
C21   C     C_R   0.335209 0.555831 0.601853 0.167976
C22   C     C_R   0.661674 0.508724 0.495848 0.027661
C23   C     C_R   0.737477 0.972552 0.359338 -0.127142
C24   C     C_R   0.723685 0.614229 0.655436 0.086248
C25   C     C_R   0.016090 0.495716 0.313496 0.535670
C26   C     C_1   0.026819 0.494630 0.207979 -0.020268
C27   C     C_2   0.043244 0.494856 0.014218 -0.111352
C28   C     C_2   0.950096 0.495627 0.984623 -0.117857
C29   C     C_1   0.958980 0.497687 0.879714 -0.040294
C30   C     C_1   0.035193 0.494403 0.119389 -0.045527
C31   C     C_3   0.591055 0.291229 0.264273 -0.300966
C32   C     C_3   0.270854 0.709278 0.716455 -0.287079
C33   C     C_3   0.572343 0.740827 0.176686 -0.283846
C34   C     C_R   0.775047 0.163358 0.460821 0.002931
C35   C     C_R   0.179820 0.919931 0.561434 -0.107712
C36   C     C_R   0.257956 0.036998 0.574452 0.092598
C37   C     C_R   0.384354 0.071838 0.539976 -0.084880
C38   C     C_R   0.434601 0.989931 0.486374 0.003524
C39   C     C_R   0.352502 0.873461 0.459710 -0.023393
Cu1   Cu    Cu3+1 0.899780 0.525060 0.522890 0.938060
Cu2   Cu    Cu3+1 0.100220 0.474940 0.477110 0.973127
H1    H     H_    0.867273 0.495325 0.038977 0.132433
H2    H     H_    0.776019 0.914946 0.306068 0.116731
H3    H     H_    0.619011 0.191111 0.551808 0.126101
H4    H     H_    0.082987 0.894178 0.595283 0.158124
H5    H     H_    0.439959 0.163763 0.553373 0.125714
H6    H     H_    0.543925 0.291049 0.423382 0.253353
H7    H     H_    0.645866 0.242434 0.259794 0.151487
H8    H     H_    0.655462 0.380728 0.252131 0.136095
H9    H     H_    0.535620 0.247334 0.202232 0.157042
H10   H     H_    0.368587 0.708959 0.568459 0.255861
H11   H     H_    0.218816 0.756976 0.711991 0.148303
H12   H     H_    0.336798 0.713230 0.351917 0.167330
H13   H     H_    0.355213 0.772875 0.748198 0.140549
H14   H     H_    0.211833 0.646517 0.768635 0.149516
H15   H     H_    0.635323 0.735900 0.299566 0.248675
H16   H     H_    0.595341 0.667713 0.129209 0.164458
H17   H     H_    0.646271 0.823149 0.154188 0.158709
H18   H     H_    0.483090 0.728474 0.161734 0.175626
H19   H     H_    0.793870 0.653760 0.702748 0.156134
H20   H     H_    0.386048 0.609180 0.749037 0.155699
H21   H     H_    0.689402 0.472779 0.418120 0.143258
H22   H     H_    0.184400 0.325511 0.309784 0.131794
H23   H     H_    0.341978 0.250623 0.259652 0.114783
H24   H     H_    0.126177 0.495432 0.959872 0.151638
H25   H     H_    0.917779 0.109539 0.365785 0.132218
I1    I     I_    0.580746 0.692067 0.853563 -0.477551
I2    I     I_    0.186295 0.162214 0.650312 -0.385705
N1    N     N_R   0.748810 0.563010 0.557590 -0.255583
N2    N     N_R   0.250540 0.437620 0.443020 -0.226120
N3    N     N_2   0.511395 0.293004 0.363448 -0.522076
N4    N     N_2   0.304374 0.650542 0.614622 -0.446893
N5    N     N_2   0.562628 0.742552 0.283634 -0.537543
O1    O     O_R   0.025040 0.682470 0.528790 -0.498799
O2    O     O_R   0.194310 0.640150 0.490130 -0.486583
O3    O     O_R   0.903380 0.524130 0.659910 -0.504550
O4    O     O_R   0.072660 0.481800 0.621240 -0.449026
O5    O     O_R   0.805690 0.359850 0.509870 -0.506277
O6    O     O_R   0.974960 0.317530 0.471210 -0.495438
O7    O     O_R   0.927340 0.518200 0.378760 -0.503075
O8    O     O_R   0.096620 0.475870 0.340090 -0.513131

loop_
_geom_bond_atom_site_label_1
_geom_bond_atom_site_label_2
_ccdc_geom_bond_type
C15   C18   A    
C8    H25   S    
C33   H17   S    
C12   C29   T    
C25   O7    A    
C14   N3    S    
C3    C23   A    
C35   C36   A    
C11   N2    A    
C32   N4    S    
C10   I1    S    
C1    O1    A    
C36   C37   A    
C11   H22   S    
Cu2   O4    S    
C38   C39   A    
Cu2   O2    S    
C9    C39   A    
C8    C23   A    
C23   H2    S    
C18   C19   A    
C20   H20   S    
C32   H11   S    
C2    C7    A    
C16   C34   S    
C19   C20   A    
Cu1   O7    S    
C4    C12   S    
C22   N1    A    
C31   N3    S    
C17   N2    A    
C33   H18   S    
C13   C14   A    
C27   C30   S    
C25   O8    A    
C31   H8    S    
C32   H13   S    
C24   N1    A    
Cu1   N1    S    
C21   N4    S    
C1    O2    A    
C1    C9    S    
C10   C24   A    
C25   C26   S    
C17   C21   A    
Cu1   O3    S    
C37   C38   A    
C27   H24   S    
C22   H21   S    
C2    C38   A    
C14   C15   A    
C10   C19   A    
C24   H19   S    
Cu2   O8    S    
C8    C34   A    
C7    H3    S    
H6    N3    S    
C33   N5    S    
Cu1   Cu2   S    
C26   C30   T    
C31   H7    S    
C7    C34   A    
Cu1   O5    S    
H10   N4    S    
C31   H9    S    
C35   H4    S    
C15   C17   A    
C28   C29   S    
C33   H16   S    
H15   N5    S    
C32   H14   S    
C18   C22   A    
C3    C5    A    
Cu2   O6    S    
C36   I2    S    
C16   O6    A    
C2    C3    A    
C4    O4    A    
C11   C13   A    
C5    C6    A    
C13   H23   S    
C28   H1    S    
Cu1   O1    S    
C16   O5    A    
C5    N5    S    
C4    O3    A    
C20   C21   A    
C27   C28   D    
C9    C35   A    
C6    C39   A    
C6    H12   S    
C37   H5    S    
Cu2   N2    S    
