data_mof_unit_45949.cif
_audit_creation_date              2012-12-10T17:24:08-0500
_audit_creation_method            fapswitch 2.2
_symmetry_space_group_name_H-M    P1
_symmetry_Int_Tables_number       1
_space_group_crystal_system       triclinic
_cell_length_a                    10.223704
_cell_length_b                    10.83207
_cell_length_c                    16.898518
_cell_angle_alpha                 91.576473
_cell_angle_beta                  74.610216
_cell_angle_gamma                 95.268899
_cell_volume                      1796.67050511

loop_
_atom_site_label
_atom_site_type_symbol
_atom_type_description
_atom_site_fract_x
_atom_site_fract_y
_atom_site_fract_z
_atom_type_partial_charge
C1    C     C_R   0.556976 0.732375 0.492739 1.052923
C2    C     C_R   0.519909 0.494609 0.345543 0.916298
C3    C     C_R   0.455584 0.488320 0.742247 -0.123079
C4    C     C_R   0.534877 0.476619 0.258524 -0.117670
C5    C     C_R   0.520856 0.575131 0.786649 0.000120
C6    C     C_R   0.516919 0.574946 0.209984 0.002526
C7    C     C_R   0.501082 0.555876 0.870158 -0.199125
C8    C     C_R   0.522756 0.551596 0.127885 -0.199282
C9    C     C_R   0.418393 0.453404 0.909034 0.070743
C10   C     C_R   0.546374 0.433899 0.094266 0.070394
C11   C     C_R   0.348092 0.372194 0.866666 -0.075300
C12   C     C_R   0.443689 0.267510 0.503528 0.880467
C13   C     C_R   0.572266 0.339473 0.140337 -0.074253
C14   C     C_R   0.366407 0.387356 0.782723 -0.059268
C15   C     C_R   0.565980 0.358645 0.223077 -0.053723
C16   C     C_2   0.415667 0.425802 0.993205 -0.068592
C17   C     C_2   0.534266 0.408009 0.011487 -0.067278
C18   C     C_2   0.609996 0.686702 0.749770 0.438086
C19   C     C_2   0.492561 0.703038 0.240993 0.423423
C20   C     C_2   0.585869 0.252693 0.271780 0.421448
C21   C     C_2   0.297086 0.293282 0.738075 0.437875
C22   C     C_2   0.660006 0.375091 0.949568 0.412449
C23   C     C_2   0.590450 0.863926 0.482019 -0.289408
C24   C     C_2   0.282362 0.430961 0.055733 0.409488
C25   C     C_2   0.107271 0.647828 0.589869 0.547050
C26   C     C_2   0.896286 0.362063 0.403429 0.541838
C27   C     C_2   0.412942 0.135550 0.498995 -0.346682
C28   C     C_2   0.491620 0.933437 0.477865 -0.089469
C29   C     C_2   0.516782 0.065262 0.475427 -0.126091
C30   C     C_2   0.925897 0.510582 0.505401 -0.052343
C31   C     C_2   0.071532 0.485024 0.498445 -0.046644
C32   C     C_R   0.478957 0.501078 0.654532 0.919354
H1    H     H_    0.670660 0.739269 0.785128 0.087025
H2    H     H_    0.552840 0.619046 0.905240 0.117200
H3    H     H_    0.622293 0.104466 0.458944 0.181413
H4    H     H_    0.388435 0.893873 0.481448 0.182359
H5    H     H_    0.307695 0.095889 0.515507 0.163291
H6    H     H_    0.693314 0.903983 0.478563 0.148960
H7    H     H_    0.113560 0.408066 0.461102 0.190160
H8    H     H_    0.880902 0.582579 0.546529 0.206718
H9    H     H_    0.170154 0.734637 0.587120 0.056393
H10   H     H_    0.831596 0.279671 0.396412 0.049854
H11   H     H_    0.460297 0.768052 0.203712 0.082993
H12   H     H_    0.571613 0.260380 0.337242 0.062875
H13   H     H_    0.320304 0.293333 0.671886 0.069556
H14   H     H_    0.757261 0.388159 0.964547 0.073128
H15   H     H_    0.199396 0.470533 0.039313 0.067747
H16   H     H_    0.284874 0.293474 0.898650 0.177255
H17   H     H_    0.590789 0.249314 0.112250 0.176199
H18   H     H_    0.505968 0.624462 0.089830 0.116649
N1    N     N_2   0.846390 0.448330 0.467170 -0.179332
N2    N     N_2   0.153610 0.551670 0.532830 -0.174000
O1    O     O_R   0.430310 0.692580 0.506610 -0.635557
O2    O     O_2   0.511515 0.739222 0.306399 -0.573399
O3    O     O_2   0.618429 0.154147 0.238984 -0.549456
O4    O     O_2   0.212791 0.213246 0.775094 -0.548951
O5    O     O_2   0.656102 0.329153 0.883337 -0.522864
O6    O     O_2   0.261973 0.387438 0.124281 -0.507006
O7    O     O_2   0.004661 0.630341 0.646500 -0.591333
O8    O     O_2   0.004553 0.384476 0.351899 -0.568012
O9    O     O_R   0.569690 0.307420 0.493390 -0.650183
O10   O     O_R   0.652740 0.659410 0.485540 -0.596501
O11   O     O_R   0.347260 0.340590 0.514460 -0.625579
O12   O     O_R   0.375640 0.518570 0.627580 -0.631709
O13   O     O_R   0.624360 0.481430 0.372420 -0.638659
O14   O     O_R   0.598070 0.485390 0.606510 -0.579255
O15   O     O_R   0.401930 0.514610 0.393490 -0.579058
O16   O     O_2   0.614882 0.723580 0.681367 -0.581201
Zn1   Zn    Zn3+2 0.351480 0.522150 0.514070 0.983870
Zn2   Zn    Zn3+2 0.648520 0.477850 0.485930 0.982134

loop_
_geom_bond_atom_site_label_1
_geom_bond_atom_site_label_2
_ccdc_geom_bond_type
O9    Zn2   S    
C21   O4    D    
C2    C4    S    
C30   N1    D    
C10   C13   A    
C7    C9    A    
C12   O9    A    
N1    Zn2   S    
C27   C29   D    
C23   H6    S    
C5    C7    A    
C29   H3    S    
C17   C22   S    
C31   N2    D    
C3    C5    A    
C2    O13   A    
O1    Zn1   S    
C1    O10   A    
C22   O5    D    
C25   N2    S    
C30   H8    S    
C3    C32   S    
C16   C24   S    
O14   Zn2   S    
C26   N1    S    
C6    C19   S    
C9    C11   A    
C32   O12   A    
C11   H16   S    
C15   C20   S    
C3    C14   A    
C26   O8    D    
C27   H5    S    
C20   O3    D    
C13   H17   S    
C19   O2    D    
C4    C6    A    
C28   C29   S    
C22   H14   S    
C9    C16   S    
C31   H7    S    
C1    C23   S    
C21   H13   S    
C13   C15   A    
C4    C15   A    
C30   C31   S    
C11   C14   A    
C18   H1    S    
C10   C17   S    
C14   C21   S    
O13   Zn2   S    
C24   O6    D    
C8    H18   S    
C28   H4    S    
C7    H2    S    
O10   Zn2   S    
C32   O14   A    
C2    O15   A    
C25   H9    S    
C26   H10   S    
C12   O11   A    
C1    O1    A    
C12   C27   S    
C6    C8    A    
C5    C18   S    
C25   O7    D    
C20   H12   S    
C23   C28   D    
C24   H15   S    
C18   O16   D    
O12   Zn1   S    
C8    C10   A    
O11   Zn1   S    
C19   H11   S    
C16   C17   D    
O15   Zn1   S    
N2    Zn1   S    
