data_mof_unit_32670.cif
_audit_creation_date              2012-12-10T16:43:26-0500
_audit_creation_method            fapswitch 2.2
_symmetry_space_group_name_H-M    P1
_symmetry_Int_Tables_number       1
_space_group_crystal_system       triclinic
_cell_length_a                    12.21735
_cell_length_b                    12.223947
_cell_length_c                    23.213964
_cell_angle_alpha                 89.848797
_cell_angle_beta                  89.873446
_cell_angle_gamma                 90.073923
_cell_volume                      3466.84834429

loop_
_atom_site_label
_atom_site_type_symbol
_atom_type_description
_atom_site_fract_x
_atom_site_fract_y
_atom_site_fract_z
_atom_type_partial_charge
C1    C     C_3   0.001679 0.997123 0.250255 0.111062
C2    C     C_3   0.999726 0.000565 0.750080 0.109454
C3    C     C_R   0.002137 0.094692 0.207813 0.015799
C4    C     C_R   0.999231 0.904006 0.792679 -0.004656
C5    C     C_R   0.901917 0.000156 0.708757 -0.000519
C6    C     C_R   0.100110 0.997955 0.291517 0.004005
C7    C     C_R   0.002184 0.897426 0.210445 -0.011760
C8    C     C_R   0.000142 0.100182 0.790438 -0.013949
C9    C     C_R   0.097831 0.999013 0.708930 0.005874
C10   C     C_R   0.902909 0.997481 0.291880 -0.013697
C11   C     C_R   0.999807 0.652395 0.922350 0.832276
C12   C     C_R   0.999944 0.348543 0.078405 0.839809
C13   C     C_R   0.348868 0.999920 0.421818 0.849842
C14   C     C_R   0.650982 0.000024 0.578536 0.802792
C15   C     C_R   0.000243 0.348505 0.921826 0.827798
C16   C     C_R   0.000045 0.650457 0.078710 0.818018
C17   C     C_R   0.652346 0.000632 0.422326 0.833738
C18   C     C_R   0.350186 0.999825 0.579240 0.824184
C19   C     C_R   0.094037 0.162517 0.199627 -0.311288
C20   C     C_R   0.903861 0.843523 0.804767 -0.314884
C21   C     C_R   0.848253 0.097177 0.693471 -0.285094
C22   C     C_R   0.164828 0.904623 0.301621 -0.324102
C23   C     C_R   0.907430 0.835876 0.200056 -0.270622
C24   C     C_R   0.096412 0.158391 0.803469 -0.302123
C25   C     C_R   0.154857 0.902492 0.696236 -0.302173
C26   C     C_R   0.833308 0.088357 0.297970 -0.304846
C27   C     C_R   0.091577 0.886953 0.827684 -0.246341
C28   C     C_R   0.912516 0.108476 0.170772 -0.273610
C29   C     C_R   0.892637 0.911220 0.331994 -0.237277
C30   C     C_R   0.122148 0.093413 0.677118 -0.257314
C31   C     C_R   0.905848 0.121816 0.823046 -0.246452
C32   C     C_R   0.095420 0.876949 0.176616 -0.248004
C33   C     C_R   0.115328 0.089455 0.326955 -0.266906
C34   C     C_R   0.875706 0.904513 0.678466 -0.254187
C35   C     C_R   0.092983 0.250540 0.159989 0.416183
C36   C     C_R   0.903402 0.760657 0.846186 0.387041
C37   C     C_R   0.768599 0.099292 0.650189 0.398957
C38   C     C_R   0.247959 0.904402 0.343086 0.412699
C39   C     C_R   0.904185 0.758710 0.155810 0.397937
C40   C     C_R   0.097626 0.239031 0.845982 0.389542
C41   C     C_R   0.242883 0.901809 0.656722 0.418563
C42   C     C_R   0.754994 0.093409 0.342121 0.410553
C43   C     C_R   0.090180 0.810753 0.872367 0.391770
C44   C     C_R   0.908940 0.193282 0.130517 0.346648
C45   C     C_R   0.817518 0.915821 0.377147 0.397477
C46   C     C_R   0.209388 0.096542 0.638855 0.369640
C47   C     C_R   0.906166 0.198608 0.867122 0.400589
C48   C     C_R   0.098557 0.789931 0.138341 0.375724
C49   C     C_R   0.194693 0.090288 0.369761 0.364088
C50   C     C_R   0.788230 0.901890 0.640232 0.370816
C51   C     C_R   0.000403 0.262976 0.123760 -0.195727
C52   C     C_R   0.998439 0.741218 0.879305 -0.234388
C53   C     C_R   0.736065 0.000309 0.623834 -0.230427
C54   C     C_R   0.263752 0.998942 0.377045 -0.212520
C55   C     C_R   0.000865 0.733175 0.124995 -0.241357
C56   C     C_R   0.001104 0.261861 0.877537 -0.237236
C57   C     C_R   0.266637 0.999334 0.625638 -0.222619
C58   C     C_R   0.741830 0.002897 0.379582 -0.235905
Cu1   Cu    Cu3+1 0.889520 0.500000 0.000000 0.962440
Cu2   Cu    Cu3+1 0.110480 0.500000 0.000000 0.968134
Cu3   Cu    Cu3+1 0.500000 0.889520 0.500000 0.995847
Cu4   Cu    Cu3+1 0.500000 0.110480 0.500000 0.969404
H1    H     H_    0.166860 0.144926 0.223585 0.162327
H2    H     H_    0.827969 0.860359 0.782834 0.155615
H3    H     H_    0.871726 0.173252 0.713186 0.169023
H4    H     H_    0.149523 0.830729 0.278183 0.150860
H5    H     H_    0.832388 0.853032 0.222859 0.168938
H6    H     H_    0.172759 0.140394 0.781976 0.158597
H7    H     H_    0.128475 0.827800 0.716544 0.158200
H8    H     H_    0.839824 0.157716 0.269455 0.152206
H9    H     H_    0.163992 0.937043 0.821956 0.158738
H10   H     H_    0.844077 0.052276 0.173299 0.160065
H11   H     H_    0.947864 0.842095 0.330044 0.166806
H12   H     H_    0.073687 0.166534 0.682945 0.157540
H13   H     H_    0.832098 0.074364 0.816115 0.166027
H14   H     H_    0.168232 0.926660 0.181711 0.169469
H15   H     H_    0.063229 0.160517 0.322007 0.158063
H16   H     H_    0.920886 0.829840 0.686312 0.163961
O1    O     O_R   0.907020 0.615090 0.941240 -0.567650
O2    O     O_R   0.092980 0.384910 0.058760 -0.555557
O3    O     O_R   0.384910 0.907020 0.441240 -0.559164
O4    O     O_R   0.615090 0.092980 0.558760 -0.560430
O5    O     O_R   0.092980 0.384910 0.941240 -0.564308
O6    O     O_R   0.907020 0.615090 0.058760 -0.564032
O7    O     O_R   0.615090 0.092980 0.441240 -0.575338
O8    O     O_R   0.384910 0.907020 0.558760 -0.550741
O9    O     O_R   0.907020 0.384910 0.058760 -0.569837
O10   O     O_R   0.092980 0.615090 0.941240 -0.557310
O11   O     O_R   0.384910 0.092980 0.558760 -0.566252
O12   O     O_R   0.615090 0.907020 0.441240 -0.550711
O13   O     O_R   0.092980 0.615090 0.058760 -0.576439
O14   O     O_R   0.907020 0.384910 0.941240 -0.556957
O15   O     O_R   0.615090 0.907020 0.558760 -0.571478
O16   O     O_R   0.384910 0.092980 0.441240 -0.544758
O17   O     O_3   0.178514 0.326430 0.153665 -0.599942
C59   C     C_3   0.260620 0.325510 0.196616 0.069471
H17   H     H_    0.326975 0.380723 0.181357 0.168811
H18   H     H_    0.300808 0.244462 0.200653 0.133246
C60   C     C_3   0.219234 0.371589 0.254286 -0.406886
H19   H     H_    0.195788 0.458716 0.248410 0.206512
H20   H     H_    0.145692 0.326827 0.269575 0.224302
C61   C     C_3   0.307374 0.363370 0.300558 -0.847205
H21   H     H_    0.330145 0.276454 0.307746 0.283246
H22   H     H_    0.275826 0.397338 0.341633 0.265290
H23   H     H_    0.381403 0.410150 0.287531 0.240645
O18   O     O_3   0.811451 0.694907 0.852134 -0.582547
C62   C     C_3   0.727493 0.754983 0.879614 0.076738
H24   H     H_    0.689146 0.812993 0.848663 0.122940
H25   H     H_    0.759781 0.801278 0.917096 0.144837
C63   C     C_3   0.639656 0.676262 0.901846 -0.308173
H26   H     H_    0.599772 0.634786 0.864894 0.214930
H27   H     H_    0.678152 0.612744 0.929489 0.237174
C64   C     C_3   0.553053 0.736554 0.937082 -0.947995
H28   H     H_    0.590443 0.772675 0.976268 0.252327
H29   H     H_    0.487971 0.678329 0.950568 0.265170
H30   H     H_    0.515344 0.802897 0.911094 0.259748
O19   O     O_3   0.718342 0.197343 0.635591 -0.588286
C65   C     C_3   0.796553 0.275110 0.616329 0.066173
H31   H     H_    0.768678 0.308152 0.574226 0.153294
H32   H     H_    0.879211 0.239673 0.608053 0.135807
C66   C     C_3   0.803653 0.369714 0.659320 -0.341110
H33   H     H_    0.733189 0.425185 0.652096 0.214793
H34   H     H_    0.797263 0.339175 0.704259 0.232574
C67   C     C_3   0.911140 0.432587 0.652909 -0.944625
H35   H     H_    0.981818 0.376514 0.658475 0.255886
H36   H     H_    0.916810 0.496540 0.686620 0.263399
H37   H     H_    0.915612 0.472073 0.609822 0.261076
O20   O     O_3   0.321730 0.817764 0.347960 -0.589544
C68   C     C_3   0.271809 0.712828 0.349651 0.086676
H38   H     H_    0.338301 0.652830 0.357720 0.177987
H39   H     H_    0.236729 0.689477 0.307428 0.122375
C69   C     C_3   0.186685 0.700935 0.398131 -0.382126
H40   H     H_    0.220709 0.733368 0.439048 0.244470
H41   H     H_    0.112502 0.748354 0.386681 0.203362
C70   C     C_3   0.153257 0.581760 0.406878 -0.931395
H42   H     H_    0.119810 0.547399 0.366288 0.258258
H43   H     H_    0.089191 0.576443 0.440785 0.262406
H44   H     H_    0.224885 0.532569 0.420796 0.253426
O21   O     O_3   0.804451 0.712263 0.141479 -0.585017
C71   C     C_3   0.739821 0.790885 0.111971 0.065522
H45   H     H_    0.717014 0.756721 0.069340 0.162823
H46   H     H_    0.783114 0.869710 0.103481 0.141374
C72   C     C_3   0.635235 0.815117 0.145830 -0.350524
H47   H     H_    0.580678 0.742687 0.143662 0.228859
H48   H     H_    0.654761 0.830665 0.191746 0.227335
C73   C     C_3   0.576457 0.915384 0.121444 -0.945006
H49   H     H_    0.631633 0.987648 0.121773 0.258229
H50   H     H_    0.504201 0.935392 0.148417 0.259527
H51   H     H_    0.549096 0.899449 0.076637 0.259775
O22   O     O_3   0.192258 0.299426 0.854236 -0.583708
C74   C     C_3   0.267832 0.235718 0.885826 0.068242
H52   H     H_    0.296471 0.164748 0.859887 0.120625
H53   H     H_    0.230123 0.205498 0.926615 0.149056
C75   C     C_3   0.366804 0.306360 0.901192 -0.297055
H54   H     H_    0.406742 0.336066 0.861012 0.214371
H55   H     H_    0.339176 0.378551 0.926341 0.229330
C76   C     C_3   0.450013 0.242174 0.936764 -0.935581
H56   H     H_    0.412224 0.213164 0.977629 0.257609
H57   H     H_    0.520630 0.295707 0.947361 0.262290
H58   H     H_    0.480467 0.170665 0.912051 0.260512
O23   O     O_3   0.305921 0.808685 0.645403 -0.593898
C77   C     C_3   0.311449 0.730725 0.690666 0.073749
H59   H     H_    0.363173 0.662414 0.674861 0.162317
H60   H     H_    0.230702 0.692450 0.699455 0.134100
C78   C     C_3   0.366627 0.775862 0.745284 -0.406859
H61   H     H_    0.452777 0.797909 0.735260 0.208715
H62   H     H_    0.325026 0.850741 0.760864 0.221170
C79   C     C_3   0.364266 0.691571 0.793862 -0.871718
H63   H     H_    0.278372 0.670566 0.805225 0.278083
H64   H     H_    0.404658 0.725961 0.832520 0.271333
H65   H     H_    0.408248 0.616128 0.780896 0.251688
O24   O     O_3   0.684230 0.182110 0.345529 -0.589846
C80   C     C_3   0.741936 0.280758 0.356786 0.070381
H66   H     H_    0.693546 0.348960 0.338049 0.162910
H67   H     H_    0.824216 0.285570 0.336288 0.113913
C81   C     C_3   0.752971 0.300126 0.421718 -0.332238
H68   H     H_    0.670260 0.303089 0.441655 0.239999
H69   H     H_    0.799702 0.231839 0.441590 0.200881
C82   C     C_3   0.812106 0.407674 0.434019 -0.944670
H70   H     H_    0.896945 0.405067 0.416719 0.261730
H71   H     H_    0.815921 0.421253 0.481242 0.252789
H72   H     H_    0.767585 0.477281 0.414098 0.272944
O25   O     O_3   0.180877 0.804447 0.907932 -0.603878
C83   C     C_3   0.157235 0.853179 0.961968 0.139599
H73   H     H_    0.214511 0.817333 0.993936 0.208678
H74   H     H_    0.073068 0.834740 0.978006 0.105780
C84   C     C_3   0.175175 0.977332 0.960167 -0.432175
H75   H     H_    0.258475 0.995270 0.943243 0.223962
H76   H     H_    0.114106 0.015730 0.931049 0.206052
C85   C     C_3   0.163290 0.027309 0.020138 -0.875429
H77   H     H_    0.081241 0.008829 0.038377 0.256079
H78   H     H_    0.172980 0.117494 0.017545 0.247360
H79   H     H_    0.226947 0.994236 0.049487 0.274637
O26   O     O_3   0.819999 0.201359 0.093860 -0.617966
C86   C     C_3   0.727718 0.237858 0.125229 0.076445
H80   H     H_    0.745640 0.317306 0.146798 0.154010
H81   H     H_    0.702747 0.176518 0.158283 0.135583
C87   C     C_3   0.632124 0.254271 0.083732 -0.324001
H82   H     H_    0.654859 0.316473 0.050776 0.223144
H83   H     H_    0.614185 0.175939 0.061409 0.213662
C88   C     C_3   0.529294 0.292031 0.115367 -0.941589
H84   H     H_    0.503684 0.229820 0.147684 0.256152
H85   H     H_    0.461692 0.303415 0.084026 0.263054
H86   H     H_    0.544553 0.371120 0.137429 0.253310
O27   O     O_3   0.819550 0.833571 0.418397 -0.594703
C89   C     C_3   0.860604 0.874878 0.471302 0.119016
H87   H     H_    0.823225 0.826009 0.506605 0.214633
H88   H     H_    0.838106 0.961742 0.479772 0.085403
C90   C     C_3   0.985025 0.862082 0.474562 -0.415553
H89   H     H_    0.005864 0.774091 0.470506 0.238109
H90   H     H_    0.024265 0.908230 0.438715 0.205208
C91   C     C_3   0.029886 0.904443 0.531675 -0.892779
H91   H     H_    0.007729 0.991754 0.537869 0.243344
H92   H     H_    0.120476 0.897273 0.531707 0.254779
H93   H     H_    0.996714 0.855461 0.568099 0.278321
O28   O     O_3   0.235778 0.195402 0.613187 -0.604087
C92   C     C_3   0.304407 0.256732 0.650329 0.106719
H94   H     H_    0.371868 0.291433 0.623777 0.172488
H95   H     H_    0.344436 0.207091 0.684917 0.118600
C93   C     C_3   0.240554 0.351587 0.677214 -0.373120
H96   H     H_    0.206034 0.403909 0.642505 0.221802
H97   H     H_    0.172006 0.319630 0.703743 0.225154
C94   C     C_3   0.313679 0.420951 0.715809 -0.899425
H98   H     H_    0.347213 0.370515 0.751504 0.271616
H99   H     H_    0.264738 0.488436 0.734672 0.262341
H100  H     H_    0.382343 0.456539 0.690512 0.236978
O29   O     O_3   0.811514 0.209961 0.899340 -0.603549
C95   C     C_3   0.823345 0.154659 0.952658 0.145540
H101  H     H_    0.754541 0.181063 0.980572 0.193467
H102  H     H_    0.900062 0.177774 0.975478 0.137926
C96   C     C_3   0.817737 0.029964 0.945894 -0.427390
H103  H     H_    0.743623 0.007357 0.920909 0.219600
H104  H     H_    0.891339 0.999907 0.922645 0.211395
C97   C     C_3   0.813735 0.974563 0.004573 -0.921630
H105  H     H_    0.882692 0.002488 0.031930 0.272396
H106  H     H_    0.820482 0.884704 0.999427 0.232180
H107  H     H_    0.735160 0.994102 0.026304 0.267383
O30   O     O_3   0.196966 0.766072 0.111683 -0.614709
C98   C     C_3   0.251268 0.682237 0.142871 0.112835
H108  H     H_    0.292788 0.628615 0.111028 0.178099
H109  H     H_    0.195182 0.628071 0.168286 0.123586
C99   C     C_3   0.338234 0.731372 0.182249 -0.392368
H110  H     H_    0.392386 0.784429 0.156112 0.240463
H111  H     H_    0.299020 0.782488 0.215763 0.224935
C100  C     C_3   0.406312 0.642572 0.211383 -0.934555
H112  H     H_    0.353123 0.589178 0.238129 0.251467
H113  H     H_    0.468548 0.681061 0.239649 0.275960
H114  H     H_    0.448853 0.591821 0.178648 0.250020
O31   O     O_3   0.206303 0.182732 0.403294 -0.590664
C101  C     C_3   0.125824 0.180434 0.446979 0.056204
H115  H     H_    0.138486 0.108379 0.475731 0.146388
H116  H     H_    0.041816 0.177079 0.428310 0.129259
C102  C     C_3   0.135755 0.284422 0.482713 -0.269283
H117  H     H_    0.218016 0.287637 0.503008 0.253000
H118  H     H_    0.126615 0.356824 0.454130 0.210345
C103  C     C_3   0.048151 0.288667 0.529412 -0.929490
H119  H     H_    0.965620 0.292069 0.509718 0.243735
H120  H     H_    0.060495 0.362784 0.556092 0.262714
H121  H     H_    0.052883 0.215186 0.557451 0.278361
O32   O     O_3   0.755895 0.802011 0.618339 -0.608344
C104  C     C_3   0.674874 0.755881 0.654948 0.104572
H122  H     H_    0.611589 0.717699 0.627146 0.177596
H123  H     H_    0.631038 0.816728 0.682488 0.109870
C105  C     C_3   0.725769 0.666918 0.692510 -0.378915
H124  H     H_    0.766358 0.607419 0.663850 0.237554
H125  H     H_    0.788503 0.702601 0.721301 0.234018
C106  C     C_3   0.640133 0.608692 0.729316 -0.906706
H126  H     H_    0.602608 0.667525 0.759789 0.263456
H127  H     H_    0.679728 0.542389 0.754521 0.277080
H128  H     H_    0.575479 0.572269 0.701769 0.241115

loop_
_geom_bond_atom_site_label_1
_geom_bond_atom_site_label_2
_ccdc_geom_bond_type
C72   C73   S    
C59   C60   S    
C100  H113  S    
C85   H77   S    
C41   O23   S    
C70   H44   S    
C61   H21   S    
C32   C48   A    
C88   H84   S    
C73   H51   S    
O17   C59   S    
C89   C90   S    
C71   C72   S    
O20   C68   S    
C42   C58   A    
C93   H97   S    
O23   C77   S    
Cu2   O10   S    
C94   H100  S    
C9    C25   A    
C70   H42   S    
O27   C89   S    
Cu3   O12   S    
C92   C93   S    
C68   H39   S    
C84   C85   S    
O31   C101  S    
C78   H61   S    
C17   O7    A    
C3    C28   A    
C71   H46   S    
C13   C54   S    
C69   C70   S    
C102  H117  S    
C30   H12   S    
C106  H128  S    
C89   H88   S    
C43   C52   A    
Cu2   O13   S    
C29   H11   S    
O18   C62   S    
C97   H107  S    
C33   C49   A    
C49   C54   A    
C22   C38   A    
Cu4   O11   S    
C13   O3    A    
C16   O6    A    
C90   C91   S    
C83   H73   S    
C61   H23   S    
C72   H48   S    
C74   C75   S    
C23   H5    S    
C19   C35   A    
C65   H31   S    
C95   H101  S    
C66   C67   S    
C11   C52   S    
C85   H79   S    
C24   C40   A    
C15   O14   A    
C63   H26   S    
C81   C82   S    
C39   C55   A    
C98   H108  S    
C19   H1    S    
C105  H124  S    
C40   C56   A    
C59   H18   S    
C99   H111  S    
C62   H24   S    
C3    C19   A    
C87   H82   S    
C96   C97   S    
C14   O15   A    
C75   H55   S    
C36   C52   A    
C17   C58   S    
C82   H72   S    
C37   C53   A    
C10   C26   A    
C101  C102  S    
C81   H69   S    
O26   C86   S    
Cu4   O4    S    
C48   C55   A    
Cu1   Cu2   S    
C76   H57   S    
C101  H115  S    
C31   C47   A    
C100  H112  S    
C103  H119  S    
C76   H56   S    
C88   H85   S    
C28   H10   S    
C97   H106  S    
C95   H102  S    
C93   H96   S    
C99   H110  S    
C73   H50   S    
C80   H67   S    
C63   H27   S    
Cu4   O7    S    
C39   O21   S    
C45   C58   A    
C34   C50   A    
C99   C100  S    
C84   H76   S    
C73   H49   S    
C36   O18   S    
Cu2   O5    S    
C50   C53   A    
C82   H71   S    
O28   C92   S    
C94   H98   S    
C98   H109  S    
Cu1   O1    S    
C104  H123  S    
C89   H87   S    
C69   H40   S    
C102  H118  S    
C15   O5    A    
C86   H80   S    
C18   O11   A    
C92   H94   S    
C80   H66   S    
C28   C44   A    
C1    C6    S    
C103  H120  S    
C1    C3    S    
C65   C66   S    
C20   C36   A    
C20   H2    S    
C2    C4    S    
O25   C83   S    
C5    C34   A    
C104  C105  S    
C77   C78   S    
C18   C57   S    
C31   H13   S    
O29   C95   S    
C38   C54   A    
C91   H93   S    
C11   O10   A    
O21   C71   S    
C43   O25   S    
C59   H17   S    
C14   C53   S    
C87   C88   S    
C90   H89   S    
C75   H54   S    
C40   O22   S    
C96   H104  S    
C18   O8    A    
C47   O29   S    
C71   H45   S    
C61   H22   S    
C38   O20   S    
C63   C64   S    
Cu1   O9    S    
C66   H33   S    
C11   O1    A    
C9    C30   A    
C75   C76   S    
C67   H37   S    
C44   C51   A    
C69   H41   S    
C79   H63   S    
C60   H20   S    
C91   H92   S    
C78   C79   S    
C46   O28   S    
Cu4   O16   S    
C46   C57   A    
C35   C51   A    
C26   H8    S    
C88   H86   S    
C4    C27   A    
C2    C5    S    
C25   H7    S    
C97   H105  S    
C14   O4    A    
C25   C41   A    
C105  H125  S    
C95   C96   S    
C12   C51   S    
C27   H9    S    
O24   C80   S    
C26   C42   A    
C67   H36   S    
C64   H28   S    
C80   C81   S    
C70   H43   S    
O30   C98   S    
Cu2   O2    S    
C45   O27   S    
C7    C32   A    
C12   O9    A    
C21   H3    S    
C1    C7    S    
C8    C31   A    
C85   H78   S    
C30   C46   A    
C2    C8    S    
C1    C10   S    
C42   O24   S    
O32   C104  S    
C21   C37   A    
C32   H14   S    
C102  C103  S    
C48   O30   S    
C106  H126  S    
C94   H99   S    
C64   H30   S    
C22   H4    S    
C35   O17   S    
C76   H58   S    
C77   H59   S    
C44   O26   S    
Cu1   O6    S    
C92   H95   S    
C6    C33   A    
C13   O16   A    
C62   C63   S    
C83   C84   S    
C15   C56   S    
C68   C69   S    
C81   H68   S    
C68   H38   S    
C16   C55   S    
C49   O31   S    
C84   H75   S    
C77   H60   S    
Cu3   O3    S    
C60   H19   S    
C34   H16   S    
C17   O12   A    
C106  H127  S    
C10   C29   A    
C33   H15   S    
C62   H25   S    
C50   O32   S    
C105  C106  S    
C7    C23   A    
C12   O2    A    
C79   H64   S    
C8    C24   A    
C83   H74   S    
C98   C99   S    
Cu3   O15   S    
Cu1   O14   S    
C74   H53   S    
Cu3   Cu4   S    
C65   H32   S    
C66   H34   S    
Cu3   O8    S    
C24   H6    S    
C41   C57   A    
C82   H70   S    
C4    C20   A    
C86   C87   S    
C27   C43   A    
C60   C61   S    
C37   O19   S    
C103  H121  S    
C16   O13   A    
C78   H62   S    
C5    C21   A    
C100  H114  S    
C29   C45   A    
C96   H103  S    
C104  H122  S    
C90   H90   S    
O22   C74   S    
C47   C56   A    
C87   H83   S    
C79   H65   S    
C86   H81   S    
O19   C65   S    
C2    C9    S    
C101  H116  S    
C74   H52   S    
C23   C39   A    
C93   C94   S    
C72   H47   S    
C91   H91   S    
C67   H35   S    
C64   H29   S    
C6    C22   A    
