data_mof_unit_60499.cif
_audit_creation_date              2012-12-10T18:37:09-0500
_audit_creation_method            fapswitch 2.2
_symmetry_space_group_name_H-M    P1
_symmetry_Int_Tables_number       1
_space_group_crystal_system       triclinic
_cell_length_a                    25.541656
_cell_length_b                    25.525232
_cell_length_c                    25.592281
_cell_angle_alpha                 119.958766
_cell_angle_beta                  89.951851
_cell_angle_gamma                 119.891266
_cell_volume                      11829.7217396

loop_
_atom_site_label
_atom_site_type_symbol
_atom_type_description
_atom_site_fract_x
_atom_site_fract_y
_atom_site_fract_z
_atom_type_partial_charge
C1    C     C_R   0.599561 0.699325 0.599599 0.502732
C2    C     C_1   0.827103 0.500048 0.827560 -0.049752
C3    C     C_3   0.380278 0.539550 0.799627 -0.360299
C4    C     C_3   0.303820 0.543498 0.880856 -0.386466
C5    C     C_3   0.226231 0.410030 0.801134 -0.269825
C6    C     C_3   0.193308 0.449375 0.620580 -0.353817
C7    C     C_3   0.200248 0.357852 0.622188 -0.358191
C8    C     C_3   0.212429 0.602483 0.785074 -0.244810
C9    C     C_3   0.365433 0.073836 0.355032 -0.360628
C10   C     C_3   0.294095 0.042112 0.326470 0.244237
C11   C     C_R   0.400330 0.300819 0.400398 0.508442
C12   C     C_3   0.302377 0.042137 0.224573 -0.154541
C13   C     C_3   0.259390 0.956164 0.182470 -0.289644
C14   C     C_1   0.139064 0.778203 0.138854 0.041582
C15   C     C_3   0.286287 0.073166 0.288524 0.048290
C16   C     C_3   0.253108 0.954540 0.279590 0.161753
C17   C     C_3   0.212026 0.926321 0.214471 0.114217
C18   C     C_3   0.169182 0.956122 0.224888 0.477549
C19   C     C_1   0.860545 0.500091 0.860682 0.005091
C20   C     C_3   0.213573 0.043479 0.266142 -0.063339
C21   C     C_1   0.171905 0.844733 0.172580 0.071848
C22   C     C_1   0.326969 0.155100 0.327935 -0.077107
C23   C     C_R   0.400683 0.500156 0.599724 0.507717
C24   C     C_1   0.360425 0.221642 0.360868 -0.015641
C25   C     C_3   0.772731 0.579717 0.318455 0.121774
C26   C     C_3   0.676028 0.469145 0.218752 -0.138311
C27   C     C_3   0.721234 0.472963 0.177638 -0.261447
C28   C     C_1   0.860934 0.500495 0.139048 0.020884
C29   C     C_3   0.713188 0.497948 0.286456 0.048473
C30   C     C_3   0.786002 0.549804 0.739587 0.235618
C31   C     C_3   0.819029 0.583522 0.276433 0.240566
C32   C     C_3   0.788722 0.501918 0.215124 0.071186
C33   C     C_3   0.779835 0.447758 0.234137 0.247252
C34   C     C_3   0.734922 0.446910 0.277181 0.098108
C35   C     C_R   0.599654 0.499833 0.400501 0.508100
C36   C     C_1   0.828135 0.501028 0.172795 0.013608
C37   C     C_1   0.672288 0.497713 0.327328 0.022487
C38   C     C_1   0.639184 0.498638 0.360852 0.029799
C39   C     C_3   0.778514 0.955668 0.753682 0.045400
C40   C     C_3   0.680838 0.957106 0.759570 0.153488
C41   C     C_3   0.712537 0.500666 0.714329 0.108934
C42   C     C_3   0.722609 0.044522 0.801190 0.208953
C43   C     C_1   0.861197 0.221671 0.859858 0.011956
C44   C     C_3   0.713362 0.927020 0.712239 0.080463
C45   C     C_3   0.821829 0.042317 0.798672 -0.079620
C46   C     C_3   0.787320 0.073547 0.785214 0.097700
C47   C     C_R   0.400002 0.499991 0.400312 0.507892
C48   C     C_3   0.771065 0.043761 0.713124 0.102618
C49   C     C_3   0.725750 0.957617 0.670250 0.159927
C50   C     C_1   0.828380 0.155167 0.825991 0.013979
C51   C     C_1   0.672445 0.845285 0.671559 0.055543
C52   C     C_3   0.785759 0.567479 0.806417 0.012838
C53   C     C_1   0.639105 0.778632 0.638686 0.037704
C54   C     C_3   0.236180 0.511749 0.319062 0.145867
C55   C     C_3   0.248288 0.424775 0.221253 -0.172644
C56   C     C_3   0.204090 0.422085 0.175898 0.240285
C57   C     C_1   0.138963 0.499334 0.138843 0.003824
C58   C     C_3   0.286446 0.501117 0.287537 0.069361
C59   C     C_R   0.599756 0.499885 0.599795 0.508463
C60   C     C_3   0.191604 0.513707 0.277508 0.057093
C61   C     C_3   0.210231 0.497987 0.214142 0.083163
C62   C     C_3   0.282509 0.561149 0.233731 -0.205298
C63   C     C_3   0.786479 0.500080 0.787305 -0.019096
C64   C     C_3   0.329128 0.563941 0.276967 0.006061
C65   C     C_1   0.171288 0.498728 0.172340 -0.027123
C66   C     C_1   0.326777 0.500329 0.328168 -0.054816
C67   C     C_1   0.360089 0.499993 0.361079 -0.006295
C68   C     C_3   0.297872 0.576735 0.752947 0.136252
C69   C     C_3   0.306850 0.484003 0.761290 0.228730
C70   C     C_3   0.263371 0.485261 0.807266 0.066290
C71   C     C_3   0.788076 0.483199 0.720171 -0.114752
C72   C     C_1   0.139557 0.500325 0.861050 0.005019
C73   C     C_3   0.286659 0.498352 0.712545 0.026706
C74   C     C_3   0.711651 0.517368 0.781121 -0.017886
C75   C     C_3   0.255030 0.579343 0.797316 0.233536
C76   C     C_3   0.215008 0.500767 0.787827 0.122612
C77   C     C_3   0.170031 0.436747 0.714729 0.446665
C78   C     C_3   0.212722 0.435818 0.668434 0.068847
C79   C     C_1   0.173369 0.501033 0.828267 0.011828
C80   C     C_1   0.328282 0.499780 0.672382 -0.099063
C81   C     C_1   0.361614 0.500390 0.639338 -0.024905
C82   C     C_R   0.900475 0.500217 0.099566 0.506866
C83   C     C_3   0.714036 0.434494 0.696310 0.235129
C84   C     C_R   0.099479 0.499625 0.900190 0.505834
C85   C     C_3   0.712522 0.450037 0.762455 0.014742
C86   C     C_R   0.099748 0.699030 0.099319 0.503584
C87   C     C_R   0.900312 0.300703 0.900289 0.508545
C88   C     C_R   0.099892 0.499927 0.099567 0.503595
C89   C     C_R   0.900142 0.499949 0.900136 0.509396
C90   C     C_1   0.639203 0.500077 0.639665 0.029502
C91   C     C_3   0.373193 0.072323 0.230678 -0.420675
C92   C     C_3   0.188617 0.081023 0.317582 -0.395391
C93   C     C_3   0.830423 0.637169 0.257352 -0.262172
C94   C     C_3   0.611148 0.391573 0.182792 -0.446847
C95   C     C_3   0.844937 0.467174 0.266481 -0.234511
C96   C     C_1   0.672338 0.500351 0.673306 0.035571
C97   C     C_3   0.669898 0.391412 0.773760 -0.379189
C98   C     C_3   0.684472 0.072516 0.789561 -0.324205
C99   C     C_3   0.668410 0.536291 0.814916 -0.407999
C100  C     C_3   0.892295 0.077177 0.800474 -0.347335
C101  C     C_3   0.117866 0.458915 0.263009 -0.333979
C102  C     C_3   0.135364 0.352572 0.149633 -0.298146
C103  C     C_3   0.369832 0.641745 0.341715 -0.393177
C104  C     C_3   0.828010 0.643895 0.868771 -0.379391
C105  C     C_3   0.378762 0.553161 0.244628 -0.385618
C106  C     C_3   0.203294 0.591330 0.316909 -0.414055
H1    H     H_    0.288769 0.933845 0.173689 0.104103
H2    H     H_    0.825780 0.057872 0.848366 0.167218
H3    H     H_    0.235894 0.361127 0.596888 0.138528
H4    H     H_    0.200007 0.331214 0.645508 0.202177
H5    H     H_    0.090273 0.404048 0.660407 0.324910
H6    H     H_    0.314810 0.594605 0.685947 0.335608
H7    H     H_    0.187303 0.573183 0.734245 0.191834
H8    H     H_    0.176313 0.594755 0.809756 0.114457
H9    H     H_    0.243016 0.662221 0.804550 0.166353
H10   H     H_    0.104918 0.329314 0.663417 0.316402
H11   H     H_    0.374956 0.083322 0.402385 0.161298
H12   H     H_    0.379443 0.036856 0.324598 0.085554
H13   H     H_    0.767974 0.935942 0.785103 0.149862
H14   H     H_    0.399234 0.127605 0.362551 0.129922
H15   H     H_    0.678544 0.939801 0.792444 0.099822
H16   H     H_    0.748437 0.935272 0.636549 0.136830
H17   H     H_    0.746537 0.066260 0.704762 0.124763
H18   H     H_    0.281118 0.411795 0.198603 0.101066
H19   H     H_    0.220076 0.380486 0.228779 0.151282
H20   H     H_    0.290012 0.615595 0.256973 0.108661
H21   H     H_    0.262769 0.565196 0.367203 0.112358
H22   H     H_    0.294440 0.553750 0.189888 0.134103
H23   H     H_    0.232657 0.935500 0.134825 0.169176
H24   H     H_    0.348681 0.618635 0.783781 0.182482
H25   H     H_    0.285655 0.936204 0.268175 0.096404
H26   H     H_    0.289528 0.059752 0.197705 0.150798
H27   H     H_    0.688938 0.335010 0.639660 0.322919
H28   H     H_    0.389007 0.045360 0.242821 0.138728
H29   H     H_    0.379082 0.059955 0.183758 0.139566
H30   H     H_    0.405337 0.133129 0.266062 0.151050
H31   H     H_    0.184570 0.068552 0.353612 0.190572
H32   H     H_    0.219686 0.141861 0.342943 0.126432
H33   H     H_    0.140234 0.061536 0.293982 0.143433
H34   H     H_    0.210172 0.059485 0.233514 0.134131
H35   H     H_    0.146668 0.951867 0.297323 0.380211
H36   H     H_    0.294289 0.116573 0.405704 0.333622
H37   H     H_    0.237845 0.943715 0.350336 0.367675
H38   H     H_    0.097163 0.932261 0.168400 0.352022
H39   H     H_    0.873729 0.693956 0.293498 0.173965
H40   H     H_    0.838618 0.619374 0.210557 0.099135
H41   H     H_    0.790588 0.642949 0.253234 0.148559
H42   H     H_    0.780088 0.673151 0.368359 0.331931
H43   H     H_    0.575596 0.391010 0.157004 0.142446
H44   H     H_    0.614686 0.346345 0.146921 0.125156
H45   H     H_    0.819189 0.469070 0.694852 0.121936
H46   H     H_    0.590705 0.377126 0.215598 0.146833
H47   H     H_    0.792708 0.514706 0.366706 0.311410
H48   H     H_    0.841114 0.415614 0.250676 0.176464
H49   H     H_    0.885102 0.498172 0.253702 0.142515
H50   H     H_    0.860858 0.499709 0.319174 0.114136
H51   H     H_    0.878869 0.603670 0.344568 0.303327
H52   H     H_    0.618926 0.364274 0.749610 0.151161
H53   H     H_    0.680418 0.349248 0.754076 0.135450
H54   H     H_    0.678827 0.417435 0.825776 0.132830
H55   H     H_    0.704527 0.351785 0.159533 0.312665
H56   H     H_    0.663284 0.507718 0.226044 0.202254
H57   H     H_    0.589093 0.907734 0.747603 0.314717
H58   H     H_    0.705384 0.075535 0.884304 0.330078
H59   H     H_    0.664972 0.047475 0.738271 0.177276
H60   H     H_    0.642573 0.056909 0.806399 0.138836
H61   H     H_    0.714615 0.133504 0.816044 0.116830
H62   H     H_    0.672983 0.931109 0.594668 0.312627
H63   H     H_    0.824072 0.086000 0.671142 0.325919
H64   H     H_    0.677870 0.545575 0.862114 0.137224
H65   H     H_    0.677806 0.587068 0.821782 0.138052
H66   H     H_    0.617576 0.489997 0.785512 0.139499
H67   H     H_    0.726010 0.510143 0.164284 0.109105
H68   H     H_    0.821817 0.943278 0.689219 0.342843
H69   H     H_    0.898187 0.066897 0.754239 0.214061
H70   H     H_    0.922039 0.137755 0.837393 0.135508
H71   H     H_    0.911944 0.053485 0.813505 0.156424
H72   H     H_    0.098299 0.486352 0.297021 0.126067
H73   H     H_    0.088260 0.434531 0.215126 0.103662
H74   H     H_    0.105173 0.413311 0.266936 0.192208
H75   H     H_    0.220537 0.473853 0.371976 0.326456
H76   H     H_    0.100347 0.352942 0.124504 0.138812
H77   H     H_    0.133624 0.302606 0.114504 0.154058
H78   H     H_    0.700090 0.418932 0.130821 0.141991
H79   H     H_    0.120187 0.344596 0.186931 0.104748
H80   H     H_    0.268218 0.436471 0.130919 0.319534
H81   H     H_    0.341452 0.657036 0.370378 0.112102
H82   H     H_    0.404099 0.644891 0.371751 0.147086
H83   H     H_    0.398035 0.685116 0.333226 0.132891
H84   H     H_    0.819097 0.682038 0.868358 0.153063
H85   H     H_    0.817061 0.640549 0.909386 0.132799
H86   H     H_    0.878992 0.665100 0.874236 0.139622
H87   H     H_    0.428009 0.604971 0.269718 0.136442
H88   H     H_    0.382879 0.511738 0.244266 0.132826
H89   H     H_    0.690535 0.389849 0.251438 0.180293
H90   H     H_    0.367850 0.535972 0.194716 0.107522
H91   H     H_    0.253340 0.638242 0.334413 0.112747
H92   H     H_    0.174090 0.594816 0.288247 0.147566
H93   H     H_    0.189423 0.601347 0.360428 0.135410
H94   H     H_    0.273159 0.647639 0.890077 0.321982
H95   H     H_    0.323904 0.412711 0.698652 0.336016
H96   H     H_    0.397785 0.598202 0.829429 0.100294
H97   H     H_    0.392211 0.525991 0.830909 0.152028
H98   H     H_    0.409017 0.534307 0.767189 0.125535
H99   H     H_    0.326117 0.524658 0.898039 0.112624
H100  H     H_    0.798527 0.600926 0.366906 0.098245
H101  H     H_    0.344174 0.598061 0.894338 0.186565
H102  H     H_    0.274142 0.553487 0.911019 0.130282
H103  H     H_    0.868370 0.623513 0.747646 0.325487
H104  H     H_    0.203981 0.359989 0.751623 0.223053
H105  H     H_    0.259020 0.405269 0.824136 0.128489
H106  H     H_    0.188499 0.404299 0.823886 0.139188
H107  H     H_    0.190455 0.497236 0.643354 0.204763
H108  H     H_    0.226474 0.456368 0.592728 0.134946
H109  H     H_    0.144621 0.401891 0.585351 0.107508
H110  H     H_    0.152730 0.317334 0.584071 0.096582
O1    O     O_3   0.500000 0.500000 0.500000 -0.442530
O2    O     O_R   0.960830 0.335840 0.918110 -0.533079
O3    O     O_R   0.082190 0.542890 0.125100 -0.540521
O4    O     O_R   0.625020 0.663960 0.582080 -0.528363
O5    O     O_R   0.874750 0.456980 0.917820 -0.538964
O6    O     O_R   0.082060 0.456790 0.039130 -0.530431
O7    O     O_R   0.960740 0.542810 0.917680 -0.531727
O8    O     O_R   0.081970 0.663760 0.038700 -0.541200
O9    O     O_R   0.874800 0.335990 0.918070 -0.536518
O10   O     O_R   0.961140 0.543090 0.125040 -0.527096
O11   O     O_R   0.081820 0.456620 0.917920 -0.533527
O12   O     O_R   0.418020 0.456930 0.581980 -0.539875
O13   O     O_R   0.418070 0.336020 0.461010 -0.535749
O14   O     O_R   0.417900 0.542920 0.581890 -0.536333
O15   O     O_R   0.539010 0.457110 0.375020 -0.542718
O16   O     O_R   0.417800 0.543010 0.460800 -0.535713
O17   O     O_R   0.625170 0.542960 0.582200 -0.522820
O18   O     O_R   0.417840 0.457080 0.374840 -0.537010
O19   O     O_R   0.539180 0.456950 0.582160 -0.538843
O20   O     O_3   0.675553 0.364859 0.638401 -0.685312
O21   O     O_3   0.124314 0.928628 0.252634 -0.659627
O22   O     O_3   0.270720 0.062086 0.378072 -0.718800
O23   O     O_R   0.625070 0.543050 0.461120 -0.525402
O24   O     O_3   0.213443 0.918295 0.305350 -0.681941
O25   O     O_3   0.134602 0.929442 0.164441 -0.706414
O26   O     O_3   0.750571 0.623599 0.327640 -0.739143
O27   O     O_3   0.760392 0.460941 0.335318 -0.709218
O28   O     O_3   0.880874 0.612978 0.311161 -0.718144
O29   O     O_3   0.750784 0.375799 0.177255 -0.709263
O30   O     O_3   0.618015 0.924997 0.725309 -0.653799
O31   O     O_3   0.739625 0.071957 0.866591 -0.741973
O32   O     O_3   0.667398 0.933612 0.634095 -0.667095
O33   O     O_3   0.827151 0.068091 0.696896 -0.754435
O34   O     O_R   0.538910 0.663940 0.581950 -0.531691
O35   O     O_3   0.808950 0.924950 0.716364 -0.698233
O36   O     O_3   0.199876 0.455207 0.327993 -0.740011
O37   O     O_3   0.221468 0.411524 0.120655 -0.701159
O38   O     O_3   0.297418 0.636990 0.860637 -0.758049
O39   O     O_3   0.296817 0.414042 0.726402 -0.736123
O40   O     O_3   0.823408 0.602362 0.727121 -0.676396
O41   O     O_3   0.125475 0.449331 0.700972 -0.728660
O42   O     O_3   0.290153 0.600288 0.715830 -0.746569
O43   O     O_3   0.134424 0.369070 0.708199 -0.722573
O44   O     O_R   0.418000 0.336080 0.374960 -0.535932
O45   O     O_3   0.999930 0.499860 0.999930 -0.442489
O46   O     O_R   0.874990 0.457140 0.039030 -0.537582
O47   O     O_R   0.081780 0.542610 0.917740 -0.538685
O48   O     O_R   0.082140 0.663870 0.124840 -0.523274
Zn1   Zn    Zn3+2 0.469350 0.438540 0.530750 0.946356
Zn2   Zn    Zn3+2 0.469190 0.561400 0.530630 0.951601
Zn3   Zn    Zn3+2 0.469250 0.438630 0.407810 0.945573
Zn4   Zn    Zn3+2 0.592210 0.561430 0.530810 0.973921
Zn5   Zn    Zn3+2 0.030570 0.561190 0.969050 0.951225
Zn6   Zn    Zn3+2 0.030810 0.561360 0.092130 0.961869
Zn7   Zn    Zn3+2 0.030630 0.438350 0.969310 0.956469
Zn8   Zn    Zn3+2 0.907720 0.438560 0.969250 0.950932

loop_
_geom_bond_atom_site_label_1
_geom_bond_atom_site_label_2
_ccdc_geom_bond_type
C34   H89   S    
O19   Zn1   S    
C105  H90   S    
C68   O42   S    
C55   C56   S    
C26   C94   S    
C9    H12   S    
O15   Zn3   S    
C64   C103  S    
C3    H97   S    
C12   C91   S    
C7    H4    S    
C76   C79   S    
C25   H100  S    
C13   H1    S    
C75   O38   S    
C92   H32   S    
C27   H67   S    
C48   H17   S    
C4    C70   S    
C30   C71   S    
C64   C105  S    
C99   H64   S    
C54   C60   S    
C77   C78   S    
C94   H43   S    
C105  H87   S    
C5    H104  S    
C82   O10   A    
C26   C27   S    
C5    C70   S    
C101  H73   S    
C102  H77   S    
C97   H53   S    
C14   C21   T    
C69   C73   S    
C3    C69   S    
H51   O28   S    
O7    Zn5   S    
C72   C79   T    
C52   C74   S    
C10   C15   S    
C42   C98   S    
H103  O40   S    
O14   Zn2   S    
H68   O35   S    
C6    C78   S    
C41   C96   S    
C99   H65   S    
C100  H71   S    
C3    H96   S    
C94   H46   S    
C104  H86   S    
C11   C24   S    
C9    H11   S    
C25   C29   S    
C95   H50   S    
C42   C46   S    
C87   O2    A    
H63   O33   S    
C48   O33   S    
H58   O31   S    
C16   H25   S    
C1    C53   S    
C27   H78   S    
O45   Zn8   S    
C62   C64   S    
C101  H72   S    
C8    H9    S    
H6    O42   S    
C41   C74   S    
C58   C66   S    
C15   C22   S    
C71   H45   S    
C6    H109  S    
C55   H19   S    
O16   Zn2   S    
C16   C17   S    
C87   O9    A    
C82   O46   A    
C47   C67   S    
C73   C78   S    
C30   C41   S    
C33   O29   S    
C103  H83   S    
C16   O24   S    
H35   O21   S    
C105  H88   S    
C12   H26   S    
C9    C10   S    
O45   Zn5   S    
C7    H110  S    
C52   C63   S    
C45   H2    S    
C8    H8    S    
C106  H92   S    
C47   O18   A    
C95   H49   S    
C40   H15   S    
C66   C67   T    
O8    Zn5   S    
C11   O13   A    
C77   O41   S    
C56   O37   S    
C63   C85   S    
H42   O26   S    
C3    H98   S    
C59   O17   A    
C86   O8    A    
C92   H31   S    
C33   C95   S    
C86   O48   A    
C4    H102  S    
C71   C83   S    
C58   C64   S    
C15   C20   S    
C5    H105  S    
C46   C48   S    
C42   O31   S    
H5    O41   S    
C102  H79   S    
C91   H30   S    
C23   O14   A    
C28   C82   S    
C102  H76   S    
C97   H54   S    
C31   O28   S    
C4    H99   S    
C35   C38   S    
C103  H81   S    
C76   C77   S    
C14   C86   S    
H80   O37   S    
C74   C99   S    
C62   H20   S    
O13   Zn1   S    
C1    O34   A    
C99   H66   S    
O1    Zn3   S    
C68   C73   S    
C31   C93   S    
C104  H85   S    
C29   C34   S    
C26   H56   S    
C44   C49   S    
C17   C21   S    
C7    H3    S    
C49   O32   S    
C60   C61   S    
C51   C53   T    
H27   O20   S    
C68   H24   S    
C75   C76   S    
O9    Zn8   S    
H55   O29   S    
C37   C38   T    
C19   C89   S    
C20   C92   S    
C31   C32   S    
C6    H108  S    
C12   C15   S    
O47   Zn5   S    
O1    Zn4   S    
C104  H84   S    
H38   O25   S    
C100  H69   S    
C17   C18   S    
C35   O23   A    
C93   H40   S    
C84   O47   A    
C88   O3    A    
C72   C84   S    
C91   H29   S    
C83   O20   S    
O44   Zn3   S    
C93   H39   S    
H10   O43   S    
O34   Zn2   S    
O45   Zn6   S    
C98   H60   S    
O5    Zn8   S    
C8    H7    S    
H75   O36   S    
C106  H91   S    
C25   O26   S    
O6    Zn7   S    
C44   C51   S    
O11   Zn7   S    
C48   C49   S    
H62   O32   S    
C63   C71   S    
C10   O22   S    
O1    Zn1   S    
C7    C78   S    
C70   C76   S    
C22   C24   T    
C45   C46   S    
C60   C101  S    
O4    Zn4   S    
C32   C36   S    
C88   O6    A    
C60   C106  S    
C2    C63   S    
C69   O39   S    
C4    H101  S    
C54   C58   S    
C2    C19   T    
H36   O22   S    
C5    H106  S    
C30   C52   S    
C55   H18   S    
C52   C104  S    
O48   Zn6   S    
C23   C81   S    
C18   O25   S    
C83   C85   S    
C34   O27   S    
C25   C31   S    
C59   O19   A    
C103  H82   S    
C98   H61   S    
C57   C65   T    
C80   C81   T    
C45   C100  S    
C89   O7    A    
C40   O30   S    
C18   O21   S    
C43   C50   T    
C90   C96   T    
C39   C44   S    
H37   O24   S    
C13   H23   S    
C13   C17   S    
C94   H44   S    
C35   O15   A    
C54   H21   S    
C46   C50   S    
O2    Zn7   S    
C57   C88   S    
C39   C45   S    
O3    Zn6   S    
C43   C87   S    
C11   O44   A    
C95   H48   S    
H47   O27   S    
C56   C102  S    
C101  H74   S    
H95   O39   S    
C32   C33   S    
C97   H52   S    
C62   H22   S    
C92   H33   S    
C20   H34   S    
O18   Zn3   S    
C89   O5    A    
C91   H28   S    
C68   C75   S    
C39   H13   S    
C49   H16   S    
C40   C42   S    
C73   C80   S    
C33   C34   S    
O23   Zn4   S    
C93   H41   S    
C1    O4    A    
C18   C20   S    
C8    C75   S    
C74   C85   S    
C23   O12   A    
C61   C62   S    
C6    H107  S    
C69   C70   S    
C100  H70   S    
O45   Zn7   S    
C98   H59   S    
C85   C97   S    
O12   Zn1   S    
C27   C32   S    
O46   Zn8   S    
C61   C65   S    
C40   C44   S    
C47   O16   A    
C39   O35   S    
C12   C13   S    
C28   C36   T    
C26   C29   S    
O1    Zn2   S    
C77   O43   S    
C55   C58   S    
C29   C37   S    
C9    H14   S    
C54   O36   S    
C56   C61   S    
H57   O30   S    
C10   C16   S    
C84   O11   A    
C59   C90   S    
O10   Zn6   S    
C30   O40   S    
H94   O38   S    
C106  H93   S    
O17   Zn4   S    
C41   C83   S    
