data_mof_unit_35032.cif
_audit_creation_date              2012-12-10T17:02:17-0500
_audit_creation_method            fapswitch 2.2
_symmetry_space_group_name_H-M    P1
_symmetry_Int_Tables_number       1
_space_group_crystal_system       triclinic
_cell_length_a                    10.719481
_cell_length_b                    10.664823
_cell_length_c                    10.01751
_cell_angle_alpha                 89.24772
_cell_angle_beta                  89.685435
_cell_angle_gamma                 89.911896
_cell_volume                      1145.09824324

loop_
_atom_site_label
_atom_site_type_symbol
_atom_type_description
_atom_site_fract_x
_atom_site_fract_y
_atom_site_fract_z
_atom_type_partial_charge
C1    C     C_R   0.487618 0.263109 0.500615 0.939056
C2    C     C_2   0.454606 0.133045 0.505049 -0.444373
C3    C     C_2   0.566058 0.577339 0.923451 -0.158849
C4    C     C_R   0.260358 0.512111 0.500735 0.865676
C5    C     C_2   0.561397 0.581128 0.073575 -0.145042
C6    C     C_R   0.504533 0.737226 0.498798 0.937075
C7    C     C_R   0.740019 0.489871 0.500573 0.872602
C8    C     C_R   0.108646 0.574138 0.745778 -0.222534
C9    C     C_R   0.046429 0.554118 0.868312 0.208152
C10   C     C_R   0.938837 0.476849 0.870444 0.172438
C11   C     C_R   0.887258 0.440763 0.748672 -0.245211
C12   C     C_R   0.060289 0.527135 0.625526 0.059554
C13   C     C_R   0.939108 0.481443 0.625981 0.063957
C14   C     C_3   0.093631 0.621481 0.990515 -0.450712
C15   C     C_3   0.225643 0.581467 0.027733 -0.854027
C16   C     C_3   0.873931 0.433883 0.997610 -0.417555
C17   C     C_3   0.950838 0.334736 0.071631 -0.865506
C18   C     C_3   0.640528 0.929261 0.535952 -0.424670
C19   C     C_3   0.752054 0.839165 0.534991 -0.865671
C20   C     C_3   0.410394 0.115865 0.256862 -0.321245
C21   C     C_3   0.365988 0.019841 0.155352 -0.923783
C22   C     C_R   0.126845 0.525257 0.503292 -0.101555
C23   C     C_R   0.064079 0.513667 0.382434 -0.224512
C24   C     C_R   0.937437 0.498262 0.382638 -0.229416
C25   C     C_R   0.873967 0.481680 0.503356 -0.101025
C26   C     C_2   0.427258 0.929110 0.422967 -0.225953
C27   C     C_2   0.518032 0.869598 0.491376 -0.009164
C28   C     C_2   0.429953 0.063251 0.397685 0.194672
H1    H     H_    0.112661 0.516032 0.287639 0.179043
H2    H     H_    0.348750 0.876823 0.383577 0.144472
H3    H     H_    0.231686 0.477951 0.038891 0.248031
H4    H     H_    0.292746 0.614088 0.950341 0.264111
H5    H     H_    0.252171 0.625002 0.123559 0.261753
H6    H     H_    0.093276 0.724042 0.969350 0.202495
H7    H     H_    0.032860 0.606889 0.078779 0.209106
H8    H     H_    0.970374 0.254300 0.005295 0.260902
H9    H     H_    0.040391 0.374177 0.106114 0.264113
H10   H     H_    0.897824 0.299680 0.159997 0.251316
H11   H     H_    0.852225 0.514791 0.061922 0.186415
H12   H     H_    0.453301 0.090006 0.604196 0.152460
H13   H     H_    0.781995 0.391124 0.975061 0.212936
H14   H     H_    0.740050 0.764236 0.611995 0.265750
H15   H     H_    0.763025 0.796210 0.435127 0.258243
H16   H     H_    0.838629 0.891466 0.558086 0.246118
H17   H     H_    0.665695 0.008719 0.468220 0.227520
H18   H     H_    0.628983 0.965392 0.638770 0.208552
H19   H     H_    0.434867 0.942458 0.145798 0.272474
H20   H     H_    0.273735 0.981169 0.185485 0.260276
H21   H     H_    0.355887 0.066301 0.056113 0.248998
H22   H     H_    0.339381 0.191891 0.260390 0.212878
H23   H     H_    0.626044 0.644514 0.872368 0.168974
H24   H     H_    0.499872 0.155270 0.218843 0.216535
H25   H     H_    0.441757 0.439621 0.898984 0.167014
H26   H     H_    0.612767 0.655212 0.121939 0.162277
H27   H     H_    0.458388 0.426901 0.103637 0.160782
H28   H     H_    0.191133 0.632465 0.743749 0.172548
H29   H     H_    0.806595 0.379905 0.750426 0.172817
H30   H     H_    0.889346 0.499198 0.288316 0.179398
N1    N     N_2   0.501340 0.501330 0.852150 -0.201332
N2    N     N_2   0.501380 0.501360 0.147810 -0.195836
O1    O     O_R   0.499980 0.319060 0.613040 -0.613711
O2    O     O_R   0.500020 0.319100 0.386900 -0.625833
O3    O     O_R   0.316750 0.499980 0.613090 -0.618039
O4    O     O_R   0.316790 0.500020 0.386950 -0.626587
O5    O     O_R   0.499980 0.680900 0.613100 -0.618908
O6    O     O_R   0.500020 0.680940 0.386960 -0.619516
O7    O     O_R   0.683210 0.499980 0.613050 -0.624035
O8    O     O_R   0.683250 0.500020 0.386910 -0.613411
Zn1   Zn    Zn3+2 0.499970 0.499970 0.650990 0.922612
Zn2   Zn    Zn3+2 0.500030 0.500030 0.349010 0.913914

loop_
_geom_bond_atom_site_label_1
_geom_bond_atom_site_label_2
_ccdc_geom_bond_type
C14   H6    S    
C20   H22   S    
C9    C14   S    
C2    H12   S    
C15   H3    S    
C17   H8    S    
O4    Zn2   S    
C4    C22   S    
C9    C10   A    
C4    O4    A    
C26   C28   S    
C6    C27   S    
C7    C25   S    
C19   H14   S    
N2    Zn2   S    
C8    C12   A    
C21   H20   S    
C1    O2    A    
C8    H28   S    
C21   H21   S    
H25   N1    S    
C24   C25   A    
C15   H4    S    
C20   H24   S    
C10   C16   S    
H27   N2    S    
C20   C21   S    
O7    Zn1   S    
C12   C13   A    
C11   C13   A    
C4    O3    A    
C13   C25   A    
C26   C27   D    
O6    Zn2   S    
C20   C28   S    
N1    Zn1   S    
O5    Zn1   S    
C23   H1    S    
O8    Zn2   S    
C19   H15   S    
C26   H2    S    
C17   H10   S    
C14   C15   S    
C10   C11   A    
C17   H9    S    
C23   C24   A    
C7    O7    A    
C18   H18   S    
C18   H17   S    
C12   C22   A    
C5    H26   S    
C6    O6    A    
C19   H16   S    
O2    Zn2   S    
C8    C9    A    
C24   H30   S    
C1    C2    S    
O1    Zn1   S    
C14   H7    S    
C3    H23   S    
C22   C23   A    
C18   C19   S    
C2    C28   D    
C16   H11   S    
C5    N2    D    
C3    C5    S    
C7    O8    A    
C11   H29   S    
C16   H13   S    
C15   H5    S    
C6    O5    A    
C18   C27   S    
O3    Zn1   S    
C3    N1    D    
C16   C17   S    
C21   H19   S    
C1    O1    A    
