data_mof_unit_11912.cif
_audit_creation_date              2012-12-10T17:31:24-0500
_audit_creation_method            fapswitch 2.2
_symmetry_space_group_name_H-M    P1
_symmetry_Int_Tables_number       1
_space_group_crystal_system       triclinic
_cell_length_a                    19.800048
_cell_length_b                    19.100312
_cell_length_c                    12.334359
_cell_angle_alpha                 90.331786
_cell_angle_beta                  129.782744
_cell_angle_gamma                 89.444588
_cell_volume                      3584.53879015

loop_
_atom_site_label
_atom_site_type_symbol
_atom_type_description
_atom_site_fract_x
_atom_site_fract_y
_atom_site_fract_z
_atom_type_partial_charge
C1    C     C_R   0.611819 0.899559 0.654854 0.782092
C2    C     C_R   0.619088 0.094564 0.663940 0.785987
C3    C     C_R   0.111820 0.399559 0.654854 0.782084
C4    C     C_R   0.119088 0.594564 0.663940 0.785980
C5    C     C_R   0.275487 0.756375 0.073854 -0.044205
C6    C     C_R   0.256025 0.243106 0.071056 -0.036431
C7    C     C_R   0.775483 0.256377 0.073850 -0.044210
C8    C     C_R   0.756019 0.743103 0.071050 -0.036663
C9    C     C_R   0.741730 0.218030 0.128882 0.031520
C10   C     C_R   0.686169 0.752098 0.073678 0.035732
C11   C     C_R   0.241735 0.718028 0.128886 0.031507
C12   C     C_R   0.186177 0.252105 0.073689 0.035691
C13   C     C_R   0.713068 0.149888 0.082223 -0.230841
C14   C     C_R   0.609923 0.785827 0.959445 -0.207483
C15   C     C_R   0.213073 0.649885 0.082227 -0.230845
C16   C     C_R   0.109930 0.285832 0.959454 -0.207509
C17   C     C_R   0.698412 0.125995 0.963353 -0.160026
C18   C     C_R   0.604199 0.810236 0.847323 -0.177275
C19   C     C_R   0.198416 0.625994 0.963356 -0.160028
C20   C     C_R   0.104203 0.310238 0.847326 -0.177287
C21   C     C_R   0.308524 0.824144 0.129621 0.512142
C22   C     C_R   0.313932 0.186158 0.145671 0.494566
C23   C     C_R   0.808521 0.324146 0.129618 0.512143
C24   C     C_R   0.813931 0.686159 0.145670 0.494446
C25   C     C_R   0.286290 0.808846 0.299241 -0.332624
C26   C     C_R   0.260645 0.173566 0.274237 -0.322819
C27   C     C_R   0.786287 0.308848 0.299237 -0.332658
C28   C     C_R   0.760638 0.673559 0.274226 -0.322849
C29   C     C_R   0.694840 0.141667 0.765241 -0.110584
C30   C     C_R   0.680835 0.849181 0.756765 -0.097960
C31   C     C_R   0.194840 0.641666 0.765241 -0.110585
C32   C     C_R   0.180836 0.349182 0.756764 -0.097940
C33   C     C_R   0.679669 0.990004 0.288236 -0.319686
C34   C     C_R   0.179669 0.490007 0.288236 -0.319683
C35   C     C_R   0.346569 0.005734 0.625424 0.084908
C36   C     C_R   0.846569 0.505735 0.625424 0.084900
C37   C     C_R   0.313679 0.007441 0.696831 -0.272641
C38   C     C_R   0.813679 0.507443 0.696831 -0.272649
C39   C     C_R   0.385773 0.098832 0.342990 0.826773
C40   C     C_R   0.385178 0.902370 0.340995 0.824802
C41   C     C_R   0.885773 0.598832 0.342989 0.826779
C42   C     C_R   0.885178 0.402370 0.340995 0.824827
C43   C     C_R   0.371364 0.004627 0.843662 -0.245327
C44   C     C_R   0.871364 0.504629 0.843662 -0.245321
C45   C     C_R   0.462797 0.000252 0.921049 -0.012165
C46   C     C_R   0.962797 0.500253 0.921049 -0.012168
C47   C     C_R   0.492666 0.995688 0.842901 0.293458
C48   C     C_R   0.992666 0.495688 0.842901 0.293456
C49   C     C_R   0.525703 0.998408 0.072340 -0.060921
C50   C     C_R   0.025703 0.498409 0.072340 -0.060923
C51   C     C_R   0.616235 0.989997 0.140972 0.176340
C52   C     C_R   0.116235 0.489999 0.140972 0.176337
C53   C     C_R   0.642923 0.981292 0.062078 -0.307149
C54   C     C_R   0.142924 0.481294 0.062078 -0.307140
C55   C     C_R   0.582354 0.985576 0.916797 -0.200767
C56   C     C_R   0.082354 0.485577 0.916797 -0.200765
C57   C     C_R   0.503015 0.002682 0.159540 0.018984
C58   C     C_R   0.003015 0.502681 0.159540 0.018980
C59   C     C_R   0.652968 0.995382 0.367738 0.052774
C60   C     C_R   0.152968 0.495384 0.367738 0.052770
C61   C     C_R   0.739129 0.247819 0.231671 0.017772
C62   C     C_R   0.691110 0.719671 0.181551 -0.001324
C63   C     C_R   0.239133 0.747816 0.231676 0.017770
C64   C     C_R   0.191118 0.219678 0.181562 -0.001310
C65   C     C_R   0.325678 0.844451 0.254994 -0.191004
C66   C     C_R   0.320072 0.154042 0.253700 -0.183064
C67   C     C_R   0.825676 0.344453 0.254992 -0.190996
C68   C     C_R   0.820069 0.654040 0.253696 -0.183066
C69   C     C_R   0.750454 0.159941 0.737305 -0.292774
C70   C     C_R   0.757193 0.847170 0.771413 -0.291256
C71   C     C_R   0.250455 0.659940 0.737305 -0.292783
C72   C     C_R   0.257195 0.347172 0.771412 -0.291166
C73   C     C_R   0.314750 0.709792 0.817962 -0.275324
C74   C     C_R   0.335329 0.321516 0.894081 -0.247353
C75   C     C_R   0.814749 0.209793 0.817962 -0.275317
C76   C     C_R   0.835328 0.821517 0.894086 -0.247176
C77   C     C_R   0.322908 0.746262 0.925463 0.537771
C78   C     C_R   0.337666 0.294850 0.001248 0.569983
C79   C     C_R   0.822906 0.246263 0.925463 0.537753
C80   C     C_R   0.837670 0.794860 0.001262 0.569981
C81   C     C_R   0.770540 0.225899 0.961837 0.000041
C82   C     C_R   0.758334 0.783232 0.977054 -0.013687
C83   C     C_R   0.270542 0.725897 0.961839 0.000072
C84   C     C_R   0.258335 0.283227 0.977046 -0.013649
C85   C     C_R   0.716299 0.166521 0.891843 0.020776
C86   C     C_R   0.679870 0.814324 0.858205 0.011485
C87   C     C_R   0.216301 0.666520 0.891844 0.020767
C88   C     C_R   0.179872 0.314322 0.858202 0.011419
Cu1   Cu    Cu3+1 0.526340 0.000000 0.421010 0.939095
Cu2   Cu    Cu3+1 0.026340 0.500000 0.421010 0.939091
Cu3   Cu    Cu3+1 0.473640 1.000000 0.578990 0.917038
Cu4   Cu    Cu3+1 0.973640 0.500000 0.578990 0.917033
H1    H     H_    0.289528 0.831038 0.383249 0.182296
H2    H     H_    0.265279 0.150078 0.358629 0.187824
H3    H     H_    0.789525 0.331040 0.383246 0.182293
H4    H     H_    0.765271 0.650070 0.358618 0.187825
H5    H     H_    0.711856 0.973934 0.113066 0.149495
H6    H     H_    0.211856 0.473936 0.113066 0.149489
H7    H     H_    0.749056 0.984616 0.341134 0.132988
H8    H     H_    0.249056 0.484620 0.341134 0.132995
H9    H     H_    0.435861 0.006918 0.117175 0.158157
H10   H     H_    0.935861 0.506915 0.117175 0.158146
H11   H     H_    0.301704 0.008439 0.511455 0.122958
H12   H     H_    0.801704 0.508439 0.511455 0.122950
H13   H     H_    0.342786 0.003018 0.893791 0.136231
H14   H     H_    0.842786 0.503023 0.893791 0.136224
H15   H     H_    0.243486 0.010583 0.638452 0.136877
H16   H     H_    0.743486 0.510586 0.638452 0.136869
H17   H     H_    0.609406 0.983807 0.866440 0.202573
H18   H     H_    0.109406 0.483807 0.866439 0.202574
H19   H     H_    0.700735 0.115200 0.136611 0.169788
H20   H     H_    0.552029 0.787392 0.950227 0.148217
H21   H     H_    0.200742 0.615197 0.136617 0.169785
H22   H     H_    0.052038 0.287400 0.950240 0.148226
H23   H     H_    0.745637 0.134688 0.653809 0.190342
H24   H     H_    0.759153 0.872354 0.694993 0.176909
H25   H     H_    0.245637 0.634686 0.653808 0.190341
H26   H     H_    0.259155 0.372360 0.694995 0.176901
H27   H     H_    0.359138 0.718895 0.796798 0.148485
H28   H     H_    0.395676 0.326967 0.910438 0.162011
H29   H     H_    0.859137 0.218897 0.796798 0.148485
H30   H     H_    0.895674 0.826967 0.910440 0.162055
H31   H     H_    0.683009 0.072772 0.935729 0.149119
H32   H     H_    0.539511 0.825188 0.753228 0.173592
H33   H     H_    0.183013 0.572771 0.935731 0.149119
H34   H     H_    0.039513 0.325189 0.753234 0.173602
H35   H     H_    0.700926 0.993985 0.481703 0.123704
H36   H     H_    0.200926 0.493988 0.481703 0.123703
N1    N     N_R   0.566260 0.000000 0.302220 -0.200280
N2    N     N_R   0.066260 0.500000 0.302220 -0.200280
N3    N     N_R   0.434410 0.000000 0.697680 -0.214509
N4    N     N_R   0.934410 0.500000 0.697680 -0.214506
O1    O     O_R   0.608610 0.924520 0.551740 -0.607345
O2    O     O_R   0.608610 0.075480 0.551740 -0.595454
O3    O     O_R   0.108610 0.424520 0.551740 -0.607350
O4    O     O_R   0.108610 0.575480 0.551740 -0.595455
O5    O     O_R   0.564110 0.924510 0.685150 -0.620177
O6    O     O_R   0.564110 0.075490 0.685150 -0.589822
O7    O     O_R   0.064110 0.424510 0.685150 -0.620173
O8    O     O_R   0.064110 0.575490 0.685150 -0.589823
O9    O     O_R   0.435880 0.075470 0.314850 -0.557485
O10   O     O_R   0.435880 0.924530 0.314850 -0.551163
O11   O     O_R   0.935880 0.575470 0.314850 -0.557487
O12   O     O_R   0.935880 0.424530 0.314850 -0.551163
O13   O     O_R   0.391380 0.075460 0.448260 -0.596683
O14   O     O_R   0.391380 0.924540 0.448260 -0.607074
O15   O     O_R   0.891380 0.575460 0.448260 -0.596686
O16   O     O_R   0.891380 0.424540 0.448260 -0.607078
C89   C     C_R   0.680857 0.221284 0.259743 0.135540
C90   C     C_R   0.596704 0.195338 0.148209 -0.205800
C91   C     C_R   0.539934 0.174696 0.171830 -0.034522
C92   C     C_R   0.562614 0.185719 0.303353 0.055139
C93   C     C_R   0.642559 0.216030 0.411447 -0.214856
C94   C     C_R   0.703565 0.230072 0.393127 -0.169433
H37   H     H_    0.573542 0.192174 0.041631 0.146317
H38   H     H_    0.476732 0.153379 0.085609 0.176993
H39   H     H_    0.516875 0.174416 0.320358 0.193557
H40   H     H_    0.656148 0.230248 0.508297 0.147042
H41   H     H_    0.766972 0.250128 0.482283 0.121246
C95   C     C_R   0.628351 0.733545 0.206563 0.127106
C96   C     C_R   0.623525 0.800390 0.248874 -0.179239
C97   C     C_R   0.578015 0.810621 0.299528 -0.074003
C98   C     C_R   0.536536 0.754524 0.307376 -0.015433
C99   C     C_R   0.538747 0.688211 0.261344 -0.120430
C100  C     C_R   0.584761 0.677588 0.211677 -0.153121
H42   H     H_    0.658185 0.843629 0.248395 0.142766
H43   H     H_    0.575413 0.861823 0.333811 0.175624
H44   H     H_    0.501604 0.762698 0.347025 0.106541
H45   H     H_    0.505893 0.644859 0.266043 0.115972
H46   H     H_    0.588734 0.625384 0.181248 0.119851
C101  C     C_R   0.180862 0.721281 0.259748 0.135544
C102  C     C_R   0.096709 0.695335 0.148214 -0.205767
C103  C     C_R   0.039938 0.674693 0.171834 -0.034504
C104  C     C_R   0.062617 0.685718 0.303356 0.055123
C105  C     C_R   0.142561 0.716029 0.411449 -0.214834
C106  C     C_R   0.203569 0.730070 0.393131 -0.169413
H47   H     H_    0.073548 0.692170 0.041636 0.146311
H48   H     H_    0.976736 0.653376 0.085613 0.176978
H49   H     H_    0.016877 0.674416 0.320360 0.193547
H50   H     H_    0.156150 0.730249 0.508298 0.147035
H51   H     H_    0.266976 0.750126 0.482287 0.121239
C107  C     C_R   0.128357 0.233551 0.206571 0.127095
C108  C     C_R   0.123529 0.300395 0.248882 -0.179226
C109  C     C_R   0.078016 0.310625 0.299531 -0.074016
C110  C     C_R   0.036536 0.254526 0.307374 -0.015434
C111  C     C_R   0.038749 0.188215 0.261342 -0.120417
C112  C     C_R   0.084766 0.177593 0.211680 -0.153125
H52   H     H_    0.158190 0.343635 0.248406 0.142780
H53   H     H_    0.075412 0.361826 0.333813 0.175630
H54   H     H_    0.001602 0.262700 0.347019 0.106544
H55   H     H_    0.005895 0.144862 0.266037 0.115981
H56   H     H_    0.088740 0.125389 0.181250 0.119869
O17   O     O_3   0.315044 0.873773 0.055843 -0.543988
C113  C     C_3   0.232069 0.906143 0.957832 -0.397791
H57   H     H_    0.212560 0.935372 0.012443 0.160801
H58   H     H_    0.180681 0.867524 0.882462 0.163074
H59   H     H_    0.236066 0.944369 0.894972 0.169610
O18   O     O_3   0.356367 0.156839 0.100948 -0.570557
C114  C     C_3   0.295434 0.117793 0.976814 -0.391401
H60   H     H_    0.227858 0.140645 0.904826 0.156739
H61   H     H_    0.291953 0.063676 0.005087 0.173027
H62   H     H_    0.318600 0.116526 0.915644 0.192797
O19   O     O_3   0.815042 0.373778 0.055845 -0.543986
C115  C     C_3   0.732050 0.406111 0.957760 -0.397779
H63   H     H_    0.712454 0.435292 0.012296 0.160786
H64   H     H_    0.680714 0.367473 0.882329 0.163084
H65   H     H_    0.736069 0.444376 0.894976 0.169608
O20   O     O_3   0.856375 0.656848 0.100956 -0.570550
C116  C     C_3   0.795451 0.617798 0.976822 -0.391274
H66   H     H_    0.727863 0.640640 0.904832 0.156731
H67   H     H_    0.791986 0.563675 0.005104 0.173024
H68   H     H_    0.818616 0.616544 0.915645 0.192768
O21   O     O_3   0.394333 0.789162 0.014349 -0.557173
C117  C     C_3   0.397508 0.840737 0.936685 -0.210082
H69   H     H_    0.332515 0.866595 0.857312 0.167895
H70   H     H_    0.422857 0.819845 0.885041 0.112284
H71   H     H_    0.444493 0.880234 0.012828 0.205251
O22   O     O_3   0.418495 0.283847 0.132019 -0.569507
C118  C     C_3   0.438682 0.342645 0.217516 -0.381292
H72   H     H_    0.441465 0.391200 0.171020 0.163478
H73   H     H_    0.504566 0.334462 0.321659 0.192325
H74   H     H_    0.390931 0.349252 0.236163 0.156744
O23   O     O_3   0.894330 0.289165 0.014349 -0.557169
C119  C     C_3   0.897508 0.340737 0.936686 -0.210093
H75   H     H_    0.832515 0.366594 0.857306 0.167888
H76   H     H_    0.922862 0.319843 0.885050 0.112289
H77   H     H_    0.944491 0.380236 0.012828 0.205254
O24   O     O_3   0.918514 0.783865 0.132017 -0.569470
C120  C     C_3   0.938520 0.842510 0.217761 -0.381205
H78   H     H_    0.940871 0.891282 0.171256 0.163269
H79   H     H_    0.004556 0.834440 0.321714 0.192335
H80   H     H_    0.890911 0.848672 0.236812 0.156850

loop_
_geom_bond_atom_site_label_1
_geom_bond_atom_site_label_2
_ccdc_geom_bond_type
C102  H47   S    
C26   H2    S    
C113  H58   S    
C101  C102  A    
C25   H1    S    
C73   H27   S    
C40   O10   A    
Cu4   O16   S    
C63   C101  S    
C14   C18   A    
C27   H3    S    
C98   C99   A    
C25   C63   A    
C57   H9    S    
O19   C115  S    
C42   O16   A    
C119  H75   S    
C96   C97   A    
O22   C118  S    
Cu1   N1    S    
C110  H54   S    
C32   C72   A    
C103  C104  A    
C14   H20   S    
C18   C86   A    
C2    C29   S    
C9    C61   A    
C57   N1    A    
C99   C100  A    
C28   C68   A    
C41   O11   A    
C120  H80   S    
C35   H11   S    
C36   N4    A    
C6    C12   A    
C12   C64   A    
C117  H70   S    
C113  H59   S    
Cu3   N3    S    
C13   H19   S    
C77   C83   A    
C59   H35   S    
Cu1   O10   S    
C6    C22   A    
C93   H40   S    
C116  H68   S    
C49   C57   A    
C109  C110  A    
C48   C56   A    
C43   H13   S    
C23   C67   A    
C111  H55   S    
C9    C13   A    
C104  C105  A    
C22   C66   A    
C26   C64   A    
C27   C61   A    
C8    C24   A    
C107  C108  A    
C11   C15   A    
C17   H31   S    
C59   N1    A    
C12   C16   A    
C44   C46   A    
O20   C116  S    
C49   C51   A    
C114  H62   S    
C50   C52   A    
C91   C92   A    
C15   H21   S    
C69   C75   A    
O18   C114  S    
C58   H10   S    
C30   C86   A    
C21   O17   S    
C29   C85   A    
C96   H42   S    
C28   H4    S    
C4    O4    A    
C64   C107  S    
C53   C55   A    
C113  H57   S    
C47   C55   A    
C114  H60   S    
C33   C59   A    
Cu3   O5    S    
C55   H17   S    
Cu4   O15   S    
C34   C60   A    
C99   H45   S    
C10   C62   A    
C1    O1    A    
C17   C85   A    
C56   H18   S    
O24   C120  S    
C30   C70   A    
C52   C54   A    
C23   O19   S    
C41   C68   S    
C29   C69   A    
C45   C47   A    
C106  H51   S    
C54   C56   A    
C6    C84   A    
C28   C62   A    
C71   H25   S    
C77   O21   S    
C2    O6    A    
C76   C80   A    
C60   H36   S    
Cu1   O1    S    
O23   C119  S    
C72   C74   A    
C21   C65   A    
C10   C14   A    
C60   N2    A    
C118  H72   S    
C79   C81   A    
C117  H69   S    
C70   H24   S    
O21   C117  S    
C119  H76   S    
C24   O20   S    
C47   N3    A    
C33   H7    S    
C26   C66   A    
C37   C43   A    
C15   C19   A    
C89   C94   A    
C108  C109  A    
C38   C44   A    
C120  H78   S    
C118  H73   S    
Cu3   O6    S    
Cu2   O4    S    
C34   H8    S    
C105  C106  A    
C41   O15   A    
C115  H65   S    
C45   C49   A    
C16   C20   A    
C39   O13   A    
C116  H66   S    
C50   C58   A    
C25   C65   A    
C3    C32   S    
C2    O2    A    
C91   H38   S    
C80   O24   S    
C79   O23   S    
C43   C45   A    
C112  H56   S    
C39   O9    A    
C80   C82   A    
C7    C81   A    
C115  H64   S    
O17   C113  S    
C90   H37   S    
Cu4   N4    S    
C5    C11   A    
C70   C76   A    
C42   C67   S    
C39   C66   S    
C62   C95   S    
C31   C87   A    
C3    O7    A    
Cu4   O8    S    
C119  H77   S    
C35   N3    A    
Cu3   O13   S    
C1    O5    A    
C102  C103  A    
C71   C73   A    
C97   C98   A    
C100  H46   S    
C7    C9    A    
C92   H39   S    
C69   H23   S    
Cu1   O2    S    
C36   H12   S    
C35   C37   A    
C75   H29   S    
C34   C52   A    
C22   O18   S    
C48   N4    A    
Cu2   O11   S    
C117  H71   S    
C16   H22   S    
C83   C87   A    
C5    C83   A    
C37   H15   S    
C105  H50   S    
C40   O14   A    
C44   H14   S    
C33   C51   A    
C74   H28   S    
C101  C106  A    
C46   C50   A    
C11   C63   A    
C13   C17   A    
C40   C65   S    
C53   H5    S    
C95   C96   A    
C95   C100  A    
Cu2   Cu4   S    
C111  C112  A    
C19   C87   A    
C76   H30   S    
C94   H41   S    
C120  H79   S    
C82   C86   A    
C89   C90   A    
C78   O22   S    
C118  H74   S    
C42   O12   A    
Cu2   O3    S    
C110  C111  A    
Cu1   O9    S    
C84   C88   A    
C75   C79   A    
C103  H48   S    
C58   N2    A    
C7    C23   A    
C20   C88   A    
C36   C38   A    
C1    C30   S    
C116  H67   S    
C19   H33   S    
C20   H34   S    
C98   H44   S    
C3    O3    A    
C107  C112  A    
C38   H16   S    
C4    O8    A    
C81   C85   A    
C4    C31   S    
C27   C67   A    
C24   C68   A    
C97   H43   S    
Cu2   N2    S    
C46   C48   A    
C78   C84   A    
C8    C82   A    
C5    C21   A    
C115  H63   S    
C8    C10   A    
Cu1   Cu3   S    
C74   C78   A    
C72   H26   S    
C114  H61   S    
C73   C77   A    
C90   C91   A    
C54   H6    S    
C92   C93   A    
C51   C53   A    
C93   C94   A    
C108  H52   S    
Cu4   O7    S    
C61   C89   S    
C104  H49   S    
C109  H53   S    
Cu3   O14   S    
Cu2   O12   S    
C18   H32   S    
C31   C71   A    
C32   C88   A    
