data_mof_unit_59114.cif
_audit_creation_date              2012-12-10T16:37:24-0500
_audit_creation_method            fapswitch 2.2
_symmetry_space_group_name_H-M    P1
_symmetry_Int_Tables_number       1
_space_group_crystal_system       triclinic
_cell_length_a                    16.698601
_cell_length_b                    16.891494
_cell_length_c                    16.677419
_cell_angle_alpha                 65.471653
_cell_angle_beta                  65.512307
_cell_angle_gamma                 65.800823
_cell_volume                      3730.48485281

loop_
_atom_site_label
_atom_site_type_symbol
_atom_type_description
_atom_site_fract_x
_atom_site_fract_y
_atom_site_fract_z
_atom_type_partial_charge
C1    C     C_R   0.399123 0.055244 0.663357 0.724522
C2    C     C_R   0.419097 0.662833 0.016417 0.683621
C3    C     C_3   0.846961 0.302279 0.318727 -0.376621
C4    C     C_3   0.754097 0.376365 0.329705 -0.412188
C5    C     C_3   0.675779 0.340992 0.347189 -0.818111
C6    C     C_3   0.705265 0.706631 0.137385 -0.368842
C7    C     C_3   0.763641 0.774946 0.080808 -0.280148
C8    C     C_3   0.843836 0.754035 0.115055 -0.781102
C9    C     C_3   0.218801 0.233510 0.085965 -0.355433
C10   C     C_3   0.187438 0.203928 0.029603 -0.233231
C11   C     C_3   0.184082 0.105764 0.071941 -0.885119
C12   C     C_R   0.931058 0.599633 0.347469 0.692624
C13   C     C_R   0.074365 0.397330 0.652941 0.693118
C14   C     C_R   0.975801 0.177754 0.431247 0.883048
C15   C     C_R   0.025834 0.821662 0.568495 0.893652
C16   C     C_R   0.178184 0.430888 0.975773 0.881622
C17   C     C_R   0.820899 0.560105 0.042766 0.897921
C18   C     C_R   0.438748 0.959814 0.180009 0.862359
C19   C     C_R   0.560448 0.042460 0.820163 0.952917
C20   C     C_R   0.564095 0.820295 0.034610 0.921135
C21   C     C_R   0.597965 0.958455 0.333077 0.718767
C22   C     C_R   0.423864 0.158358 0.010818 0.935544
C23   C     C_R   0.042696 0.559838 0.820422 0.897571
C24   C     C_R   0.958537 0.439300 0.179971 0.859346
C25   C     C_R   0.820350 0.041327 0.560724 0.907550
C26   C     C_R   0.179869 0.959884 0.438732 0.894343
C27   C     C_R   0.443219 0.073458 0.705906 -0.268731
C28   C     C_R   0.555030 0.936943 0.292124 -0.282559
C29   C     C_R   0.942336 0.730425 0.517505 -0.272110
C30   C     C_R   0.061974 0.266338 0.482779 -0.282697
C31   C     C_R   0.700745 0.440094 0.103368 -0.286232
C32   C     C_R   0.922485 0.687248 0.475691 0.702104
C33   C     C_R   0.315487 0.523752 0.933917 -0.288822
C34   C     C_R   0.290383 0.940259 0.554732 -0.278518
C35   C     C_R   0.707103 0.071931 0.442661 -0.276171
C36   C     C_R   0.506915 0.240289 0.075364 -0.277231
C37   C     C_R   0.459238 0.710046 0.032188 -0.292647
C38   C     C_R   0.917910 0.554794 0.302138 -0.292769
C39   C     C_R   0.086320 0.442257 0.699197 -0.274635
C40   C     C_R   0.539524 0.032346 0.539088 -0.122013
C41   C     C_R   0.457196 0.981092 0.457202 -0.120937
C42   C     C_R   0.016027 0.542162 0.547976 -0.116610
C43   C     C_R   0.082455 0.309086 0.524702 0.700528
C44   C     C_R   0.990365 0.454714 0.451590 -0.116475
C45   C     C_R   0.543963 0.526992 0.043736 -0.121090
C46   C     C_R   0.452884 0.429746 0.023702 -0.122988
C47   C     C_R   0.585691 0.022595 0.449301 -0.042952
C48   C     C_R   0.410629 0.992013 0.546571 -0.030169
C49   C     C_R   0.045292 0.445768 0.572169 -0.051360
C50   C     C_R   0.961006 0.551007 0.427617 -0.043032
C51   C     C_R   0.464142 0.572851 0.014204 -0.035203
C52   C     C_R   0.531353 0.380959 0.056869 -0.060290
C53   C     C_R   0.547095 0.990616 0.410963 -0.043876
C54   C     C_R   0.651773 0.388812 0.105909 0.680349
C55   C     C_R   0.449376 0.023788 0.584927 -0.044667
C56   C     C_R   0.425741 0.525460 0.993635 -0.040866
C57   C     C_R   0.577828 0.430432 0.066764 -0.042954
C58   C     C_R   0.037777 0.402162 0.519240 -0.049700
C59   C     C_R   0.968325 0.594511 0.480564 -0.049532
C60   C     C_R   0.538383 0.063084 0.671441 -0.028564
C61   C     C_R   0.460160 0.945527 0.326956 -0.030041
C62   C     C_R   0.003841 0.682195 0.570727 -0.045725
C63   C     C_R   0.001019 0.315345 0.428916 -0.041598
C64   C     C_R   0.671541 0.535273 0.074299 -0.013496
C65   C     C_R   0.364244 0.570346 0.939458 0.711166
C66   C     C_R   0.327549 0.430689 0.980241 -0.039251
C67   C     C_R   0.326192 0.946522 0.460128 -0.022270
C68   C     C_R   0.672232 0.062079 0.537981 -0.031629
C69   C     C_R   0.428752 0.287911 0.044449 -0.025467
C70   C     C_R   0.547663 0.672053 0.044946 -0.020283
C71   C     C_R   0.940184 0.460275 0.329180 -0.011819
C72   C     C_R   0.064943 0.537203 0.670955 -0.012234
C73   C     C_R   0.588092 0.070379 0.719244 -0.144208
C74   C     C_R   0.411585 0.934419 0.280625 -0.123617
C75   C     C_R   0.036677 0.724686 0.604826 -0.106056
C76   C     C_R   0.331700 0.961426 0.597463 0.712866
C77   C     C_R   0.966160 0.274073 0.395484 -0.122197
C78   C     C_R   0.720704 0.588030 0.072244 -0.153963
C79   C     C_R   0.268034 0.383112 0.990877 -0.111296
C80   C     C_R   0.280211 0.934262 0.411752 -0.144676
C81   C     C_R   0.719967 0.068935 0.587911 -0.145414
C82   C     C_R   0.378981 0.243449 0.034070 -0.145761
C83   C     C_R   0.594230 0.721094 0.056600 -0.136128
C84   C     C_R   0.931466 0.412601 0.281289 -0.122130
C85   C     C_R   0.071831 0.585702 0.719222 -0.146892
C86   C     C_R   0.672715 0.088312 0.671688 0.020022
C87   C     C_R   0.664717 0.053290 0.398765 0.732502
C88   C     C_R   0.329126 0.912951 0.329076 0.018711
C89   C     C_R   0.082251 0.671543 0.672337 0.009111
C90   C     C_R   0.918847 0.327742 0.329775 0.013981
C91   C     C_R   0.675819 0.674815 0.081735 0.020055
C92   C     C_R   0.290002 0.287872 0.029807 0.019060
C93   C     C_R   0.583278 0.052752 0.582741 0.057909
C94   C     C_R   0.414526 0.957696 0.414794 0.046906
C95   C     C_R   0.030518 0.586846 0.594846 0.053946
C96   C     C_R   0.975406 0.410417 0.404698 0.052414
C97   C     C_R   0.587646 0.578220 0.054282 0.055585
C98   C     C_R   0.561174 0.285237 0.074137 0.700236
C99   C     C_R   0.402363 0.382854 0.017498 0.063458
C100  C     C_3   0.697468 0.154128 0.692753 -0.388024
C101  C     C_3   0.752601 0.110567 0.763089 -0.275412
C102  C     C_3   0.824930 0.157446 0.736683 -0.816852
C103  C     C_3   0.309892 0.844152 0.306924 -0.388865
C104  C     C_3   0.235351 0.884054 0.257663 -0.283894
C105  C     C_3   0.261706 0.845038 0.179676 -0.830569
C106  C     C_3   0.145596 0.699773 0.693399 -0.349184
C107  C     C_3   0.229570 0.714978 0.609467 -0.406921
C108  C     C_3   0.307802 0.710659 0.637624 -0.800613
F1    F     F_    0.305958 0.078941 0.693557 -0.564278
F2    F     F_    0.329873 0.702525 0.016720 -0.612293
F3    F     F_    0.924246 0.689150 0.305029 -0.605390
F4    F     F_    0.080983 0.307855 0.695417 -0.589656
F5    F     F_    0.691049 0.936676 0.302254 -0.575544
F6    F     F_    0.850191 0.734629 0.440810 -0.592873
F7    F     F_    0.153955 0.260708 0.560642 -0.587170
F8    F     F_    0.671965 0.300806 0.157166 -0.598628
F9    F     F_    0.356588 0.657587 0.884927 -0.606119
F10   F     F_    0.299926 0.940608 0.690783 -0.591165
F11   F     F_    0.695799 0.075798 0.305328 -0.562485
F12   F     F_    0.646879 0.233454 0.078817 -0.573409
H1    H     H_    0.400375 0.101251 0.762960 0.199669
H2    H     H_    0.413618 0.774316 0.039723 0.214082
H3    H     H_    0.888434 0.594773 0.246305 0.174341
H4    H     H_    0.113181 0.401354 0.757405 0.193018
H5    H     H_    0.876687 0.149865 0.670192 0.288565
H6    H     H_    0.791967 0.230873 0.730702 0.259099
H7    H     H_    0.860582 0.126164 0.790585 0.258607
H8    H     H_    0.705459 0.118355 0.831460 0.241718
H9    H     H_    0.786211 0.036885 0.771239 0.244776
H10   H     H_    0.735713 0.194596 0.626577 0.195514
H11   H     H_    0.633276 0.205020 0.718122 0.180082
H12   H     H_    0.598958 0.907469 0.236435 0.193875
H13   H     H_    0.317306 0.870680 0.121789 0.277703
H14   H     H_    0.284190 0.769586 0.203808 0.265589
H15   H     H_    0.201665 0.867760 0.154291 0.269514
H16   H     H_    0.171213 0.867465 0.307920 0.240871
H17   H     H_    0.220725 0.958830 0.229189 0.245153
H18   H     H_    0.375336 0.807086 0.265245 0.196427
H19   H     H_    0.289638 0.791030 0.372225 0.166567
H20   H     H_    0.282941 0.756404 0.680548 0.293164
H21   H     H_    0.336558 0.640188 0.677951 0.260802
H22   H     H_    0.363321 0.731483 0.575011 0.250362
H23   H     H_    0.904163 0.800893 0.512185 0.206351
H24   H     H_    0.255209 0.662021 0.574436 0.230164
H25   H     H_    0.209968 0.782124 0.559378 0.213546
H26   H     H_    0.108539 0.760316 0.718625 0.230905
H27   H     H_    0.172062 0.644681 0.750241 0.201820
H28   H     H_    0.663167 0.290698 0.416633 0.252020
H29   H     H_    0.612023 0.398280 0.343831 0.253606
H30   H     H_    0.693013 0.307742 0.294835 0.314526
H31   H     H_    0.738609 0.400137 0.388975 0.238862
H32   H     H_    0.757377 0.435433 0.266389 0.205756
H33   H     H_    0.870667 0.290767 0.250634 0.228484
H34   H     H_    0.098723 0.195433 0.489044 0.205822
H35   H     H_    0.833857 0.239041 0.372421 0.215018
H36   H     H_    0.818627 0.749183 0.189406 0.295633
H37   H     H_    0.896848 0.690808 0.102981 0.276294
H38   H     H_    0.876555 0.810022 0.076569 0.254800
H39   H     H_    0.789338 0.780120 0.006281 0.244169
H40   H     H_    0.720854 0.843223 0.088751 0.236630
H41   H     H_    0.642555 0.737263 0.186757 0.164271
H42   H     H_    0.743103 0.645651 0.182287 0.183045
H43   H     H_    0.253448 0.058551 0.071147 0.295513
H44   H     H_    0.137781 0.095498 0.143805 0.247820
H45   H     H_    0.757469 0.404310 0.132697 0.187976
H46   H     H_    0.156993 0.090198 0.031287 0.261988
H47   H     H_    0.115760 0.244359 0.029359 0.238232
H48   H     H_    0.231355 0.214814 0.956783 0.243379
H49   H     H_    0.247219 0.172216 0.137903 0.184014
H50   H     H_    0.157597 0.273446 0.128596 0.191799
H51   H     H_    0.270142 0.561206 0.890900 0.182555
H52   H     H_    0.233502 0.912577 0.599338 0.205127
H53   H     H_    0.764381 0.099628 0.399428 0.197872
H54   H     H_    0.528961 0.166808 0.098739 0.204179
O1    O     O_R   0.982940 0.138950 0.510160 -0.639993
O2    O     O_R   0.982940 0.510160 0.138950 -0.628267
O3    O     O_R   0.861050 0.017060 0.489840 -0.628097
O4    O     O_R   0.138950 0.982940 0.510160 -0.628100
O5    O     O_R   0.867700 0.025880 0.612340 -0.614704
O6    O     O_R   0.132300 0.974120 0.387660 -0.638578
O7    O     O_R   0.025880 0.612340 0.867700 -0.616117
O8    O     O_R   0.974120 0.387660 0.132300 -0.639513
O9    O     O_R   0.612340 0.867700 0.025880 -0.641171
O10   O     O_R   0.387660 0.132300 0.974120 -0.625697
O11   O     O_R   0.387660 0.974120 0.132300 -0.654964
O12   O     O_R   0.017060 0.861050 0.489840 -0.633899
O13   O     O_R   0.612340 0.025880 0.867700 -0.631021
O14   O     O_R   0.132300 0.387660 0.974120 -0.650721
O15   O     O_R   0.867700 0.612340 0.025880 -0.618502
O16   O     O_R   0.974120 0.132300 0.387660 -0.634103
O17   O     O_R   0.025880 0.867700 0.612340 -0.629909
O18   O     O_R   0.138950 0.510160 0.982940 -0.614575
O19   O     O_R   0.861050 0.489840 0.017060 -0.611024
O20   O     O_R   0.510160 0.982940 0.138950 -0.662025
O21   O     O_R   0.489840 0.017060 0.861050 -0.613092
O22   O     O_R   0.489840 0.861050 0.017060 -0.643712
O23   O     O_R   0.510160 0.138950 0.982940 -0.634911
O24   O     O_R   0.017060 0.489840 0.861050 -0.609752
Zn1   Zn    Zn3+2 0.004880 0.004880 0.583590 0.967775
Zn2   Zn    Zn3+2 0.995120 0.995120 0.416410 0.967008
Zn3   Zn    Zn3+2 0.004880 0.583590 0.004880 0.968310
Zn4   Zn    Zn3+2 0.995120 0.416410 0.995120 0.962818
Zn5   Zn    Zn3+2 0.583590 0.004880 0.004880 0.930202
Zn6   Zn    Zn3+2 0.416410 0.995120 0.995120 0.936782

loop_
_geom_bond_atom_site_label_1
_geom_bond_atom_site_label_2
_ccdc_geom_bond_type
C40   C47   A    
C15   C75   S    
O4    Zn1   S    
C19   O21   A    
C101  C102  S    
O10   Zn6   S    
C46   C52   A    
C48   C55   A    
C101  H9    S    
C48   C76   A    
C22   O23   A    
C9    H49   S    
C40   C93   A    
C46   C99   A    
C102  H5    S    
C8    H38   S    
C108  H22   S    
C72   C85   A    
C27   H1    S    
C100  H11   S    
O16   Zn2   S    
C7    C8    S    
C36   H54   S    
C66   C79   A    
C23   O24   A    
C45   C57   A    
C34   C67   A    
C3    C90   S    
C44   C96   A    
C50   C59   A    
C22   C82   S    
O11   Zn6   S    
O17   Zn1   S    
C23   O7    A    
C13   F4    S    
C27   C60   A    
C107  H25   S    
C25   O3    A    
C7    H39   S    
C106  C107  S    
C45   C51   A    
C35   C87   A    
C6    C91   S    
C29   H23   S    
O13   Zn5   S    
C60   C73   A    
C3    H33   S    
C101  H8    S    
C82   C92   A    
C104  H17   S    
C51   C56   A    
C14   C77   S    
C52   C98   A    
C17   C78   S    
C22   O10   A    
C69   C82   A    
C16   O18   A    
C43   C58   A    
C19   O13   A    
C29   C62   A    
C72   C95   A    
C17   O19   A    
C74   C88   A    
C6    H42   S    
C44   C58   A    
C10   H47   S    
O3    Zn2   S    
C54   F8    S    
C89   C106  S    
O24   Zn4   S    
C11   H46   S    
C107  C108  S    
O22   Zn6   S    
C86   C100  S    
C9    C10   S    
C33   C65   A    
C81   C86   A    
C70   C97   A    
C47   C53   A    
C43   F7    S    
C60   C93   A    
C18   C74   S    
C5    H28   S    
C30   C63   A    
C25   C81   S    
O12   Zn2   S    
C9    H50   S    
C84   C90   A    
C8    H37   S    
C31   C64   A    
C9    C92   S    
C11   H43   S    
C108  H21   S    
C33   C66   A    
C26   O4    A    
C4    H32   S    
C15   O12   A    
C77   C90   A    
C24   O8    A    
C42   C95   A    
C35   H53   S    
C31   H45   S    
C19   C73   S    
C18   O20   A    
C21   F5    S    
C102  H7    S    
C2    C51   A    
C103  H18   S    
C108  H20   S    
C85   C89   A    
C61   C94   A    
C1    F1    S    
O21   Zn6   S    
O15   Zn3   S    
C63   C96   A    
C76   F10   S    
O19   Zn4   S    
C5    H30   S    
C47   C87   A    
C66   C99   A    
C42   C59   A    
C32   F6    S    
C14   O1    A    
O6    Zn2   S    
C103  H19   S    
C67   C94   A    
C41   C94   A    
C6    H41   S    
O18   Zn3   S    
C40   C55   A    
C41   C53   A    
C3    H35   S    
C87   F11   S    
C70   C83   A    
O1    Zn1   S    
C79   C92   A    
C39   C72   A    
C11   H44   S    
C20   O9    A    
C13   C49   A    
C69   C99   A    
C64   C97   A    
C21   C28   A    
C16   O14   A    
C78   C91   A    
C30   C43   A    
C20   C83   S    
C68   C81   A    
C3    C4    S    
C33   H51   S    
C12   C38   A    
C88   C103  S    
C34   H52   S    
C36   C69   A    
C39   H4    S    
C105  H13   S    
C71   C84   A    
C63   C77   A    
C44   C50   A    
C4    H31   S    
C15   O17   A    
C38   C71   A    
C2    F2    S    
C104  H16   S    
C62   C95   A    
O8    Zn4   S    
C64   C78   A    
O2    Zn3   S    
O7    Zn3   S    
C67   C80   A    
C38   H3    S    
C4    C5    S    
C102  H6    S    
C104  C105  S    
C52   C57   A    
C12   C50   A    
C25   O5    A    
C98   F12   S    
C6    C7    S    
C71   C96   A    
C26   O6    A    
C61   C74   A    
C29   C32   A    
C83   C91   A    
C18   O11   A    
C68   C93   A    
C106  H26   S    
C105  H15   S    
C16   C79   S    
C17   O15   A    
C1    C55   A    
O9    Zn5   S    
C80   C88   A    
C45   C97   A    
C28   C61   A    
C21   C53   A    
C106  H27   S    
C2    C37   A    
O5    Zn1   S    
C35   C68   A    
O20   Zn5   S    
C5    H29   S    
O14   Zn4   S    
C100  C101  S    
C41   C48   A    
O23   Zn5   S    
C100  H10   S    
C31   C54   A    
C24   C84   S    
C8    H36   S    
C26   C80   S    
C73   C86   A    
C13   C39   A    
C10   C11   S    
C49   C58   A    
C42   C49   A    
C37   H2    S    
C14   O16   A    
C30   H34   S    
C10   H48   S    
C23   C85   S    
C75   C89   A    
C46   C56   A    
C103  C104  S    
C1    C27   A    
C65   F9    S    
C36   C98   A    
C32   C59   A    
C28   H12   S    
C107  H24   S    
C37   C70   A    
C20   O22   A    
C12   F3    S    
C7    H40   S    
C62   C75   A    
C56   C65   A    
C34   C76   A    
C105  H14   S    
C54   C57   A    
C24   O2    A    
