data_mof_unit_46575.cif
_audit_creation_date              2012-12-10T18:57:12-0500
_audit_creation_method            fapswitch 2.2
_symmetry_space_group_name_H-M    P1
_symmetry_Int_Tables_number       1
_space_group_crystal_system       triclinic
_cell_length_a                    8.72246
_cell_length_b                    10.821152
_cell_length_c                    9.556807
_cell_angle_alpha                 90.779998
_cell_angle_beta                  97.875
_cell_angle_gamma                 90.194633
_cell_volume                      893.436739543

loop_
_atom_site_label
_atom_site_type_symbol
_atom_type_description
_atom_site_fract_x
_atom_site_fract_y
_atom_site_fract_z
_atom_type_partial_charge
C1    C     C_R   0.498338 0.262676 0.498986 0.800652
C2    C     C_R   0.419386 0.933432 0.383378 -0.183232
C3    C     C_R   0.494661 0.871078 0.501490 -0.068737
C4    C     C_R   0.557202 0.939553 0.621087 0.038244
C5    C     C_3   0.715013 0.937490 0.708009 -0.314400
C6    C     C_3   0.713660 0.079336 0.703680 -0.106074
C7    C     C_R   0.614728 0.559370 0.089139 0.224782
C8    C     C_R   0.395827 0.431559 0.060290 -0.051061
C9    C     C_R   0.395720 0.431652 0.911449 -0.047958
C10   C     C_R   0.614890 0.558677 0.941645 0.260241
C11   C     C_3   0.653464 0.692448 0.941662 -0.562326
C12   C     C_R   0.203887 0.499236 0.463836 0.885269
C13   C     C_3   0.651328 0.694270 0.100300 -0.273608
C14   C     C_R   0.500968 0.737643 0.500823 0.811757
C15   C     C_R   0.796110 0.500038 0.536197 0.898180
C16   C     C_2   0.037998 0.497308 0.444069 -0.307920
C17   C     C_2   0.962026 0.500511 0.556145 -0.316435
C18   C     C_R   0.556709 0.067029 0.618550 0.042491
C19   C     C_R   0.492744 0.129722 0.498350 -0.083842
C20   C     C_R   0.418362 0.062506 0.381807 -0.175221
Cu1   Cu    Cu3+1 0.499990 0.499980 0.640670 0.964153
Cu2   Cu    Cu3+1 0.500010 0.500020 0.359330 0.964810
H1    H     H_    0.309450 0.378136 0.844142 0.142148
H2    H     H_    0.021870 0.503926 0.663707 0.167369
H3    H     H_    0.364252 0.882594 0.291538 0.159638
H4    H     H_    0.309713 0.377914 0.104423 0.137891
N1    N     N_R   0.500980 0.500930 0.148050 -0.199193
N2    N     N_R   0.500990 0.500890 0.852140 -0.187251
O1    O     O_R   0.500000 0.319640 0.618810 -0.582436
O2    O     O_R   0.500020 0.319680 0.381230 -0.580683
O3    O     O_R   0.274830 0.499980 0.591380 -0.582915
O4    O     O_R   0.274850 0.500020 0.353800 -0.590231
O5    O     O_R   0.499980 0.680320 0.618770 -0.582292
O6    O     O_R   0.500000 0.680360 0.381190 -0.594571
O7    O     O_R   0.725150 0.499980 0.646200 -0.587755
O8    O     O_R   0.725170 0.500020 0.408620 -0.574949
H5    H     H_    0.978130 0.493158 0.336581 0.176105
H6    H     H_    0.769333 0.707424 0.908303 0.195123
H7    H     H_    0.557675 0.747098 0.884402 0.216942
C21   C     C_1   0.803899 0.720021 0.181618 0.312413
N3    N     N_1   0.923991 0.740988 0.245290 -0.278861
H8    H     H_    0.556877 0.751431 0.133886 0.177328
H9    H     H_    0.362631 0.109395 0.289165 0.157406
H10   H     H_    0.712157 0.902030 0.815487 0.151478
C22   C     C_1   0.832775 0.875128 0.635090 0.279385
N4    N     N_1   0.925054 0.826157 0.578211 -0.267993
C23   C     C_1   0.705941 0.139108 0.841790 0.257406
N5    N     N_1   0.699756 0.186258 0.950297 -0.284913
C24   C     C_1   0.830156 0.138444 0.627227 0.256530
N6    N     N_1   0.921334 0.184603 0.567312 -0.292879

loop_
_geom_bond_atom_site_label_1
_geom_bond_atom_site_label_2
_ccdc_geom_bond_type
Cu1   O1    S    
C14   O6    A    
C7    C10   A    
C21   N3    T    
Cu1   O7    S    
C11   H6    S    
C11   C13   S    
C19   C20   A    
C16   H5    S    
C4    C18   A    
C14   O5    A    
C1    O1    A    
C2    C3    A    
C8    C9    A    
C12   O3    A    
C22   N4    T    
C12   O4    A    
C11   H7    S    
Cu1   O3    S    
C3    C14   S    
Cu2   O4    S    
C6    C18   S    
C4    C5    S    
C15   O7    A    
C1    O2    A    
Cu1   N2    S    
C18   C19   A    
C2    H3    S    
Cu2   N1    S    
C6    C24   S    
C5    C6    S    
Cu2   O6    S    
C1    C19   S    
C17   H2    S    
Cu1   O5    S    
C10   C11   S    
C8    H4    S    
C2    C20   A    
C3    C4    A    
C23   N5    T    
C15   O8    A    
C7    C13   S    
C20   H9    S    
C7    N1    A    
C24   N6    T    
C6    C23   S    
C10   N2    A    
C15   C17   S    
C8    N1    A    
C13   H8    S    
C13   C21   S    
C9    H1    S    
Cu2   O2    S    
Cu1   Cu2   S    
C5    C22   S    
C5    H10   S    
Cu2   O8    S    
C12   C16   S    
C9    N2    A    
C16   C17   D    
