data_mof_unit_7833.cif
_audit_creation_date              2012-12-11T15:06:48-0500
_audit_creation_method            fapswitch 2.2
_symmetry_space_group_name_H-M    P1
_symmetry_Int_Tables_number       1
_space_group_crystal_system       triclinic
_cell_length_a                    19.671729
_cell_length_b                    11.315982
_cell_length_c                    18.704865
_cell_angle_alpha                 90.000263
_cell_angle_beta                  89.939729
_cell_angle_gamma                 89.999953
_cell_volume                      4163.79288402

loop_
_atom_site_label
_atom_site_type_symbol
_atom_type_description
_atom_site_fract_x
_atom_site_fract_y
_atom_site_fract_z
_atom_type_partial_charge
C1    C     C_R   0.761377 0.523609 0.639187 0.540993
C2    C     C_R   0.238623 0.523610 0.360813 0.540992
C3    C     C_R   0.261377 0.023609 0.639187 0.540993
C4    C     C_R   0.738623 0.023610 0.360813 0.540992
C5    C     C_3   0.810726 0.130742 0.448862 -0.259048
C6    C     C_3   0.189273 0.130743 0.551140 -0.259037
C7    C     C_3   0.310726 0.630742 0.448862 -0.259048
C8    C     C_3   0.689273 0.630743 0.551140 -0.259037
C9    C     C_3   0.746982 0.056731 0.436768 0.065812
C10   C     C_3   0.253018 0.056731 0.563231 0.065812
C11   C     C_3   0.246982 0.556731 0.436768 0.065812
C12   C     C_3   0.753018 0.556731 0.563231 0.065812
C13   C     C_3   0.760236 0.090509 0.574217 0.065791
C14   C     C_3   0.239763 0.090511 0.425784 0.065788
C15   C     C_3   0.260236 0.590509 0.574217 0.065791
C16   C     C_3   0.739763 0.590511 0.425784 0.065788
C17   C     C_3   0.753626 0.958059 0.561964 -0.261393
C18   C     C_3   0.246373 0.958061 0.438034 -0.261390
C19   C     C_3   0.253626 0.458059 0.561964 -0.261393
C20   C     C_3   0.746373 0.458061 0.438034 -0.261390
C21   C     C_3   0.823116 0.133484 0.529804 -0.218110
C22   C     C_3   0.176882 0.133485 0.470197 -0.218110
C23   C     C_3   0.323116 0.633484 0.529804 -0.218110
C24   C     C_3   0.676883 0.633485 0.470197 -0.218110
C25   C     C_3   0.003857 0.204733 0.458984 -0.233434
C26   C     C_3   0.996138 0.204733 0.541013 -0.233435
C27   C     C_3   0.503857 0.704733 0.458984 -0.233434
C28   C     C_3   0.496138 0.704733 0.541013 -0.233435
C29   C     C_3   0.064516 0.405940 0.474181 -0.216126
C30   C     C_3   0.935484 0.405945 0.525819 -0.216127
C31   C     C_3   0.564515 0.905940 0.474181 -0.216126
C32   C     C_3   0.435484 0.905945 0.525819 -0.216127
C33   C     C_3   0.941569 0.390330 0.444719 -0.260754
C34   C     C_3   0.058431 0.390322 0.555281 -0.260756
C35   C     C_3   0.441569 0.890330 0.444719 -0.260754
C36   C     C_3   0.558431 0.890322 0.555281 -0.260756
C37   C     C_3   0.010442 0.333107 0.430918 0.063333
C38   C     C_3   0.989557 0.333106 0.569080 0.063331
C39   C     C_3   0.510442 0.833107 0.430918 0.063333
C40   C     C_3   0.489557 0.833106 0.569080 0.063331
C41   C     C_3   0.819701 0.028949 0.047016 -0.235026
C42   C     C_3   0.180299 0.028947 0.952985 -0.235024
C43   C     C_3   0.319701 0.528949 0.047016 -0.235026
C44   C     C_3   0.680299 0.528947 0.952985 -0.235024
C45   C     C_R   0.774207 0.121055 0.649487 0.541338
C46   C     C_R   0.225792 0.121057 0.350514 0.541338
C47   C     C_R   0.274207 0.621055 0.649487 0.541338
C48   C     C_R   0.725792 0.621057 0.350514 0.541338
C49   C     C_3   0.818836 0.023700 0.966379 -0.242769
C50   C     C_3   0.181164 0.023696 0.033621 -0.242769
C51   C     C_3   0.318836 0.523700 0.966379 -0.242769
C52   C     C_3   0.681164 0.523696 0.033621 -0.242769
C53   C     C_3   0.691509 0.016316 0.032543 -0.225766
C54   C     C_3   0.308492 0.016316 0.967456 -0.225762
C55   C     C_3   0.191509 0.516316 0.032543 -0.225766
C56   C     C_3   0.808492 0.516316 0.967456 -0.225762
C57   C     C_3   0.742993 0.203906 0.061181 -0.253627
C58   C     C_3   0.257006 0.203905 0.938822 -0.253629
C59   C     C_3   0.242993 0.703906 0.061181 -0.253627
C60   C     C_3   0.757006 0.703905 0.938822 -0.253629
C61   C     C_3   0.749171 0.072854 0.075944 0.059768
C62   C     C_3   0.250829 0.072853 0.924056 0.059769
C63   C     C_3   0.249171 0.572854 0.075944 0.059768
C64   C     C_3   0.750829 0.572853 0.924056 0.059769
C65   C     C_3   0.760856 0.104550 0.936503 0.044470
C66   C     C_3   0.239144 0.104545 0.063497 0.044471
C67   C     C_3   0.260856 0.604550 0.936503 0.044470
C68   C     C_3   0.739144 0.604545 0.063497 0.044471
C69   C     C_3   0.694310 0.041640 0.951074 -0.244214
C70   C     C_3   0.305690 0.041634 0.048925 -0.244213
C71   C     C_3   0.194310 0.541640 0.951074 -0.244214
C72   C     C_3   0.805690 0.541634 0.048925 -0.244213
C73   C     C_3   0.757471 0.220723 0.980373 -0.234468
C74   C     C_3   0.242528 0.220720 0.019630 -0.234461
C75   C     C_3   0.257471 0.720723 0.980373 -0.234468
C76   C     C_3   0.742528 0.720720 0.019630 -0.234461
C77   C     C_3   0.998918 0.480115 0.040652 -0.257252
C78   C     C_3   0.001085 0.480115 0.959347 -0.257252
C79   C     C_3   0.498917 0.980115 0.040652 -0.257252
C80   C     C_3   0.501085 0.980115 0.959347 -0.257252
C81   C     C_3   0.068807 0.293885 0.023898 -0.266405
C82   C     C_3   0.931194 0.293887 0.976101 -0.266414
C83   C     C_3   0.568807 0.793885 0.023898 -0.266405
C84   C     C_3   0.431194 0.793887 0.976101 -0.266414
C85   C     C_3   0.949597 0.276978 0.055570 0.198437
C86   C     C_3   0.050403 0.276978 0.944428 0.198441
C87   C     C_3   0.449597 0.776978 0.055570 0.198437
C88   C     C_3   0.550403 0.776978 0.944428 0.198441
C89   C     C_R   0.969201 0.342148 0.645053 0.546496
C90   C     C_R   0.030798 0.342148 0.354946 0.546497
C91   C     C_R   0.469201 0.842148 0.645053 0.546496
C92   C     C_R   0.530798 0.842148 0.354946 0.546497
C93   C     C_3   0.012047 0.351811 0.069039 0.056724
C94   C     C_3   0.987955 0.351812 0.930960 0.056725
C95   C     C_3   0.512047 0.851811 0.069039 0.056724
C96   C     C_3   0.487955 0.851812 0.930960 0.056725
C97   C     C_R   0.759758 0.535987 0.847814 0.546092
C98   C     C_R   0.240242 0.535986 0.152185 0.546092
C99   C     C_R   0.259758 0.035986 0.847814 0.546092
C100  C     C_R   0.740242 0.035986 0.152185 0.546092
C101  C     C_R   0.774401 0.132936 0.859100 0.539506
C102  C     C_R   0.225600 0.132934 0.140900 0.539505
C103  C     C_R   0.274401 0.632936 0.859100 0.539506
C104  C     C_R   0.725600 0.632933 0.140900 0.539505
C105  C     C_R   0.966612 0.353596 0.854799 0.607644
C106  C     C_R   0.033389 0.353596 0.145200 0.607644
C107  C     C_R   0.466612 0.853596 0.854799 0.607644
C108  C     C_R   0.533389 0.853596 0.145200 0.607644
C109  C     C_3   0.687330 0.132165 0.465514 -0.235352
C110  C     C_3   0.312671 0.132164 0.534487 -0.235347
C111  C     C_3   0.187330 0.632165 0.465514 -0.235352
C112  C     C_3   0.812670 0.632164 0.534487 -0.235347
C113  C     C_3   0.692688 0.145133 0.546706 -0.231117
C114  C     C_3   0.307311 0.145136 0.453295 -0.231115
C115  C     C_3   0.192688 0.645133 0.546706 -0.231117
C116  C     C_3   0.807311 0.645136 0.453295 -0.231115
C117  C     C_3   0.756463 0.939183 0.480612 -0.219120
C118  C     C_3   0.243538 0.939182 0.519387 -0.219126
C119  C     C_3   0.256462 0.439183 0.480612 -0.219120
C120  C     C_3   0.743538 0.439182 0.519387 -0.219126
Cr1   Cr    Cr6+3 0.885690 0.492860 0.745310 0.999382
Cr2   Cr    Cr6+3 0.114310 0.492860 0.254690 0.999382
Cr3   Cr    Cr6+3 0.385690 0.992860 0.745310 0.999382
Cr4   Cr    Cr6+3 0.614310 0.992860 0.254690 0.999382
Cr5   Cr    Cr6+3 0.729880 0.332270 0.748190 1.001076
Cr6   Cr    Cr6+3 0.270120 0.332270 0.251810 1.001077
Cr7   Cr    Cr6+3 0.229880 0.832270 0.748190 1.001076
Cr8   Cr    Cr6+3 0.770120 0.832270 0.251810 1.001077
Cr9   Cr    Cr6+3 0.888120 0.178590 0.753010 1.003654
Cr10  Cr    Cr6+3 0.111880 0.178590 0.246990 1.003654
Cr11  Cr    Cr6+3 0.388120 0.678590 0.753010 1.003654
Cr12  Cr    Cr6+3 0.611880 0.678590 0.246990 1.003654
H1    H     H_    0.638391 0.095624 0.450696 0.130840
H2    H     H_    0.361610 0.095614 0.549303 0.130838
H3    H     H_    0.138391 0.595624 0.450696 0.130840
H4    H     H_    0.861610 0.595614 0.549303 0.130838
H5    H     H_    0.863733 0.067879 0.539958 0.126197
H6    H     H_    0.136265 0.067881 0.460042 0.126197
H7    H     H_    0.363733 0.567879 0.539958 0.126197
H8    H     H_    0.636265 0.567881 0.460042 0.126197
H9    H     H_    0.808882 0.908907 0.469454 0.125898
H10   H     H_    0.191120 0.908902 0.530546 0.125900
H11   H     H_    0.308882 0.408907 0.469454 0.125898
H12   H     H_    0.691120 0.408902 0.530546 0.125900
H13   H     H_    0.795845 0.910127 0.588674 0.121833
H14   H     H_    0.204153 0.910130 0.411325 0.121837
H15   H     H_    0.295845 0.410127 0.588674 0.121833
H16   H     H_    0.704153 0.410130 0.411325 0.121837
H17   H     H_    0.046412 0.150497 0.442091 0.130615
H18   H     H_    0.953581 0.150501 0.557906 0.130614
H19   H     H_    0.546412 0.650497 0.442091 0.130615
H20   H     H_    0.453581 0.650501 0.557906 0.130614
H21   H     H_    0.959333 0.161019 0.434423 0.109351
H22   H     H_    0.040660 0.161014 0.565573 0.109350
H23   H     H_    0.459333 0.661019 0.434423 0.109351
H24   H     H_    0.540660 0.661014 0.565573 0.109350
H25   H     H_    0.616360 0.891069 0.455405 0.111189
H26   H     H_    0.383639 0.891080 0.544594 0.111187
H27   H     H_    0.116360 0.391069 0.455405 0.111189
H28   H     H_    0.883639 0.391080 0.544594 0.111187
H29   H     H_    0.600198 0.834880 0.576345 0.108479
H30   H     H_    0.399800 0.834896 0.423652 0.108477
H31   H     H_    0.100198 0.334881 0.576345 0.108479
H32   H     H_    0.899800 0.334895 0.423652 0.108477
H33   H     H_    0.938300 0.477500 0.417705 0.124207
H34   H     H_    0.061704 0.477490 0.582297 0.124207
H35   H     H_    0.438300 0.977500 0.417705 0.124207
H36   H     H_    0.561704 0.977490 0.582297 0.124207
H37   H     H_    0.835901 0.940538 0.065584 0.134920
H38   H     H_    0.164100 0.940536 0.934416 0.134921
H39   H     H_    0.335900 0.440538 0.065584 0.134920
H40   H     H_    0.664099 0.440536 0.934416 0.134921
H41   H     H_    0.687714 0.220598 0.440246 0.108018
H42   H     H_    0.312290 0.220598 0.559759 0.108018
H43   H     H_    0.187714 0.720598 0.440246 0.108018
H44   H     H_    0.812290 0.720598 0.559759 0.108018
H45   H     H_    0.859778 0.090142 0.065578 0.163481
H46   H     H_    0.140222 0.090140 0.934423 0.163477
H47   H     H_    0.359777 0.590142 0.065578 0.163481
H48   H     H_    0.640222 0.590140 0.934423 0.163477
H49   H     H_    0.870710 0.043738 0.947619 0.135052
H50   H     H_    0.129290 0.043733 0.052382 0.135053
H51   H     H_    0.370710 0.543738 0.947619 0.135052
H52   H     H_    0.629290 0.543733 0.052382 0.135053
H53   H     H_    0.809962 0.931739 0.948515 0.117548
H54   H     H_    0.190039 0.931735 0.051485 0.117545
H55   H     H_    0.309962 0.431739 0.948515 0.117548
H56   H     H_    0.690039 0.431735 0.051485 0.117545
H57   H     H_    0.700117 0.924985 0.042567 0.107456
H58   H     H_    0.299888 0.924985 0.957426 0.107452
H59   H     H_    0.200117 0.424985 0.042567 0.107456
H60   H     H_    0.799888 0.424985 0.957426 0.107452
H61   H     H_    0.691311 0.958558 0.919956 0.187177
H62   H     H_    0.308688 0.958549 0.080041 0.187178
H63   H     H_    0.191311 0.458558 0.919956 0.187177
H64   H     H_    0.808688 0.458549 0.080041 0.187178
H65   H     H_    0.690873 0.235029 0.074576 0.110470
H66   H     H_    0.309126 0.235030 0.925427 0.110467
H67   H     H_    0.190873 0.735029 0.074576 0.110470
H68   H     H_    0.809126 0.735030 0.925427 0.110467
H69   H     H_    0.779036 0.254802 0.094586 0.190826
H70   H     H_    0.220961 0.254802 0.905418 0.190832
H71   H     H_    0.279036 0.754802 0.094586 0.190826
H72   H     H_    0.720961 0.754802 0.905418 0.190832
H73   H     H_    0.807986 0.253241 0.977135 0.135716
H74   H     H_    0.192013 0.253237 0.022871 0.135709
H75   H     H_    0.307986 0.753241 0.977135 0.135716
H76   H     H_    0.692013 0.753237 0.022871 0.135709
H77   H     H_    0.720190 0.282081 0.956917 0.124840
H78   H     H_    0.279811 0.282077 0.043086 0.124841
H79   H     H_    0.220190 0.782081 0.956917 0.124840
H80   H     H_    0.779811 0.782077 0.043086 0.124841
H81   H     H_    0.641820 0.043747 0.053874 0.128091
H82   H     H_    0.358181 0.043753 0.946126 0.128091
H83   H     H_    0.141820 0.543747 0.053874 0.128091
H84   H     H_    0.858181 0.543753 0.946126 0.128092
H85   H     H_    0.687424 0.237309 0.562293 0.138114
H86   H     H_    0.312574 0.237313 0.437711 0.138110
H87   H     H_    0.187424 0.737309 0.562293 0.138114
H88   H     H_    0.812574 0.737313 0.437711 0.138110
H89   H     H_    0.651451 0.099664 0.934925 0.124667
H90   H     H_    0.348550 0.099656 0.065077 0.124668
H91   H     H_    0.151451 0.599664 0.934925 0.124667
H92   H     H_    0.848550 0.599656 0.065077 0.124668
H93   H     H_    0.035110 0.547427 0.059900 0.124187
H94   H     H_    0.964893 0.547428 0.940101 0.124187
H95   H     H_    0.535110 0.047427 0.059900 0.124187
H96   H     H_    0.464893 0.047428 0.940101 0.124187
H97   H     H_    0.948607 0.510530 0.059519 0.171394
H98   H     H_    0.051397 0.510529 0.940481 0.171396
H99   H     H_    0.448607 0.010530 0.059519 0.171394
H100  H     H_    0.551397 0.010529 0.940481 0.171396
H101  H     H_    0.608403 0.857146 0.025186 0.143902
H102  H     H_    0.391600 0.857148 0.974815 0.143908
H103  H     H_    0.108403 0.357146 0.025186 0.143902
H104  H     H_    0.891600 0.357148 0.974815 0.143908
H105  H     H_    0.961258 0.182432 0.066387 0.117537
H106  H     H_    0.038742 0.182432 0.933610 0.117538
H107  H     H_    0.461258 0.682432 0.066387 0.117537
H108  H     H_    0.538743 0.682432 0.933610 0.117538
H109  H     H_    0.915617 0.209523 0.952515 0.091394
H110  H     H_    0.084384 0.209518 0.047482 0.091390
H111  H     H_    0.415617 0.709523 0.952515 0.091394
H112  H     H_    0.584384 0.709518 0.047482 0.091390
H113  H     H_    0.648815 0.101268 0.572645 0.108898
H114  H     H_    0.351185 0.101274 0.427354 0.108899
H115  H     H_    0.148815 0.601268 0.572645 0.108898
H116  H     H_    0.851185 0.601274 0.427354 0.108899
H117  H     H_    0.722036 0.868997 0.463860 0.108614
H118  H     H_    0.277970 0.869002 0.536135 0.108612
H119  H     H_    0.222036 0.368997 0.463860 0.108614
H120  H     H_    0.777969 0.369002 0.536135 0.108612
H121  H     H_    0.705428 0.924061 0.584721 0.108156
H122  H     H_    0.294572 0.924063 0.415276 0.108154
H123  H     H_    0.205428 0.424061 0.584721 0.108156
H124  H     H_    0.794572 0.424063 0.415276 0.108154
H125  H     H_    0.854964 0.090555 0.421116 0.125818
H126  H     H_    0.145033 0.090554 0.578886 0.125818
H127  H     H_    0.354964 0.590555 0.421116 0.125818
H128  H     H_    0.645033 0.590554 0.578886 0.125818
H129  H     H_    0.804155 0.221113 0.427318 0.107111
H130  H     H_    0.195846 0.221117 0.572685 0.107108
H131  H     H_    0.304155 0.721113 0.427318 0.107111
H132  H     H_    0.695846 0.721117 0.572685 0.107108
H133  H     H_    0.841890 0.219480 0.547514 0.111554
H134  H     H_    0.158109 0.219482 0.452489 0.111551
H135  H     H_    0.341890 0.719480 0.547514 0.111554
H136  H     H_    0.658109 0.719482 0.452489 0.111551
O1    O     O_R   0.957210 0.449410 0.665480 -0.530554
O2    O     O_R   0.042790 0.449410 0.334520 -0.530554
O3    O     O_R   0.457210 0.949410 0.665480 -0.530554
O4    O     O_R   0.542790 0.949410 0.334520 -0.530554
O5    O     O_R   0.736260 0.212010 0.826560 -0.507211
O6    O     O_R   0.263740 0.212010 0.173440 -0.507211
O7    O     O_R   0.236260 0.712010 0.826560 -0.507211
O8    O     O_R   0.763740 0.712010 0.173440 -0.507211
O9    O     O_R   0.832520 0.095300 0.836000 -0.533103
O10   O     O_R   0.167480 0.095300 0.164000 -0.533103
O11   O     O_R   0.332520 0.595300 0.836000 -0.533103
O12   O     O_R   0.667480 0.595300 0.164000 -0.533103
O13   O     O_R   0.946380 0.253940 0.826940 -0.512455
O14   O     O_R   0.053620 0.253940 0.173060 -0.512452
O15   O     O_R   0.446380 0.753940 0.826940 -0.512455
O16   O     O_R   0.553620 0.753940 0.173060 -0.512452
O17   O     O_3   0.834560 0.334570 0.748840 -0.283145
O18   O     O_3   0.165440 0.334570 0.251160 -0.283145
O19   O     O_3   0.334560 0.834570 0.748840 -0.283145
O20   O     O_3   0.665440 0.834570 0.251160 -0.283145
O21   O     O_R   0.820730 0.541240 0.668250 -0.515585
O22   O     O_R   0.179270 0.541240 0.331750 -0.515584
O23   O     O_R   0.320730 0.041240 0.668250 -0.515585
O24   O     O_R   0.679270 0.041240 0.331750 -0.515584
O25   O     O_R   0.714240 0.455060 0.663710 -0.530325
O26   O     O_R   0.285760 0.455060 0.336290 -0.530324
O27   O     O_R   0.214240 0.955060 0.663710 -0.530325
O28   O     O_R   0.785760 0.955060 0.336290 -0.530324
O29   O     O_R   0.736780 0.204870 0.675910 -0.513902
O30   O     O_R   0.263220 0.204870 0.324090 -0.513902
O31   O     O_R   0.236780 0.704870 0.675910 -0.513902
O32   O     O_R   0.763220 0.704870 0.324090 -0.513902
O33   O     O_R   0.833070 0.087590 0.673490 -0.529484
O34   O     O_R   0.166930 0.087590 0.326510 -0.529485
O35   O     O_R   0.333070 0.587590 0.673490 -0.529484
O36   O     O_R   0.666930 0.587590 0.326510 -0.529485
O37   O     O_R   0.946890 0.246800 0.676300 -0.508977
O38   O     O_R   0.053110 0.246800 0.323700 -0.508977
O39   O     O_R   0.446890 0.746800 0.676300 -0.508977
O40   O     O_R   0.553110 0.746800 0.323700 -0.508977
O41   O     O_R   0.956650 0.457120 0.827980 -0.525471
O42   O     O_R   0.043350 0.457120 0.172020 -0.525472
O43   O     O_R   0.456650 0.957120 0.827980 -0.525471
O44   O     O_R   0.543350 0.957120 0.172020 -0.525472
O45   O     O_R   0.820220 0.548390 0.818890 -0.515512
O46   O     O_R   0.179780 0.548390 0.181110 -0.515513
O47   O     O_R   0.320220 0.048390 0.818890 -0.515512
O48   O     O_R   0.679780 0.048390 0.181110 -0.515513
O49   O     O_R   0.713680 0.462770 0.826210 -0.525784
O50   O     O_R   0.286320 0.462770 0.173790 -0.525784
O51   O     O_R   0.213680 0.962770 0.826210 -0.525784
O52   O     O_R   0.786320 0.962770 0.173790 -0.525784
H137  H     H_    0.947722 0.499927 0.536086 0.130032
H138  H     H_    0.052283 0.499924 0.463915 0.130029
H139  H     H_    0.447722 0.999927 0.536086 0.130032
H140  H     H_    0.552283 0.999924 0.463915 0.130029
F1    F     F_    0.602969 0.811258 0.899955 -0.698609
F2    F     F_    0.397032 0.811258 0.100043 -0.698610
F3    F     F_    0.102969 0.311258 0.899955 -0.698609
F4    F     F_    0.897032 0.311258 0.100043 -0.698610

loop_
_geom_bond_atom_site_label_1
_geom_bond_atom_site_label_2
_ccdc_geom_bond_type
C78   H94   S    
C82   C94   S    
C119  H11   S    
C10   C110  S    
C7    H127  S    
C120  H12   S    
C41   C61   S    
C53   C69   S    
C104  O12   A    
C56   H60   S    
C120  H120  S    
C43   C63   S    
Cr5   O5    S    
C44   C64   S    
C32   H139  S    
C114  H86   S    
C63   C98   S    
C51   H51   S    
C109  H41   S    
C28   C40   S    
C72   H92   S    
C36   H36   S    
C30   C38   S    
Cr8   O28   S    
C79   H95   S    
C42   H38   S    
C87   F2    S    
C75   H75   S    
C56   C72   S    
C105  O13   A    
C21   H5    S    
C8    H132  S    
C18   C118  S    
C81   C86   S    
C108  O16   A    
C83   C88   S    
C48   O36   A    
C5    H129  S    
C90   O2    A    
C41   C49   S    
Cr8   O32   S    
Cr5   O17   S    
Cr2   O46   S    
C30   H137  S    
C109  H1    S    
Cr7   O19   S    
Cr8   O20   S    
C118  H118  S    
C26   C38   S    
Cr10  O38   S    
C14   C114  S    
C41   H37   S    
C83   H112  S    
C60   C76   S    
C24   H8    S    
C55   H59   S    
C81   H110  S    
Cr11  O35   S    
C44   H40   S    
C47   O31   A    
C22   H134  S    
C54   C70   S    
C68   C72   S    
Cr9   O33   S    
C88   H108  S    
C69   H61   S    
C13   C21   S    
C98   O46   A    
C102  O6    A    
C99   O51   A    
C79   H99   S    
C31   H25   S    
C19   H123  S    
C64   C97   S    
C17   H13   S    
C15   C115  S    
C20   C120  S    
Cr7   O27   S    
C54   H82   S    
C57   H65   S    
C59   C63   S    
C52   H52   S    
Cr7   O7    S    
Cr4   O24   S    
C72   H64   S    
C57   C61   S    
C82   C85   S    
C77   H97   S    
C60   C64   S    
Cr9   O17   S    
C13   C45   S    
C66   C70   S    
C78   C94   S    
C113  H113  S    
C23   H135  S    
C86   H106  S    
C69   H89   S    
C31   H140  S    
C95   C108  S    
C60   H68   S    
C62   C99   S    
C5    C21   S    
C58   H70   S    
C31   C36   S    
C75   H79   S    
C97   O49   A    
C48   O32   A    
C55   C71   S    
C76   H76   S    
Cr6   O26   S    
C91   O39   A    
Cr2   O22   S    
C65   C101  S    
Cr10  O18   S    
C43   C51   S    
Cr11  O15   S    
C67   C103  S    
C18   H122  S    
C37   C90   S    
C41   H45   S    
C42   H46   S    
C55   H83   S    
C66   C74   S    
C25   H17   S    
C57   C73   S    
C105  O41   A    
C53   C61   S    
C60   H72   S    
C83   H101  S    
C107  O43   A    
C87   C95   S    
Cr5   O49   S    
C56   C64   S    
C7    H131  S    
C45   O33   A    
C116  H88   S    
C104  O8    A    
C85   H105  S    
C76   H80   S    
Cr6   O6    S    
C50   H50   S    
C1    C12   S    
Cr9   O37   S    
C80   H100  S    
C2    C11   S    
C110  H42   S    
Cr12  O12   S    
C87   H107  S    
C112  H4    S    
C43   H39   S    
C25   C26   S    
C106  O14   A    
C8    H128  S    
C84   H102  S    
C5    C9    S    
C119  H119  S    
C93   C106  S    
C71   H63   S    
C8    C12   S    
C5    H125  S    
C6    H130  S    
C51   C67   S    
C42   C50   S    
C49   H49   S    
C112  H44   S    
Cr6   O18   S    
Cr3   O47   S    
C110  H2    S    
C61   C100  S    
C67   C75   S    
C50   H54   S    
Cr1   O1    S    
C112  C116  S    
C58   C74   S    
Cr3   O3    S    
C73   H73   S    
Cr4   O4    S    
C53   H81   S    
C54   H58   S    
C33   H33   S    
C68   C76   S    
C13   C17   S    
C98   O50   A    
C2    O22   A    
C99   O47   A    
C103  O7    A    
C20   H16   S    
C7    C23   S    
C8    C24   S    
C40   C91   S    
C56   H84   S    
Cr7   O31   S    
C49   H53   S    
Cr1   O41   S    
C57   H69   S    
Cr3   O43   S    
C52   H56   S    
C4    C9    S    
C53   H57   S    
C24   H136  S    
C58   C62   S    
C88   C96   S    
C94   C105  S    
C77   H93   S    
C82   H104  S    
C12   C112  S    
C44   H48   S    
C14   C46   S    
C77   C78   S    
C15   C19   S    
C43   H47   S    
C101  O9    A    
C101  O5    A    
C92   O4    A    
C108  O44   A    
C6    C22   S    
C2    O26   A    
Cr11  O39   S    
C21   H133  S    
Cr7   O51   S    
C116  H116  S    
Cr8   O52   S    
C15   C47   S    
Cr3   O23   S    
C85   F4    S    
Cr11  O11   S    
C17   C117  S    
C42   C62   S    
C19   C119  S    
Cr10  O34   S    
C9    C109  S    
Cr12  O40   S    
C16   C116  S    
C100  O48   A    
C20   H124  S    
C115  H115  S    
C27   H23   S    
C117  H9    S    
C25   H21   S    
C29   H138  S    
C26   H18   S    
C117  H117  S    
C106  O42   A    
C54   C62   S    
C18   H14   S    
C11   C111  S    
C29   C34   S    
C33   C37   S    
C82   H109  S    
C45   O29   A    
C30   H28   S    
C4    O24   A    
C79   C95   S    
C89   O37   A    
Cr5   O29   S    
C70   H62   S    
Cr1   O17   S    
C80   H96   S    
Cr3   O19   S    
Cr4   O20   S    
Cr12  O16   S    
C96   C107  S    
C89   O1    A    
C39   C92   S    
C73   H77   S    
C27   H19   S    
C14   C18   S    
C107  O15   A    
C68   C104  S    
C6    C10   S    
C1    O25   A    
C78   H98   S    
C92   O40   A    
C22   H6    S    
C6    H126  S    
C103  O11   A    
C14   C22   S    
C114  H114  S    
C65   C69   S    
C77   C93   S    
C70   H90   S    
Cr4   O44   S    
C84   H111  S    
C67   C71   S    
C111  H3    S    
C19   H15   S    
C51   H55   S    
Cr2   O2    S    
C3    O27   A    
C59   H71   S    
Cr12  O36   S    
C29   C37   S    
C34   H34   S    
C46   O30   A    
C9    C117  S    
C66   C102  S    
C35   C39   S    
C84   C87   S    
C3    O23   A    
C86   F3    S    
C11   C119  S    
C16   C48   S    
C29   H27   S    
Cr12  O20   S    
C7    C11   S    
C38   C89   S    
C17   H121  S    
C49   C65   S    
C74   H78   S    
C111  H43   S    
C23   H7    S    
C91   O3    A    
Cr1   O45   S    
Cr2   O42   S    
C65   C73   S    
C84   C96   S    
Cr4   O48   S    
Cr8   O8    S    
C86   C94   S    
C25   C37   S    
C12   C120  S    
C59   H67   S    
C35   H35   S    
Cr9   O9    S    
C80   C96   S    
C52   C68   S    
C16   C20   S    
C15   C23   S    
C16   C24   S    
C97   O45   A    
C115  H87   S    
C85   C93   S    
C102  O10   A    
C113  H85   S    
C32   H26   S    
C35   H30   S    
C71   H91   S    
C1    O21   A    
C32   C35   S    
C36   C40   S    
C33   H32   S    
C34   H31   S    
C27   C39   S    
Cr6   O50   S    
C55   C63   S    
Cr10  O10   S    
C46   O34   A    
C10   C118  S    
C81   C93   S    
C83   C95   S    
C81   H103  S    
Cr9   O13   S    
C50   C66   S    
C100  O52   A    
C28   H20   S    
C26   H22   S    
C59   C75   S    
C74   H74   S    
C110  C114  S    
C58   H66   S    
C30   C33   S    
C34   C38   S    
C47   O35   A    
C4    O28   A    
C118  H10   S    
C88   F1    S    
Cr5   O25   S    
C90   O38   A    
Cr6   O30   S    
C109  C113  S    
Cr1   O21   S    
Cr2   O18   S    
Cr10  O14   S    
C3    C10   S    
Cr11  O19   S    
C44   C52   S    
C36   H29   S    
C31   C39   S    
C32   C40   S    
C79   C80   S    
C27   C28   S    
C28   H24   S    
C111  C115  S    
C13   C113  S    
