data_mof_unit_31795.cif
_audit_creation_date              2013-03-05T16:07:35-0500
_audit_creation_method            fapswitch 2.2
_symmetry_space_group_name_H-M    P1
_symmetry_Int_Tables_number       1
_space_group_crystal_system       triclinic
_cell_length_a                    21.601769
_cell_length_b                    7.081154
_cell_length_c                    14.858219
_cell_angle_alpha                 89.994394
_cell_angle_beta                  106.390538
_cell_angle_gamma                 89.999252
_cell_volume                      2180.4291677

loop_
_atom_site_label
_atom_site_type_symbol
_atom_site_description
_atom_site_fract_x
_atom_site_fract_y
_atom_site_fract_z
_atom_type_partial_charge
O1    O     O_R   0.585850 0.505770 0.002130 -0.603150
O2    O     O_R   0.414150 0.005770 0.997870 -0.603109
O3    O     O_R   0.467530 0.173560 0.861970 -0.569952
O4    O     O_R   0.532470 0.673560 0.138030 -0.569939
C1    C     C_R   0.454367 0.343911 0.825499 0.931767
C2    C     C_R   0.545631 0.843895 0.174504 0.931820
O5    O     O_R   0.588690 0.175900 0.993250 -0.569520
O6    O     O_R   0.411310 0.675900 0.006750 -0.569520
O7    O     O_R   0.536170 0.007950 0.130090 -0.596527
O8    O     O_R   0.463830 0.507950 0.869910 -0.596581
C3    C     C_R   0.614946 0.344520 0.997324 0.960226
C4    C     C_R   0.385047 0.844524 0.002646 0.960180
O9    O     O_3   0.482630 0.339970 0.044740 -0.253857
O10   O     O_3   0.517370 0.839970 0.955260 -0.253935
V1    V     V_3+5 0.503220 0.064200 0.991700 1.251407
V2    V     V_3+5 0.496780 0.564200 0.008300 1.251417
C5    C     C_R   0.293303 0.000334 0.048247 0.094351
C6    C     C_R   0.706724 0.500622 0.951871 0.094388
C7    C     C_R   0.317113 0.851319 0.005674 -0.233350
C8    C     C_R   0.682866 0.351283 0.994224 -0.233365
C9    C     C_R   0.274021 0.702092 0.969000 -0.033900
C10   C     C_R   0.725914 0.201731 0.030620 -0.033568
H1    H     H_    0.290251 0.580679 0.937751 0.140366
H2    H     H_    0.709658 0.080046 0.061667 0.140179
C11   C     C_R   0.208331 0.713797 0.966667 -0.123103
C12   C     C_R   0.791605 0.213422 0.032956 -0.123207
H3    H     H_    0.176208 0.599860 0.934892 0.152353
H4    H     H_    0.823686 0.099184 0.064509 0.152278
C13   C     C_R   0.183706 0.876271 0.999610 -0.194392
C14   C     C_R   0.816290 0.376250 0.000342 -0.194454
C15   C     C_R   0.228322 0.013829 0.043473 0.176841
C16   C     C_R   0.771704 0.514164 0.956722 0.177231
C17   C     C_3   0.227585 0.223203 0.033767 -0.582514
C18   C     C_3   0.772468 0.723494 0.966649 -0.583093
C19   C     C_3   0.299649 0.209724 0.042729 0.189765
C20   C     C_3   0.700367 0.709982 0.957495 0.189602
H5    H     H_    0.215708 0.294874 0.093163 0.240926
H6    H     H_    0.784436 0.795518 0.907400 0.240983
H7    H     H_    0.198457 0.269215 0.963001 0.212794
H8    H     H_    0.801533 0.769099 0.037523 0.212993
H9    H     H_    0.313471 0.258386 0.979895 0.103352
H10   H     H_    0.686441 0.758417 0.020279 0.103265
C21   C     C_R   0.929195 0.882396 0.722529 -0.188746
C22   C     C_R   0.070793 0.382355 0.277473 -0.188728
C23   C     C_R   0.575249 0.845637 0.275823 -0.126225
C24   C     C_R   0.424741 0.345689 0.724187 -0.126199
C25   C     C_R   0.947159 0.838426 0.569971 0.315090
C26   C     C_R   0.052821 0.338412 0.430032 0.315097
C27   C     C_R   0.970834 0.849360 0.667466 -0.218611
C28   C     C_R   0.029150 0.349300 0.332532 -0.218576
C29   C     C_R   0.862698 0.901663 0.680168 0.098679
C30   C     C_R   0.137285 0.401690 0.319845 0.098596
C31   C     C_R   0.836795 0.853795 0.583897 0.031357
C32   C     C_R   0.163187 0.353830 0.416119 0.031398
C33   C     C_R   0.879620 0.838803 0.527288 0.016206
C34   C     C_R   0.120359 0.338835 0.472723 0.016228
C35   C     C_R   0.769907 0.819865 0.542521 0.045574
C36   C     C_R   0.230076 0.319924 0.457500 0.045644
C37   C     C_R   0.743510 0.821137 0.443062 -0.110408
C38   C     C_R   0.256472 0.321197 0.556958 -0.110415
C39   C     C_R   0.787419 0.810432 0.387200 0.342045
C40   C     C_R   0.212561 0.310564 0.612815 0.342129
C41   C     C_R   0.854117 0.819064 0.430049 -0.215487
C42   C     C_R   0.145862 0.319162 0.569965 -0.215480
C43   C     C_R   0.730238 0.761483 0.597965 -0.070666
C44   C     C_R   0.269749 0.261586 0.402061 -0.070744
C45   C     C_R   0.664406 0.737526 0.559845 -0.172010
C46   C     C_R   0.335581 0.237671 0.440184 -0.172033
C47   C     C_R   0.635730 0.773907 0.465278 0.136394
C48   C     C_R   0.364255 0.274038 0.534745 0.136410
C49   C     C_R   0.674489 0.820984 0.405420 0.143963
C50   C     C_R   0.325494 0.321031 0.594604 0.143920
C51   C     C_R   0.568492 0.758886 0.429733 -0.165829
C52   C     C_R   0.431497 0.259103 0.570276 -0.165822
C53   C     C_R   0.538700 0.789662 0.335052 -0.127348
C54   C     C_R   0.461292 0.289853 0.664949 -0.127468
C55   C     C_R   0.642205 0.869017 0.311404 -0.152203
C56   C     C_R   0.357780 0.368993 0.688622 -0.152385
H11   H     H_    0.885996 0.802347 0.386085 0.202388
H12   H     H_    0.113988 0.302482 0.613938 0.202302
H13   H     H_    0.667955 0.922591 0.264231 0.143771
H14   H     H_    0.332037 0.422512 0.735809 0.143871
H15   H     H_    0.487146 0.767668 0.307581 0.142790
H16   H     H_    0.512852 0.267940 0.692409 0.142729
H17   H     H_    0.635536 0.692532 0.604872 0.185314
H18   H     H_    0.364457 0.192718 0.395167 0.185508
H19   H     H_    0.022341 0.839751 0.700310 0.152576
H20   H     H_    0.977645 0.339660 0.299682 0.152587
H21   H     H_    0.750461 0.724443 0.670928 0.180839
H22   H     H_    0.249533 0.224579 0.329095 0.180742
H23   H     H_    0.539078 0.718572 0.474881 0.133976
H24   H     H_    0.460912 0.218894 0.525121 0.133997
O11   O     O_R   0.036080 0.231270 0.130120 -0.591673
O12   O     O_R   0.963920 0.731270 0.869880 -0.591680
O13   O     O_R   0.911300 0.558970 0.006750 -0.593138
O14   O     O_R   0.088700 0.058970 0.993250 -0.593129
C57   C     C_R   0.885117 0.389706 0.002779 0.956210
C58   C     C_R   0.114883 0.889706 0.997216 0.956146
O15   O     O_R   0.032450 0.561140 0.138040 -0.571811
O16   O     O_R   0.967550 0.061140 0.861960 -0.571855
O17   O     O_R   0.085870 0.728910 0.002130 -0.588916
O18   O     O_R   0.914130 0.228910 0.997870 -0.588969
C59   C     C_R   0.044427 0.392485 0.175249 0.984265
C60   C     C_R   0.955568 0.892501 0.824752 0.984253
O19   O     O_3   0.017320 0.394650 0.955270 -0.277234
O20   O     O_3   0.982680 0.894650 0.044730 -0.277227
V3    V     V_3+5 0.996780 0.670490 0.008300 1.212496
V4    V     V_3+5 0.003220 0.170490 0.991700 1.212488
I1    I     I_    0.017946 0.820098 0.494664 -0.381731
I2    I     I_    0.982031 0.320095 0.505334 -0.381769
I3    I     I_    0.808231 0.058675 0.755974 -0.378331
I4    I     I_    0.191738 0.558875 0.244075 -0.378547
N1    N     N_R   0.767037 0.756907 0.290099 0.219622
O21   O     O_R   0.732890 0.604421 0.264864 -0.415661
O22   O     O_R   0.792216 0.838899 0.230333 -0.448934
N2    N     N_R   0.232941 0.257164 0.709931 0.219522
O23   O     O_R   0.266975 0.104411 0.735192 -0.415613
O24   O     O_R   0.207880 0.339693 0.769724 -0.449005
N3    N     N_R   0.339453 0.288601 0.131248 0.256478
O25   O     O_R   0.380701 0.421645 0.130583 -0.376842
O26   O     O_R   0.333343 0.229475 0.211239 -0.421684
N4    N     N_R   0.660656 0.789015 0.868940 0.256486
O27   O     O_R   0.619360 0.921940 0.869522 -0.376945
O28   O     O_R   0.666886 0.730090 0.788993 -0.421457

loop_
_geom_bond_atom_site_label_1
_geom_bond_atom_site_label_2
_geom_bond_distance
_ccdc_geom_bond_type
O17   V3    1.995704 S    
C44   C46   1.384644 A    
C2    C23   1.460205 S    
C46   H18   1.083183 S    
C27   H19   1.083639 S    
C31   C33   1.419049 A    
C20   H10   1.112112 S    
O1    C3    1.315019 A    
O2    C4    1.314981 A    
O11   C59   1.310447 A    
C2    O7    1.323074 A    
C24   C54   1.395253 A    
C25   C27   1.395684 A    
C41   H11   1.081119 S    
C43   H21   1.080550 S    
O19   V3    2.197848 S    
C14   C57   1.480050 S    
C17   H7    1.110941 S    
C52   C54   1.389058 A    
C13   C58   1.480094 S    
C18   H8    1.111010 S    
C7    C9    1.412059 A    
O11   V4    2.023679 S    
C35   C37   1.426004 A    
O20   V3    1.731624 S    
C38   C50   1.437094 A    
C36   C38   1.425994 A    
O16   C60   1.310737 A    
N2    O23   1.302135 A    
C38   C40   1.427771 A    
C37   C39   1.427820 A    
C52   H24   1.084259 S    
C39   C41   1.402610 A    
C21   C60   1.465692 S    
C50   C56   1.415434 A    
C5    C7    1.400658 A    
C42   H12   1.081107 S    
C19   N3    1.463919 S    
C36   C44   1.407875 A    
C43   C45   1.384689 A    
C33   C41   1.400464 A    
C48   C52   1.402479 A    
C40   C42   1.402592 A    
C34   C42   1.400439 A    
O18   V4    1.995698 S    
C6    C8    1.401009 A    
C57   O18   1.311633 A    
C28   H20   1.083648 S    
C22   C30   1.402814 A    
O5    V1    2.002757 S    
O14   V4    2.002431 S    
O12   C60   1.310421 A    
O6    V2    2.002736 S    
C51   C53   1.389128 A    
C54   H16   1.083775 S    
C22   C59   1.465691 S    
C30   C32   1.422084 A    
O5    C3    1.315947 A    
N3    O26   1.301426 A    
C11   C13   1.411832 A    
C3    C8    1.481609 S    
O19   V4    1.731534 S    
C32   C34   1.419017 A    
O12   V3    2.023590 S    
C45   H17   1.083254 S    
O16   V4    2.017763 S    
C53   H15   1.083778 S    
C51   H23   1.084319 S    
O4    C2    1.320055 A    
O15   C59   1.310732 A    
C24   C56   1.402620 A    
C31   C35   1.422011 A    
C21   C27   1.395889 A    
C25   I1    2.138396 S    
C17   H5    1.109102 S    
O14   C58   1.319523 A    
C45   C47   1.390365 A    
C16   C18   1.489263 S    
O4    V2    2.017713 S    
C20   N4    1.463956 S    
C40   N2    1.435392 S    
C56   H14   1.079124 S    
C55   H13   1.079166 S    
O6    C4    1.315969 A    
C15   C17   1.489244 S    
O1    V2    1.995290 S    
C47   C51   1.402487 A    
O2    V1    1.995297 S    
O13   V3    2.002452 S    
C44   H22   1.080556 S    
C8    C10   1.412344 A    
C12   C14   1.412204 A    
C9    H1    1.081474 S    
C39   N1    1.435486 S    
C5    C15   1.388648 A    
C10   H2    1.081637 S    
C6    C16   1.388394 A    
N4    O28   1.301362 A    
C49   C55   1.415454 A    
O3    V1    2.017560 S    
C25   C33   1.417247 A    
N1    O21   1.301780 A    
C32   C36   1.422000 A    
C22   C28   1.395893 A    
C26   C34   1.417258 A    
C9    C11   1.412065 A    
C29   I3    2.153432 S    
C18   H6    1.109189 S    
C35   C43   1.407908 A    
O3    C1    1.320040 A    
C48   C50   1.422402 A    
N3    O25   1.298693 A    
O13   C57   1.319541 A    
C11   H3    1.081914 S    
C58   O17   1.311652 A    
O15   V3    2.017609 S    
C1    C24   1.460149 S    
C12   H4    1.082122 S    
C47   C49   1.422445 A    
C23   C53   1.395342 A    
O7    V1    2.016730 S    
C1    O8    1.323072 A    
C13   C15   1.395751 A    
O8    V2    2.016814 S    
C14   C16   1.396046 A    
C21   C29   1.402816 A    
O20   V4    2.197722 S    
C4    C7    1.481610 S    
C26   C28   1.395702 A    
C17   C19   1.527469 S    
N2    O24   1.302075 A    
C18   C20   1.527725 S    
C19   H9    1.112109 S    
C46   C48   1.390305 A    
C10   C12   1.412077 A    
O9    V2    1.732326 S    
N4    O27   1.298535 A    
C30   I4    2.153398 S    
O10   V1    1.732417 S    
C23   C55   1.402630 A    
C5    C19   1.493415 S    
C29   C31   1.422138 A    
C26   I2    2.138385 S    
C6    C20   1.493374 S    
C37   C49   1.437069 A    
N1    O22   1.301539 A    
