data_mof_unit_18884.cif
_audit_creation_date              2012-12-10T17:03:37-0500
_audit_creation_method            fapswitch 2.2
_symmetry_space_group_name_H-M    P1
_symmetry_Int_Tables_number       1
_space_group_crystal_system       triclinic
_cell_length_a                    10.023025
_cell_length_b                    10.650889
_cell_length_c                    13.247695
_cell_angle_alpha                 89.984663
_cell_angle_beta                  70.051381
_cell_angle_gamma                 90.427074
_cell_volume                      1329.34699352

loop_
_atom_site_label
_atom_site_type_symbol
_atom_type_description
_atom_site_fract_x
_atom_site_fract_y
_atom_site_fract_z
_atom_type_partial_charge
C1    C     C_R   0.501555 0.737985 0.498321 0.945177
C2    C     C_R   0.375110 0.528194 0.817313 -0.110286
C3    C     C_2   0.594963 0.067758 0.533365 -0.204214
C4    C     C_R   0.421318 0.500052 0.703572 0.830744
C5    C     C_2   0.476469 0.135607 0.551570 -0.053379
C6    C     C_2   0.591911 0.932691 0.536862 -0.178862
C7    C     C_2   0.505870 0.871327 0.495841 -0.368109
C8    C     C_2   0.093007 0.410571 0.458332 -0.127797
C9    C     C_2   0.945764 0.414709 0.452324 -0.159522
C10   C     C_R   0.494243 0.263074 0.511798 0.889998
C11   C     C_R   0.578435 0.505470 0.296400 0.878512
C12   C     C_R   0.469048 0.562749 0.962204 0.070096
C13   C     C_R   0.757211 0.391063 0.022069 -0.203363
C14   C     C_R   0.626641 0.507661 0.179520 -0.098931
C15   C     C_R   0.283798 0.630217 0.852363 -0.185727
C16   C     C_R   0.297037 0.707030 0.932864 -0.158529
C17   C     C_R   0.396031 0.678589 0.981543 -0.180787
C18   C     C_3   0.327691 0.089255 0.618954 -0.405855
C19   C     C_3   0.263312 0.169539 0.720087 -0.343449
C20   C     C_3   0.119904 0.117097 0.791290 -0.901947
C21   C     C_R   0.416884 0.639820 0.190151 0.121550
C22   C     C_R   0.276598 0.595324 0.215360 -0.069639
C23   C     C_R   0.460835 0.488655 0.876064 0.093427
C24   C     C_R   0.162608 0.669500 0.275208 -0.142848
C25   C     C_R   0.187544 0.787648 0.311311 -0.123405
C26   C     C_R   0.326538 0.831839 0.287774 -0.124825
C27   C     C_R   0.441103 0.757844 0.228404 -0.175251
C28   C     C_R   0.556793 0.521231 0.020472 0.023192
C29   C     C_R   0.658029 0.425449 0.974578 0.163213
C30   C     C_R   0.652454 0.357514 0.886412 -0.230101
C31   C     C_R   0.548016 0.382522 0.843227 -0.206534
C32   C     C_R   0.539093 0.560833 0.126614 -0.079433
C33   C     C_R   0.742646 0.433485 0.123866 -0.221457
H1    H     H_    0.811436 0.395359 0.163868 0.157131
H2    H     H_    0.218037 0.661470 0.807241 0.152654
H3    H     H_    0.417587 0.751002 0.030633 0.153633
H4    H     H_    0.238419 0.793929 0.951785 0.143926
H5    H     H_    0.540492 0.321601 0.779880 0.144483
H6    H     H_    0.699997 0.109878 0.499535 0.159163
H7    H     H_    0.044272 0.114662 0.746494 0.261973
H8    H     H_    0.132150 0.020761 0.818925 0.259240
H9    H     H_    0.075594 0.178023 0.862802 0.246947
H10   H     H_    0.336586 0.172032 0.766946 0.212014
H11   H     H_    0.247164 0.267000 0.697581 0.247232
H12   H     H_    0.667622 0.884446 0.565215 0.176523
H13   H     H_    0.258103 0.091938 0.569187 0.195944
H14   H     H_    0.328592 0.991376 0.647176 0.231691
H15   H     H_    0.256049 0.503620 0.188255 0.118181
H16   H     H_    0.054915 0.635329 0.293713 0.139380
H17   H     H_    0.099124 0.844982 0.357553 0.118007
H18   H     H_    0.345395 0.923696 0.315285 0.115478
H19   H     H_    0.548363 0.792877 0.210953 0.117704
H20   H     H_    0.434672 0.919980 0.463340 0.151020
H21   H     H_    0.157163 0.329292 0.424422 0.157308
H22   H     H_    0.091432 0.579162 0.525013 0.164273
H23   H     H_    0.915854 0.341002 0.407534 0.155679
H24   H     H_    0.877492 0.564451 0.546242 0.166179
H25   H     H_    0.723991 0.280021 0.854561 0.145755
H26   H     H_    0.838598 0.322670 0.984514 0.136870
N1    N     N_2   0.148270 0.498670 0.498870 -0.182866
N2    N     N_2   0.852610 0.498640 0.498840 -0.190827
O1    O     O_R   0.386950 0.680940 0.500020 -0.608121
O2    O     O_R   0.613110 0.680900 0.499980 -0.612333
O3    O     O_R   0.330780 0.500000 0.653640 -0.624581
O4    O     O_R   0.556930 0.499960 0.653610 -0.594077
O5    O     O_R   0.386890 0.319100 0.500020 -0.618532
O6    O     O_R   0.613050 0.319060 0.499980 -0.623585
O7    O     O_R   0.443070 0.500040 0.346390 -0.588398
O8    O     O_R   0.669220 0.500000 0.346360 -0.614618
Zn1   Zn    Zn3+2 0.349000 0.500030 0.500020 0.938313
Zn2   Zn    Zn3+2 0.651000 0.499970 0.499980 0.929578

loop_
_geom_bond_atom_site_label_1
_geom_bond_atom_site_label_2
_ccdc_geom_bond_type
C12   C17   A    
O2    Zn2   S    
C2    C4    S    
C24   C25   A    
C11   O8    A    
C13   C33   A    
C6    C7    D    
C13   H26   S    
C6    H12   S    
O3    Zn1   S    
C29   C30   A    
C4    O3    A    
C22   H15   S    
C19   C20   S    
C31   H5    S    
N1    Zn1   S    
C16   H4    S    
C3    C6    S    
C18   H14   S    
N2    Zn2   S    
C14   C33   A    
C20   H8    S    
C21   C27   A    
C3    H6    S    
C5    C10   S    
C9    H23   S    
C10   O6    A    
H22   N1    S    
C1    O1    A    
H24   N2    S    
C20   H9    S    
C12   C23   A    
C26   C27   A    
O5    Zn1   S    
C2    C15   A    
C12   C28   A    
C9    N2    D    
C1    O2    A    
C28   C32   A    
C13   C29   A    
C28   C29   A    
C17   H3    S    
C19   H10   S    
C33   H1    S    
O6    Zn2   S    
C2    C23   A    
C10   O5    A    
C19   H11   S    
C4    O4    A    
C20   H7    S    
C11   C14   S    
C22   C24   A    
C26   H18   S    
C7    H20   S    
C8    H21   S    
C15   C16   A    
C21   C32   S    
C18   H13   S    
C30   C31   A    
C27   H19   S    
O1    Zn1   S    
O7    Zn1   S    
C18   C19   S    
C15   H2    S    
C24   H16   S    
O8    Zn2   S    
C11   O7    A    
C16   C17   A    
C30   H25   S    
C5    C18   S    
C1    C7    S    
C25   C26   A    
C21   C22   A    
C25   H17   S    
C8    N1    D    
O4    Zn2   S    
C14   C32   A    
C8    C9    S    
C3    C5    D    
C23   C31   A    
