data_mof_unit_29094.cif
_audit_creation_date              2013-03-05T16:03:27-0500
_audit_creation_method            fapswitch 2.2
_symmetry_space_group_name_H-M    P1
_symmetry_Int_Tables_number       1
_space_group_crystal_system       triclinic
_cell_length_a                    14.019417
_cell_length_b                    14.922843
_cell_length_c                    16.777759
_cell_angle_alpha                 89.510909
_cell_angle_beta                  84.882321
_cell_angle_gamma                 90.508934
_cell_volume                      3495.78372311

loop_
_atom_site_label
_atom_site_type_symbol
_atom_site_description
_atom_site_fract_x
_atom_site_fract_y
_atom_site_fract_z
_atom_type_partial_charge
O1    O     O_R   0.419720 0.632140 0.499990 -0.611628
O2    O     O_R   0.580280 0.367860 0.500010 -0.642069
O3    O     O_R   0.580270 0.632160 0.499980 -0.664682
O4    O     O_R   0.419730 0.367840 0.500020 -0.602692
C1    C     C_R   0.501236 0.673318 0.495347 0.904576
C2    C     C_R   0.499497 0.326894 0.501965 0.923104
O5    O     O_R   0.410240 0.500000 0.615800 -0.624556
O6    O     O_R   0.589760 0.500000 0.384200 -0.640132
O7    O     O_R   0.570790 0.500020 0.615800 -0.572487
O8    O     O_R   0.429210 0.499980 0.384200 -0.575715
C3    C     C_R   0.486651 0.499109 0.653286 0.906492
C4    C     C_R   0.513352 0.504240 0.347010 0.887090
Zn1   Zn    Zn3+2 0.392800 0.499980 0.500010 0.970452
Zn2   Zn    Zn3+2 0.607200 0.500020 0.499990 0.939602
C5    C     C_R   0.478284 0.500838 0.740092 -0.149971
C6    C     C_R   0.522302 0.530343 0.263265 -0.152094
C7    C     C_R   0.553548 0.469318 0.782890 0.516142
C8    C     C_R   0.457626 0.592439 0.234653 0.547636
C9    C     C_R   0.545040 0.475754 0.865871 -0.237078
C10   C     C_R   0.470601 0.620371 0.154956 -0.220124
C11   C     C_R   0.465804 0.517824 0.905070 0.047247
C12   C     C_R   0.542736 0.582657 0.103694 0.017904
C13   C     C_R   0.390488 0.547289 0.863011 -0.167274
C14   C     C_R   0.608965 0.524153 0.132828 -0.180297
C15   C     C_R   0.396353 0.538201 0.780567 -0.284679
C16   C     C_R   0.599556 0.498969 0.212908 -0.274731
C17   C     C_2   0.464389 0.533530 0.991028 0.393239
C18   C     C_2   0.534138 0.585553 0.017491 0.390928
H1    H     H_    0.650286 0.452525 0.234928 0.174990
H2    H     H_    0.338409 0.563128 0.748202 0.178040
H3    H     H_    0.328712 0.579085 0.893790 0.159838
H4    H     H_    0.664232 0.494158 0.092616 0.152964
H5    H     H_    0.421184 0.667158 0.131580 0.148077
H6    H     H_    0.601007 0.449708 0.899907 0.145858
C19   C     C_R   0.446391 0.185306 0.567861 0.424104
C20   C     C_R   0.560357 0.818701 0.437237 0.445240
C21   C     C_R   0.499987 0.231462 0.506012 -0.185542
C22   C     C_R   0.504729 0.769212 0.496771 -0.168427
C23   C     C_R   0.562406 0.187952 0.451222 -0.279973
C24   C     C_R   0.457624 0.810398 0.562925 -0.277839
C25   C     C_R   0.574411 0.096527 0.457230 -0.034503
C26   C     C_R   0.454582 0.903162 0.566785 -0.024552
C27   C     C_R   0.512522 0.046914 0.512740 -0.090303
C28   C     C_R   0.514546 0.953469 0.510651 -0.097907
C29   C     C_R   0.446652 0.090985 0.568171 -0.155217
C30   C     C_R   0.574385 0.910255 0.450337 -0.117034
C31   C     C_R   0.645836 0.053750 0.407424 0.364177
C32   C     C_R   0.391737 0.946278 0.624311 0.382346
C33   C     C_R   0.644915 0.960287 0.403142 0.423208
C34   C     C_R   0.383977 0.039871 0.622240 0.376249
H7    H     H_    0.601523 0.226523 0.403771 0.186176
H8    H     H_    0.420023 0.769162 0.609110 0.177256
C35   C     C_R   0.198859 0.423352 0.519812 -0.033922
C36   C     C_R   0.801136 0.576736 0.481350 -0.042172
N1    N     N_R   0.249970 0.499930 0.499970 -0.108780
N2    N     N_R   0.750030 0.500070 0.500030 -0.107309
C37   C     C_R   0.204678 0.576413 0.479774 -0.065596
C38   C     C_R   0.795364 0.422897 0.518308 -0.040810
C39   C     C_R   0.103916 0.578828 0.479799 -0.115729
C40   C     C_R   0.896021 0.420657 0.519212 -0.086627
C41   C     C_R   0.050492 0.500128 0.500399 0.026552
C42   C     C_R   0.949376 0.499756 0.500424 0.017990
C43   C     C_R   0.098291 0.421430 0.519909 -0.017519
C44   C     C_R   0.901622 0.578260 0.480511 -0.028327
C45   C     C_R   0.055278 0.657355 0.459417 0.500904
C46   C     C_R   0.944439 0.341632 0.537979 0.453765
C47   C     C_R   0.954966 0.656156 0.459424 -0.295754
C48   C     C_R   0.044972 0.342509 0.537888 -0.315511
H9    H     H_    0.236418 0.363573 0.535446 0.155923
H10   H     H_    0.763639 0.636804 0.467253 0.111943
H11   H     H_    0.247290 0.635585 0.463650 0.181305
H12   H     H_    0.752890 0.363215 0.532807 0.177611
H13   H     H_    0.918783 0.716228 0.442464 0.157726
H14   H     H_    0.081267 0.280988 0.550850 0.157186
O9    O     O_3   0.631421 0.426483 0.743934 -0.627094
C49   C     C_3   0.714331 0.479934 0.748420 -0.266971
H15   H     H_    0.738733 0.477919 0.809625 0.160352
H16   H     H_    0.703097 0.550510 0.729379 0.173108
H17   H     H_    0.772641 0.452552 0.706928 0.167731
O10   O     O_3   0.387399 0.631222 0.286207 -0.596155
C50   C     C_3   0.296662 0.600592 0.267267 -0.229752
H18   H     H_    0.291263 0.526124 0.270468 0.161495
H19   H     H_    0.279687 0.625209 0.207494 0.158979
H20   H     H_    0.241393 0.627680 0.311756 0.199784
O11   O     O_3   0.105364 0.734106 0.433910 -0.623374
C51   C     C_3   0.124228 0.786558 0.500696 0.096446
H21   H     H_    0.198403 0.813309 0.489600 0.164434
H22   H     H_    0.121067 0.748566 0.558584 0.110280
C52   C     C_3   0.056003 0.865606 0.508947 -0.892842
H23   H     H_    0.980811 0.841441 0.519421 0.244622
H24   H     H_    0.072433 0.907522 0.560389 0.211220
H25   H     H_    0.064164 0.907645 0.453813 0.263427
O12   O     O_3   0.894878 0.261414 0.549163 -0.640463
C53   C     C_3   0.871440 0.247378 0.631837 0.080885
H26   H     H_    0.832174 0.305486 0.659597 0.145198
H27   H     H_    0.937256 0.235647 0.662795 0.144250
C54   C     C_3   0.806679 0.165148 0.643782 -0.838872
H28   H     H_    0.844013 0.105374 0.617798 0.248176
H29   H     H_    0.787651 0.153078 0.708672 0.217618
H30   H     H_    0.739898 0.175678 0.614014 0.247325
O13   O     O_3   0.604459 0.623770 0.963001 -0.635113
C55   C     C_3   0.651831 0.696047 0.996806 -0.306018
H31   H     H_    0.700906 0.671612 0.040570 0.171595
H32   H     H_    0.600094 0.745045 0.025118 0.169316
H33   H     H_    0.696154 0.731850 0.948304 0.194872
O14   O     O_3   0.391754 0.498636 0.045270 -0.636675
C56   C     C_3   0.364613 0.411334 0.024084 -0.316508
H34   H     H_    0.427980 0.367617 0.011031 0.161103
H35   H     H_    0.320114 0.413195 0.972531 0.176599
H36   H     H_    0.320187 0.380916 0.075488 0.194935
O15   O     O_3   0.393823 0.232888 0.626811 -0.604440
C57   C     C_3   0.451653 0.248321 0.690227 0.160264
H37   H     H_    0.508013 0.299235 0.671984 0.142189
H38   H     H_    0.486520 0.185753 0.709376 0.147802
C58   C     C_3   0.389534 0.283350 0.762006 -0.798937
H39   H     H_    0.337282 0.230921 0.785035 0.271765
H40   H     H_    0.435054 0.301403 0.810418 0.204955
H41   H     H_    0.349978 0.343529 0.744596 0.251491
O16   O     O_3   0.570475 0.789136 0.358527 -0.578556
C59   C     C_3   0.645706 0.727594 0.345070 0.177274
H42   H     H_    0.618047 0.659337 0.357133 0.161465
H43   H     H_    0.705749 0.740162 0.382262 0.114403
C60   C     C_3   0.683452 0.731343 0.257110 -0.783710
H44   H     H_    0.712457 0.798996 0.240587 0.292262
H45   H     H_    0.741076 0.681331 0.245373 0.192469
H46   H     H_    0.624921 0.716067 0.218916 0.252882
O17   O     O_3   0.713673 0.101759 0.358461 -0.588788
C61   C     C_3   0.780188 0.144351 0.405202 0.120726
H47   H     H_    0.791190 0.107424 0.461695 0.124981
H48   H     H_    0.756164 0.212936 0.421528 0.168478
C62   C     C_3   0.876449 0.153288 0.356074 -0.779567
H49   H     H_    0.868667 0.193790 0.301232 0.251600
H50   H     H_    0.928915 0.187076 0.391869 0.235283
H51   H     H_    0.903984 0.086129 0.338513 0.246799
O18   O     O_3   0.340775 0.898443 0.685654 -0.577542
C63   C     C_3   0.255549 0.862081 0.659265 0.110779
H52   H     H_    0.265288 0.789759 0.646426 0.133135
H53   H     H_    0.233055 0.894817 0.604253 0.090484
C64   C     C_3   0.174813 0.870059 0.725635 -0.806100
H54   H     H_    0.163135 0.941447 0.741400 0.266084
H55   H     H_    0.107644 0.841615 0.705484 0.194826
H56   H     H_    0.193056 0.832614 0.779641 0.258424
O19   O     O_3   0.713544 0.918544 0.352367 -0.554787
C65   C     C_3   0.795641 0.903314 0.393824 0.087713
H57   H     H_    0.780181 0.853266 0.442913 0.098281
H58   H     H_    0.821879 0.965450 0.420592 0.141950
C66   C     C_3   0.876239 0.868943 0.335568 -0.822973
H59   H     H_    0.889110 0.915958 0.283988 0.269640
H60   H     H_    0.943034 0.863536 0.365910 0.229101
H61   H     H_    0.857958 0.801720 0.313421 0.243580
O20   O     O_3   0.316832 0.080335 0.675547 -0.551005
C67   C     C_3   0.234609 0.100659 0.635709 0.184910
H62   H     H_    0.196347 0.038649 0.620650 0.106665
H63   H     H_    0.252534 0.139667 0.579360 0.142739
C68   C     C_3   0.166218 0.156036 0.690370 -0.830919
H64   H     H_    0.198589 0.222666 0.700602 0.270474
H65   H     H_    0.098446 0.165913 0.662090 0.190449
H66   H     H_    0.149851 0.120954 0.748715 0.252807

loop_
_geom_bond_atom_site_label_1
_geom_bond_atom_site_label_2
_geom_bond_distance
_ccdc_geom_bond_type
Zn2   N2    2.002448 S    
O12   C53   1.410090 S    
C68   H65   1.109646 S    
C55   H31   1.111511 S    
C56   H35   1.110978 S    
C32   O18   1.387972 S    
C46   C48   1.409222 A    
C66   H59   1.110511 S    
C49   H17   1.108659 S    
O9    C49   1.411785 S    
C62   H51   1.109892 S    
C35   H9    1.082060 S    
C61   H47   1.115564 S    
C54   H30   1.111464 S    
C57   H38   1.115776 S    
C54   H28   1.110798 S    
C60   H44   1.108720 S    
C23   C25   1.380073 A    
C8    O10   1.385349 S    
C62   H50   1.110543 S    
O11   C51   1.415032 S    
O5    C3    1.289795 A    
C30   C33   1.413956 A    
O13   C55   1.411029 S    
O1    C1    1.288606 A    
C9    C11   1.396325 A    
C49   H16   1.114563 S    
C65   C66   1.522159 S    
C64   H56   1.110815 S    
C51   H22   1.117653 S    
C5    C15   1.403578 A    
O14   C56   1.411239 S    
C38   C40   1.413282 A    
C58   H39   1.110055 S    
C55   H33   1.109162 S    
C40   C42   1.410002 A    
O4    Zn1   2.011013 S    
C41   C43   1.407830 A    
C20   O16   1.391519 S    
C42   C44   1.406906 A    
C60   H45   1.110506 S    
C54   H29   1.110347 S    
C23   H7    1.083759 S    
C3    C5    1.451138 S    
C34   O20   1.385553 S    
C4    C6    1.449140 S    
C59   H43   1.107260 S    
C45   C47   1.406267 A    
O20   C67   1.416931 S    
C20   C30   1.400595 A    
C47   H13   1.082299 S    
C52   H24   1.109657 S    
C41   C42   1.417509 A    
C59   C60   1.523098 S    
C24   C26   1.387223 A    
C11   C17   1.461501 S    
C40   C46   1.413005 A    
C12   C18   1.462290 S    
C1    C22   1.431890 S    
C68   H66   1.110855 S    
C25   C27   1.414568 A    
O2    C2    1.279901 A    
C26   C28   1.411653 A    
C63   C64   1.521541 S    
C18   O13   1.397589 S    
C57   H37   1.112422 S    
C50   H19   1.111365 S    
C28   C30   1.418766 A    
C50   H18   1.113702 S    
C35   N1    1.366225 A    
C6    C16   1.399481 A    
C36   N2    1.363712 A    
C39   C41   1.411008 A    
C64   H55   1.110559 S    
C44   C47   1.402158 A    
O18   C63   1.415986 S    
C66   H61   1.108554 S    
C49   H15   1.111204 S    
C65   H58   1.107844 S    
C51   H21   1.110049 S    
O10   C50   1.411502 S    
C60   H46   1.108567 S    
C17   O14   1.397655 S    
C58   H40   1.110286 S    
C24   H8    1.081760 S    
C9    H6    1.083683 S    
C51   C52   1.524715 S    
C13   H3    1.083323 S    
C55   H32   1.113677 S    
O7    Zn2   1.964430 S    
C14   H4    1.083468 S    
O7    C3    1.286224 A    
C36   H10   1.078307 S    
C67   C68   1.520996 S    
O6    C4    1.288630 A    
C58   H41   1.110224 S    
C25   C31   1.406985 A    
C2    C21   1.425269 S    
C26   C32   1.410930 A    
C37   H11   1.080503 S    
C52   H25   1.110065 S    
C53   H27   1.112936 S    
C27   C29   1.420641 A    
O3    Zn2   2.011014 S    
O8    C4    1.285121 A    
C46   O12   1.381715 S    
C10   H5    1.083348 S    
O4    C2    1.281911 A    
C10   C12   1.393697 A    
C11   C13   1.393576 A    
C27   C28   1.395681 A    
C56   H36   1.109165 S    
C12   C14   1.396889 A    
O1    Zn1   2.004686 S    
C56   H34   1.113904 S    
C62   H49   1.110593 S    
C19   C29   1.407549 A    
C61   C62   1.521472 S    
C17   C18   1.351238 D    
C50   H20   1.108362 S    
C19   O15   1.384468 S    
C59   H42   1.097412 S    
C63   H53   1.112176 S    
C15   H2    1.083381 S    
C5    C7    1.410121 A    
C43   C48   1.405288 A    
O6    Zn2   1.979547 S    
O15   C57   1.413211 S    
C19   C21   1.398322 A    
C14   C16   1.386614 A    
C67   H63   1.114187 S    
C63   H52   1.109570 S    
O3    C1    1.279682 A    
O8    Zn1   1.964430 S    
C61   H48   1.109251 S    
C64   H54   1.109880 S    
C31   O17   1.389623 S    
O17   C61   1.420208 S    
C31   C33   1.397204 A    
C66   H60   1.108255 S    
C53   C54   1.521127 S    
C65   H57   1.112603 S    
N1    C37   1.365767 A    
C21   C23   1.381714 A    
C45   O11   1.382660 S    
C39   C45   1.415649 A    
C20   C22   1.410508 A    
C22   C24   1.390647 A    
C35   C43   1.409789 A    
C38   H12   1.080735 S    
C36   C44   1.407552 A    
C29   C34   1.418067 A    
C33   O19   1.383089 S    
C32   C34   1.402227 A    
C7    C9    1.390904 A    
N2    C38   1.366006 A    
C8    C10   1.393023 A    
C13   C15   1.386219 A    
C53   H26   1.114232 S    
O2    Zn2   2.004686 S    
C37   C39   1.413376 A    
O5    Zn1   1.979547 S    
C67   H62   1.107798 S    
C16   H1    1.083475 S    
C6    C8    1.412883 A    
O16   C59   1.408914 S    
C68   H64   1.110343 S    
C7    O9    1.385598 S    
C52   H23   1.109623 S    
C48   H14   1.083373 S    
C57   C58   1.521088 S    
O19   C65   1.415955 S    
Zn1   N1    2.002448 S    
