data_mof_unit_21374.cif
_audit_creation_date              2013-03-05T15:46:21-0500
_audit_creation_method            fapswitch 2.2
_symmetry_space_group_name_H-M    P1
_symmetry_Int_Tables_number       1
_space_group_crystal_system       triclinic
_cell_length_a                    10.246685
_cell_length_b                    10.616787
_cell_length_c                    10.712186
_cell_angle_alpha                 91.874988
_cell_angle_beta                  96.0794
_cell_angle_gamma                 81.380184
_cell_volume                      1145.53419923

loop_
_atom_site_label
_atom_site_type_symbol
_atom_site_description
_atom_site_fract_x
_atom_site_fract_y
_atom_site_fract_z
_atom_type_partial_charge
O1    O     O_R   0.568950 0.489660 0.307530 -0.617328
O2    O     O_R   0.348880 0.522640 0.340350 -0.600483
C1    C     C_R   0.443907 0.512523 0.266978 0.899912
O3    O     O_R   0.610060 0.300270 0.483590 -0.602694
O4    O     O_R   0.389990 0.333260 0.516410 -0.605972
C2    C     C_R   0.499530 0.260962 0.498641 0.870236
Zn1   Zn    Zn3+2 0.646940 0.477980 0.478090 0.917702
Zn2   Zn    Zn3+2 0.353060 0.522020 0.521910 0.938133
O5    O     O_R   0.651120 0.477360 0.659650 -0.613931
O6    O     O_R   0.431050 0.510340 0.692470 -0.622320
O7    O     O_R   0.610010 0.666740 0.483590 -0.643021
O8    O     O_R   0.389940 0.699730 0.516410 -0.604265
C3    C     C_R   0.556210 0.492053 0.733426 0.906162
C4    C     C_R   0.499953 0.739196 0.499730 0.851077
H1    H     H_    0.468010 0.126313 0.688774 0.186314
C5    C     C_R   0.516864 0.120816 0.263561 -0.296527
H2    H     H_    0.512694 0.223159 0.260198 0.131752
C6    C     C_R   0.525674 0.049975 0.151346 0.076952
C7    C     C_R   0.530068 0.917651 0.153465 -0.115958
H3    H     H_    0.537162 0.860592 0.068069 0.177801
C8    C     C_R   0.523175 0.857557 0.265735 -0.234859
H4    H     H_    0.524737 0.755783 0.262828 0.156079
C9    C     C_R   0.511749 0.928440 0.378790 0.104628
C10   C     C_R   0.509959 0.060478 0.377987 0.101504
C11   C     C_R   0.497125 0.128746 0.492052 -0.103903
C12   C     C_R   0.480090 0.071154 0.602706 -0.179810
H5    H     H_    0.468699 0.896732 0.689712 0.171366
C13   C     C_R   0.480434 0.942176 0.603169 -0.189718
C14   C     C_R   0.498273 0.871757 0.492978 -0.100098
H6    H     H_    0.405948 0.612890 0.890326 0.176637
H7    H     H_    0.607663 0.574095 0.117139 0.186942
C15   C     C_2   0.413123 0.535201 0.133741 -0.366473
C16   C     C_2   0.510580 0.562378 0.070465 -0.197242
C17   C     C_2   0.587582 0.490581 0.869157 0.007698
C18   C     C_2   0.496629 0.559707 0.935740 -0.218491
H8    H     H_    0.315679 0.525023 0.087104 0.162545
H9    H     H_    0.107614 0.407316 0.431897 0.145757
N1    N     N_2   0.157290 0.551390 0.551110 -0.199184
C19   C     C_2   0.072707 0.483825 0.495326 -0.126392
H10   H     H_    0.877793 0.388365 0.378582 0.139950
N2    N     N_2   0.842740 0.448550 0.448960 -0.218023
C20   C     C_2   0.929394 0.506613 0.517818 0.183937
H11   H     H_    0.126171 0.629971 0.604343 0.182226
C21   C     C_3   0.889834 0.597279 0.625058 -0.301966
C22   C     C_3   0.947915 0.543003 0.752967 -0.898514
H12   H     H_    0.924328 0.445313 0.761035 0.276694
H13   H     H_    0.057142 0.538511 0.767512 0.254070
H14   H     H_    0.904951 0.604676 0.828570 0.242342
H15   H     H_    0.919925 0.691839 0.612757 0.159472
H16   H     H_    0.783796 0.620553 0.627679 0.267210
C23   C     C_2   0.527703 0.115797 0.032438 0.347692
H17   H     H_    0.522891 0.218653 0.032252 0.081829
O9    O     O_2   0.533913 0.056202 0.933275 -0.616773
C24   C     C_3   0.710277 0.406175 0.929775 -0.436464
C25   C     C_3   0.739722 0.277602 0.861539 -0.822961
H18   H     H_    0.647620 0.234634 0.839496 0.274535
H19   H     H_    0.783391 0.288241 0.772823 0.269352
H20   H     H_    0.812126 0.211556 0.921989 0.250807
H21   H     H_    0.797127 0.457331 0.933462 0.210853
H22   H     H_    0.697970 0.384181 0.028040 0.223205

loop_
_geom_bond_atom_site_label_1
_geom_bond_atom_site_label_2
_geom_bond_distance
_ccdc_geom_bond_type
C21   H15   1.109208 S    
O4    Zn2   1.983043 S    
C23   O9    1.221067 D    
C9    C10   1.399483 A    
H7    C16   1.087534 S    
N2    C20   1.306937 D    
C1    C15   1.448755 S    
C12   C13   1.368977 A    
C7    H3    1.083378 S    
Zn2   O8    1.982841 S    
C15   C16   1.335089 D    
C25   H18   1.108739 S    
Zn1   N2    2.039255 S    
O2    C1    1.304850 A    
N1    H11   1.024942 S    
C5    C10   1.414632 A    
C5    C6    1.400796 A    
C24   H22   1.109730 S    
C22   H12   1.107704 S    
C10   C11   1.408238 A    
Zn1   O7    1.983044 S    
C9    C14   1.409363 A    
N1    C19   1.292835 D    
C20   C21   1.523111 S    
Zn2   N1    2.039144 S    
O3    Zn1   1.982841 S    
O1    Zn1   1.915213 S    
H6    C18   1.088033 S    
O3    C2    1.291368 A    
C13   C14   1.390199 A    
C7    C8    1.392884 A    
O8    C4    1.291265 A    
C6    C23   1.476309 S    
C17   C24   1.527331 S    
C19   C20   1.495875 S    
C24   H21   1.106590 S    
C25   H19   1.108316 S    
C8    C9    1.410917 A    
O4    C2    1.289444 A    
C17   C18   1.348118 D    
O7    C4    1.290721 A    
C25   H20   1.110603 S    
C2    C11   1.406942 S    
C4    C14   1.409024 S    
C23   H17   1.085765 S    
C15   H8    1.086910 S    
C3    C17   1.455545 S    
C22   H13   1.107586 S    
C21   C22   1.529632 S    
H9    C19   1.085202 S    
C6    C7    1.399670 A    
C22   H14   1.110329 S    
C21   H16   1.080716 S    
H5    C13   1.084866 S    
Zn1   O5    1.941040 S    
O5    C3    1.305358 A    
C24   C25   1.531859 S    
H10   N2    1.030872 S    
H1    C12   1.084170 S    
C16   C18   1.434882 S    
C11   C12   1.390195 A    
C8    H4    1.077713 S    
Zn2   O6    1.915214 S    
O2    Zn2   1.941040 S    
C5    H2    1.082606 S    
O1    C1    1.298105 A    
O6    C3    1.298717 A    
