data_mof_unit_41283.cif
_audit_creation_date              2012-12-10T17:03:42-0500
_audit_creation_method            fapswitch 2.2
_symmetry_space_group_name_H-M    P1
_symmetry_Int_Tables_number       1
_space_group_crystal_system       triclinic
_cell_length_a                    10.192627
_cell_length_b                    10.662618
_cell_length_c                    13.175656
_cell_angle_alpha                 91.51507
_cell_angle_beta                  71.929449
_cell_angle_gamma                 87.856082
_cell_volume                      1359.25774329

loop_
_atom_site_label
_atom_site_type_symbol
_atom_type_description
_atom_site_fract_x
_atom_site_fract_y
_atom_site_fract_z
_atom_type_partial_charge
C1    C     C_R   0.501420 0.736201 0.491111 0.922296
C2    C     C_R   0.392688 0.444342 0.812836 -0.139570
C3    C     C_2   0.597442 0.065254 0.425852 -0.202426
C4    C     C_R   0.426686 0.483929 0.701288 0.879875
C5    C     C_2   0.508505 0.131185 0.508699 -0.167759
C6    C     C_2   0.618923 0.929395 0.427085 0.192336
C7    C     C_2   0.503475 0.865840 0.465352 -0.414595
C8    C     C_2   0.098213 0.420001 0.442592 0.176775
C9    C     C_2   0.946722 0.417528 0.445558 -0.052902
C10   C     C_R   0.501767 0.263246 0.501898 0.876931
C11   C     C_R   0.575415 0.508277 0.297443 0.862706
C12   C     C_R   0.458788 0.446583 0.974191 0.068789
C13   C     C_R   0.798548 0.518336 0.009892 -0.018794
C14   C     C_R   0.620026 0.522730 0.181502 -0.144527
C15   C     C_R   0.258169 0.414542 0.871460 -0.213126
C16   C     C_R   0.227195 0.390243 0.980128 0.092861
C17   C     C_R   0.324414 0.413356 0.032639 -0.249098
C18   C     C_1   0.862881 0.564948 0.172042 0.240391
C19   C     C_1   0.439229 0.081240 0.612017 0.145636
C20   C     C_3   0.763590 0.866076 0.386751 -0.338976
C21   C     C_3   0.878202 0.951210 0.329479 -0.880358
C22   C     C_3   0.192931 0.316029 0.373466 -0.372843
C23   C     C_R   0.497235 0.435386 0.863072 0.066575
C24   C     C_3   0.171160 0.189520 0.427293 -0.835651
C25   C     C_3   0.056438 0.596629 0.570123 -0.289496
C26   C     C_3   0.100403 0.651478 0.661222 -0.713744
C27   C     C_1   0.906030 0.326666 0.379484 0.302581
C28   C     C_3   0.883626 0.365220 0.795078 -0.428001
C29   C     C_3   0.909977 0.240414 0.840854 -0.830017
C30   C     C_1   0.924207 0.575506 0.950521 0.136606
C31   C     C_3   0.388433 0.615266 0.172995 -0.371381
C32   C     C_3   0.418027 0.745427 0.210050 -0.829202
C33   C     C_1   0.098013 0.338817 0.037697 0.151566
C34   C     C_R   0.559021 0.481872 0.022141 -0.017871
C35   C     C_R   0.702157 0.473912 0.961022 0.040218
C36   C     C_R   0.740556 0.421551 0.855007 0.144136
C37   C     C_R   0.637268 0.405412 0.807432 -0.203638
C38   C     C_R   0.520395 0.530879 0.127894 0.088825
C39   C     C_R   0.760136 0.531130 0.121525 -0.075558
H1    H     H_    0.402541 0.912696 0.478086 0.156712
H2    H     H_    0.791710 0.828570 0.455473 0.221436
H3    H     H_    0.763119 0.787138 0.330127 0.216473
H4    H     H_    0.070655 0.152301 0.428565 0.240145
H5    H     H_    0.254330 0.120257 0.382300 0.244213
H6    H     H_    0.173270 0.198734 0.510892 0.276372
H7    H     H_    0.174975 0.307512 0.294687 0.169726
H8    H     H_    0.302051 0.336618 0.353554 0.259071
H9    H     H_    0.109934 0.576773 0.714535 0.262337
H10   H     H_    0.191481 0.708140 0.636855 0.283414
H11   H     H_    0.016013 0.717660 0.709789 0.203508
H12   H     H_    0.879165 0.589857 0.485868 0.167522
H13   H     H_    0.041658 0.677144 0.522251 0.168834
H14   H     H_    0.959597 0.555630 0.617936 0.179065
H15   H     H_    0.895117 0.252329 0.927497 0.276496
H16   H     H_    0.837548 0.170567 0.828638 0.260547
H17   H     H_    0.017553 0.204183 0.799772 0.251722
H18   H     H_    0.894938 0.347187 0.709167 0.206162
H19   H     H_    0.965466 0.429030 0.795018 0.205765
H20   H     H_    0.458647 0.739590 0.278655 0.254327
H21   H     H_    0.494401 0.790758 0.143577 0.256803
H22   H     H_    0.321024 0.805320 0.235651 0.243787
H23   H     H_    0.180130 0.405581 0.832103 0.158582
H24   H     H_    0.338517 0.633389 0.110663 0.219040
H25   H     H_    0.310521 0.570665 0.238646 0.222912
H26   H     H_    0.297150 0.399838 0.117683 0.132001
H27   H     H_    0.665999 0.359134 0.729040 0.178957
H28   H     H_    0.654791 0.113171 0.355171 0.169017
H29   H     H_    0.857143 0.991871 0.259050 0.272908
H30   H     H_    0.888173 0.026621 0.385813 0.268621
H31   H     H_    0.977947 0.895481 0.301095 0.253440
N1    N     N_2   0.148270 0.498670 0.498870 -0.063171
N2    N     N_2   0.852610 0.498640 0.498840 -0.256564
N3    N     N_1   0.945207 0.591805 0.211668 -0.235954
N4    N     N_1   0.383862 0.041816 0.694581 -0.206205
N5    N     N_1   0.874147 0.255409 0.324842 -0.226855
N6    N     N_1   0.024032 0.625227 0.907578 -0.230831
N7    N     N_1   0.995177 0.295908 0.084455 -0.210549
O1    O     O_R   0.386950 0.680940 0.500020 -0.611252
O2    O     O_R   0.613110 0.680900 0.499980 -0.620376
O3    O     O_R   0.330780 0.500000 0.653640 -0.607380
O4    O     O_R   0.556930 0.499960 0.653610 -0.611831
O5    O     O_R   0.386890 0.319100 0.500020 -0.614219
O6    O     O_R   0.613050 0.319060 0.499980 -0.608746
O7    O     O_R   0.443070 0.500040 0.346390 -0.633819
O8    O     O_R   0.669220 0.500000 0.346360 -0.606039
Zn1   Zn    Zn3+2 0.349000 0.500030 0.500020 0.930726
Zn2   Zn    Zn3+2 0.651000 0.499970 0.499980 0.933578

loop_
_geom_bond_atom_site_label_1
_geom_bond_atom_site_label_2
_ccdc_geom_bond_type
O6    Zn2   S    
C35   C36   A    
C9    N2    D    
C3    C6    S    
O2    Zn2   S    
C20   H2    S    
C28   H18   S    
C12   C23   A    
C24   H6    S    
C28   C29   S    
O7    Zn1   S    
C32   H22   S    
C4    O3    A    
C26   H11   S    
C11   C14   S    
C29   H15   S    
C15   C16   A    
C10   O6    A    
C34   C35   A    
O3    Zn1   S    
C14   C39   A    
C4    O4    A    
C8    C9    S    
C12   C17   A    
C8    C22   S    
C7    H1    S    
C25   N1    S    
C26   H9    S    
O1    Zn1   S    
C22   H8    S    
C34   C38   A    
C1    O1    A    
C27   N5    T    
O8    Zn2   S    
C31   H24   S    
C13   C30   S    
C26   H10   S    
C16   C17   A    
C29   H16   S    
C25   C26   S    
O5    Zn1   S    
C10   O5    A    
C21   H30   S    
C2    C4    S    
C18   C39   S    
C16   C33   S    
C14   C38   A    
N1    Zn1   S    
C30   N6    T    
C31   C32   S    
C37   H27   S    
C2    C15   A    
O4    Zn2   S    
C22   H7    S    
C18   N3    T    
C21   H29   S    
C1    O2    A    
C22   C24   S    
H12   N2    S    
C32   H21   S    
C12   C34   A    
N2    Zn2   S    
C9    C27   S    
C36   C37   A    
C8    N1    D    
C1    C7    S    
C31   H25   S    
C19   N4    T    
C3    H28   S    
C25   H14   S    
C3    C5    D    
C20   H3    S    
C13   C35   A    
C6    C7    D    
C5    C19   S    
C29   H17   S    
C28   H19   S    
C11   O7    A    
C6    C20   S    
C17   H26   S    
C31   C38   S    
C21   H31   S    
C25   H13   S    
C5    C10   S    
C23   C37   A    
C33   N7    T    
C11   O8    A    
C24   H5    S    
C15   H23   S    
C13   C39   A    
C20   C21   S    
C28   C36   S    
C2    C23   A    
C24   H4    S    
C32   H20   S    
