data_mof_unit_6040.cif
_audit_creation_date              2012-12-11T14:21:12-0500
_audit_creation_method            fapswitch 2.2
_symmetry_space_group_name_H-M    P1
_symmetry_Int_Tables_number       1
_space_group_crystal_system       triclinic
_cell_length_a                    22.031669
_cell_length_b                    7.194739
_cell_length_c                    14.971755
_cell_angle_alpha                 89.999537
_cell_angle_beta                  107.658226
_cell_angle_gamma                 89.999924
_cell_volume                      2261.38592901

loop_
_atom_site_label
_atom_site_type_symbol
_atom_type_description
_atom_site_fract_x
_atom_site_fract_y
_atom_site_fract_z
_atom_type_partial_charge
O1    O     O_R   0.584770 0.505770 0.002090 -0.544063
O2    O     O_R   0.415230 0.005770 0.997910 -0.544066
O3    O     O_R   0.467060 0.173340 0.861950 -0.540762
O4    O     O_R   0.532940 0.673340 0.138050 -0.540761
C1    C     C_R   0.454705 0.344119 0.825887 0.703372
C2    C     C_R   0.545296 0.844117 0.174113 0.703368
O5    O     O_R   0.587510 0.175890 0.993210 -0.538306
O6    O     O_R   0.412490 0.675890 0.006790 -0.538313
O7    O     O_R   0.536540 0.008150 0.130100 -0.541900
O8    O     O_R   0.463460 0.508150 0.869900 -0.541906
C3    C     C_R   0.613119 0.344806 0.998708 0.694324
C4    C     C_R   0.386881 0.844806 0.001292 0.694314
O9    O     O_3   0.483140 0.340040 0.044760 -0.385337
O10   O     O_3   0.516860 0.840040 0.955240 -0.385337
V1    V     V_3+5 0.503130 0.064190 0.991700 1.388455
V2    V     V_3+5 0.496870 0.564190 0.008300 1.388448
C5    C     C_2   0.214063 0.731847 0.002129 -0.254879
C6    C     C_2   0.785936 0.231847 0.997869 -0.254878
C7    C     C_2   0.182098 0.890318 0.007157 0.487283
C8    C     C_2   0.817902 0.390319 0.992842 0.487280
H1    H     H_    0.188632 0.600513 0.993284 0.129711
H2    H     H_    0.811368 0.100512 0.006712 0.129712
C9    C     C_2   0.283435 0.718931 0.011042 -0.109678
C10   C     C_2   0.716565 0.218931 0.988957 -0.109688
C11   C     C_2   0.318777 0.860844 0.995308 -0.277721
C12   C     C_2   0.681223 0.360843 0.004694 -0.277750
H3    H     H_    0.305283 0.582853 0.027677 0.154718
H4    H     H_    0.694716 0.082855 0.972320 0.154726
H5    H     H_    0.297381 0.995309 0.973891 0.207994
H6    H     H_    0.702619 0.495306 0.026112 0.208000
C13   C     C_R   0.931120 0.892934 0.722141 -0.179693
C14   C     C_R   0.068881 0.392926 0.277858 -0.179691
C15   C     C_R   0.573927 0.849990 0.275807 -0.119302
C16   C     C_R   0.426074 0.349999 0.724194 -0.119303
C17   C     C_R   0.934172 0.009610 0.571649 -0.204115
C18   C     C_R   0.065826 0.509566 0.428354 -0.204114
C19   C     C_R   0.965056 0.975935 0.666525 -0.082271
C20   C     C_R   0.034942 0.475903 0.333477 -0.082273
C21   C     C_R   0.867474 0.840931 0.681706 0.522206
C22   C     C_R   0.132529 0.340935 0.318292 0.522209
C23   C     C_R   0.833593 0.895291 0.588531 -0.028547
C24   C     C_R   0.166407 0.395283 0.411469 -0.028549
C25   C     C_R   0.869042 0.972006 0.532761 0.061990
C26   C     C_R   0.130956 0.471973 0.467241 0.061986
C27   C     C_R   0.765995 0.878442 0.549102 0.070389
C28   C     C_R   0.234006 0.378446 0.450898 0.070388
C29   C     C_R   0.736422 0.910069 0.451545 0.090619
C30   C     C_R   0.263578 0.410055 0.548456 0.090615
C31   C     C_R   0.774652 0.978232 0.398007 -0.179067
C32   C     C_R   0.225346 0.478195 0.601997 -0.179066
C33   C     C_R   0.839222 0.012393 0.438588 -0.152796
C34   C     C_R   0.160775 0.512346 0.561416 -0.152781
C35   C     C_R   0.726782 0.844107 0.605642 -0.180787
C36   C     C_R   0.273220 0.344136 0.394357 -0.180791
C37   C     C_R   0.661686 0.813714 0.568388 -0.061264
C38   C     C_R   0.338318 0.313758 0.431612 -0.061284
C39   C     C_R   0.632024 0.826194 0.470778 -0.028157
C40   C     C_R   0.367979 0.326235 0.529220 -0.028152
C41   C     C_R   0.669417 0.877756 0.411577 0.003681
C42   C     C_R   0.330584 0.377756 0.588423 0.003672
C43   C     C_R   0.566212 0.787874 0.430312 0.669206
C44   C     C_R   0.433795 0.287961 0.569685 0.669237
C45   C     C_R   0.538079 0.799633 0.333975 -0.228691
C46   C     C_R   0.461927 0.299703 0.666022 -0.228763
C47   C     C_R   0.638688 0.889225 0.313808 -0.209402
C48   C     C_R   0.361311 0.389201 0.686194 -0.209405
H7    H     H_    0.866164 0.071079 0.395638 0.117926
H8    H     H_    0.133831 0.571014 0.604368 0.117918
H9    H     H_    0.664164 0.919110 0.264397 0.112173
H10   H     H_    0.335831 0.419043 0.735606 0.112169
H11   H     H_    0.488040 0.767047 0.304405 0.114781
H12   H     H_    0.511970 0.267154 0.695592 0.114809
H13   H     H_    0.960874 0.069069 0.528465 0.135586
H14   H     H_    0.039121 0.569005 0.471541 0.135584
H15   H     H_    0.755772 0.014851 0.325089 0.112890
H16   H     H_    0.244225 0.514804 0.674915 0.112890
H17   H     H_    0.745083 0.849519 0.680947 0.209869
H18   H     H_    0.254920 0.349550 0.319053 0.209877
O11   O     O_R   0.036450 0.233070 0.130130 -0.516316
O12   O     O_R   0.963550 0.733070 0.869870 -0.516313
O13   O     O_R   0.912470 0.560570 0.006790 -0.500956
O14   O     O_R   0.087530 0.060570 0.993210 -0.500954
C49   C     C_R   0.886644 0.392310 0.000528 0.644000
C50   C     C_R   0.113356 0.892310 0.999471 0.643997
O15   O     O_R   0.032920 0.562940 0.138050 -0.549376
O16   O     O_R   0.967080 0.062940 0.861950 -0.549377
O17   O     O_R   0.084790 0.730500 0.002090 -0.571132
O18   O     O_R   0.915210 0.230500 0.997910 -0.571133
C51   C     C_R   0.043053 0.394556 0.174973 0.768721
C52   C     C_R   0.956947 0.894558 0.825026 0.768713
O19   O     O_3   0.016820 0.396170 0.955260 -0.383373
O20   O     O_3   0.983180 0.896170 0.044740 -0.383375
V3    V     V_3+5 0.996880 0.672090 0.008300 1.533065
V4    V     V_3+5 0.003120 0.172090 0.991700 1.533066
C53   C     C_R   0.033455 0.022196 0.705307 0.121489
C54   C     C_R   0.053928 0.207721 0.709029 -0.109088
C55   C     C_R   0.118743 0.250406 0.744997 -0.114578
C56   C     C_R   0.163490 0.108184 0.775518 -0.029034
C57   C     C_R   0.143450 0.923101 0.770925 -0.147031
C58   C     C_R   0.078604 0.880055 0.736806 -0.182385
H19   H     H_    0.019718 0.318946 0.684961 0.108508
H20   H     H_    0.134313 0.393668 0.749098 0.093291
H21   H     H_    0.213664 0.141373 0.802744 0.107873
H22   H     H_    0.178146 0.812991 0.794153 0.112263
H23   H     H_    0.063638 0.736142 0.733782 0.101926
C59   C     C_R   0.966541 0.522144 0.294698 0.121488
C60   C     C_R   0.946059 0.707658 0.290994 -0.109102
C61   C     C_R   0.881242 0.750324 0.255030 -0.114562
C62   C     C_R   0.836502 0.608090 0.224497 -0.029039
C63   C     C_R   0.856550 0.423017 0.229073 -0.147046
C64   C     C_R   0.921398 0.379993 0.263187 -0.182390
H24   H     H_    0.980265 0.818891 0.315072 0.108504
H25   H     H_    0.865666 0.893578 0.250942 0.093304
H26   H     H_    0.786326 0.641263 0.197275 0.107872
H27   H     H_    0.821859 0.312898 0.205836 0.112265
H28   H     H_    0.936371 0.236087 0.266198 0.101935
F1    F     F_    0.840812 0.732925 0.734088 -0.697788
F2    F     F_    0.159193 0.232949 0.265906 -0.697781
F3    F     F_    0.528515 0.733785 0.482374 -0.676494
F4    F     F_    0.471498 0.233950 0.517618 -0.676503
F5    F     F_    0.213010 0.056092 0.025319 -0.682767
F6    F     F_    0.786990 0.556094 0.974682 -0.682773
C65   C     C_R   0.627754 0.765195 0.636262 0.170203
C66   C     C_R   0.591884 0.899649 0.665874 -0.043627
C67   C     C_R   0.565571 0.857630 0.737442 -0.113638
C68   C     C_R   0.575578 0.682851 0.779959 -0.097292
C69   C     C_R   0.611139 0.548549 0.750729 -0.113503
C70   C     C_R   0.637197 0.589338 0.678933 -0.028907
H29   H     H_    0.585407 0.037007 0.634794 0.145739
H30   H     H_    0.538322 0.960934 0.761186 0.122850
H31   H     H_    0.556404 0.652143 0.836252 0.161666
H32   H     H_    0.619088 0.413742 0.784398 0.104470
H33   H     H_    0.665749 0.485615 0.657784 0.120895
C71   C     C_R   0.372248 0.265231 0.363738 0.170248
C72   C     C_R   0.408074 0.399718 0.334063 -0.043614
C73   C     C_R   0.434380 0.357679 0.262489 -0.113651
C74   C     C_R   0.424410 0.182846 0.220030 -0.097240
C75   C     C_R   0.388891 0.048514 0.249322 -0.113491
C76   C     C_R   0.362842 0.089322 0.321125 -0.028889
H34   H     H_    0.414521 0.537114 0.365096 0.145645
H35   H     H_    0.461592 0.461009 0.238693 0.122839
H36   H     H_    0.443578 0.152120 0.163734 0.161652
H37   H     H_    0.380967 0.913668 0.215694 0.104410
H38   H     H_    0.334321 0.985573 0.342321 0.120860

loop_
_geom_bond_atom_site_label_1
_geom_bond_atom_site_label_2
_ccdc_geom_bond_type
C40   C44   A    
C22   F2    S    
C74   H36   S    
C20   C59   S    
C68   C69   A    
O14   V4    S    
C43   F3    S    
C60   H24   S    
C53   C54   A    
O1    C3    A    
C50   O17   A    
C46   H12   S    
O2    C4    A    
C16   C48   A    
C2    O7    A    
C55   C56   A    
C15   C47   A    
C65   C66   A    
C21   C23   A    
O5    C3    A    
C58   H23   S    
C5    C9    S    
C6    C10   S    
C17   C19   A    
C10   C12   D    
C75   H37   S    
C39   C41   A    
C59   C60   A    
C40   C42   A    
C56   H21   S    
C61   C62   A    
C19   C53   S    
C24   C28   A    
C27   C29   A    
C43   C45   A    
C69   H32   S    
C44   C46   A    
O16   V4    S    
C63   C64   A    
O15   V3    S    
C67   H30   S    
C17   H13   S    
C14   C51   S    
C38   C40   A    
C31   C33   A    
C32   C34   A    
C60   C61   A    
C31   H15   S    
C64   H28   S    
C14   C20   A    
C17   C25   A    
C8    F6    S    
C55   H20   S    
C34   H8    S    
C15   C45   A    
C26   C34   A    
C22   C24   A    
C49   O18   A    
C42   C48   A    
O6    V2    S    
C54   H19   S    
C1    C16   S    
C23   C25   A    
C24   C26   A    
O13   C49   A    
C30   C42   A    
C37   C65   S    
C59   C64   A    
C35   C37   A    
C11   H5    S    
C72   H34   S    
C36   C38   A    
C72   C73   A    
O11   V4    S    
C29   C31   A    
O16   C52   A    
C71   C76   A    
O15   C51   A    
C53   C58   A    
O5    V1    S    
C3    C12   S    
C21   F1    S    
C27   C35   A    
C5    H1    S    
C13   C19   A    
C61   H25   S    
O4    V2    S    
C35   H17   S    
C73   H35   S    
C32   H16   S    
O13   V3    S    
C76   H38   S    
C57   C58   A    
O6    C4    A    
C13   C52   S    
C54   C55   A    
C28   C36   A    
C16   C46   A    
O1    V2    S    
C33   H7    S    
O2    V1    S    
C18   H14   S    
C62   H26   S    
O4    C2    A    
C45   H11   S    
C12   H6    S    
C9    H3    S    
C37   C39   A    
C67   C68   A    
C18   C26   A    
C69   C70   A    
O3    V1    S    
C7    F5    S    
C6    H2    S    
C44   F4    S    
C10   H4    S    
C73   C74   A    
O3    C1    A    
C8    C49   S    
C38   C71   S    
C39   C43   A    
C71   C72   A    
C74   C75   A    
O14   C50   A    
C2    C15   S    
C4    C11   S    
C18   C20   A    
O7    V1    S    
C1    O8    A    
O8    V2    S    
C70   H33   S    
C41   C47   A    
O19   V4    S    
C25   C33   A    
C65   C70   A    
C48   H10   S    
C68   H31   S    
C47   H9    S    
O17   V3    S    
C30   C32   A    
O20   V3    S    
C5    C7    D    
C13   C21   A    
C66   H29   S    
C57   H22   S    
C6    C8    D    
C14   C22   A    
O12   C52   A    
O11   C51   A    
C75   C76   A    
C29   C41   A    
C28   C30   A    
C9    C11   D    
C56   C57   A    
O9    V2    S    
O18   V4    S    
C23   C27   A    
O10   V1    S    
O12   V3    S    
C62   C63   A    
C63   H27   S    
C7    C50   S    
C66   C67   A    
C36   H18   S    
