data_mof_unit_22569.cif
_audit_creation_date              2012-12-10T16:47:16-0500
_audit_creation_method            fapswitch 2.2
_symmetry_space_group_name_H-M    P1
_symmetry_Int_Tables_number       1
_space_group_crystal_system       monoclinic
_cell_length_a                    12.179183
_cell_length_b                    12.089965
_cell_length_c                    7.779396
_cell_angle_alpha                 90.0
_cell_angle_beta                  95.117684
_cell_angle_gamma                 90.0
_cell_volume                      1140.9177565

loop_
_atom_site_label
_atom_site_type_symbol
_atom_type_description
_atom_site_fract_x
_atom_site_fract_y
_atom_site_fract_z
_atom_type_partial_charge
C1    C     C_R   0.354634 0.850620 0.454854 0.961986
C2    C     C_2   0.725980 0.767709 0.568844 -0.375688
C3    C     C_2   0.725980 0.232291 0.568844 -0.375688
C4    C     C_2   0.274020 0.767709 0.431156 -0.375688
C5    C     C_2   0.774020 0.732290 0.431156 -0.375688
C6    C     C_2   0.225980 0.267709 0.568844 -0.375688
C7    C     C_2   0.225980 0.732290 0.568844 -0.375688
C8    C     C_2   0.774020 0.267709 0.431156 -0.375688
C9    C     C_R   0.645366 0.149380 0.545146 0.961985
C10   C     C_R   0.645366 0.850620 0.545146 0.961985
C11   C     C_R   0.354634 0.149380 0.454854 0.961985
C12   C     C_R   0.854634 0.350620 0.454854 0.961986
C13   C     C_R   0.145366 0.649380 0.545146 0.961985
C14   C     C_R   0.145366 0.350620 0.545146 0.961985
C15   C     C_R   0.854634 0.649380 0.454854 0.961985
C16   C     C_2   0.274020 0.232291 0.431156 -0.375688
H1    H     H_    0.754452 0.763909 0.301118 0.180767
H2    H     H_    0.383689 0.000000 0.996069 0.191516
H3    H     H_    0.116311 0.500000 0.003931 0.191516
H4    H     H_    0.883689 0.500000 0.996069 0.191516
H5    H     H_    0.245548 0.236091 0.698882 0.180767
H6    H     H_    0.245548 0.763909 0.698882 0.180767
H7    H     H_    0.754452 0.236091 0.301118 0.180767
H8    H     H_    0.254452 0.263909 0.301118 0.180767
H9    H     H_    0.745548 0.736091 0.698882 0.180767
H10   H     H_    0.745548 0.263909 0.698882 0.180767
H11   H     H_    0.254452 0.736091 0.301118 0.180767
H12   H     H_    0.616311 0.000000 0.003931 0.191516
N1    N     N_2   0.541470 1.000000 0.055820 -0.175434
N2    N     N_2   0.458530 0.000000 0.944180 -0.175434
N3    N     N_2   0.041470 0.500000 0.055820 -0.175434
N4    N     N_2   0.958530 0.500000 0.944180 -0.175434
O1    O     O_R   0.375700 0.885870 0.609240 -0.613728
O2    O     O_R   0.597720 0.114130 0.675960 -0.631399
O3    O     O_R   0.597720 0.885870 0.675960 -0.631399
O4    O     O_R   0.402280 0.114130 0.324040 -0.631400
O5    O     O_R   0.902280 0.385870 0.324040 -0.631400
O6    O     O_R   0.097720 0.614130 0.675960 -0.631399
O7    O     O_R   0.097720 0.385870 0.675960 -0.631399
O8    O     O_R   0.902280 0.614130 0.324040 -0.631400
O9    O     O_R   0.624300 0.114130 0.390760 -0.613727
O10   O     O_R   0.624300 0.885870 0.390760 -0.613727
O11   O     O_R   0.375700 0.114130 0.609240 -0.613728
O12   O     O_R   0.875700 0.385870 0.609240 -0.613728
O13   O     O_R   0.124300 0.614130 0.390760 -0.613727
O14   O     O_R   0.124300 0.385870 0.390760 -0.613727
O15   O     O_R   0.875700 0.614130 0.609240 -0.613728
O16   O     O_R   0.402280 0.885870 0.324040 -0.631400
Zn1   Zn    Zn3+2 0.482250 0.000000 0.690430 0.940043
Zn2   Zn    Zn3+2 0.517750 0.000000 0.309570 0.940043
Zn3   Zn    Zn3+2 0.982250 0.500000 0.690430 0.940043
Zn4   Zn    Zn3+2 0.017750 0.500000 0.309570 0.940043

loop_
_geom_bond_atom_site_label_1
_geom_bond_atom_site_label_2
_ccdc_geom_bond_type
O3    Zn1   S    
O7    Zn3   S    
N4    Zn3   S    
C11   O11   A    
N1    N2    D    
H2    N2    S    
C6    C14   S    
C7    H6    S    
C11   C16   S    
C9    O9    A    
N3    N4    D    
C15   O15   A    
N3    Zn4   S    
C8    C12   S    
C1    C4    S    
H3    N3    S    
C8    H7    S    
O16   Zn2   S    
C1    O1    A    
C16   H8    S    
C13   O13   A    
C10   O10   A    
C13   O6    A    
C10   O3    A    
O10   Zn2   S    
C4    C7    D    
C3    C9    S    
O12   Zn3   S    
C11   O4    A    
N2    Zn1   S    
C2    H9    S    
N1    Zn2   S    
C1    O16   A    
C9    O2    A    
C15   O8    A    
C5    C15   S    
C2    C5    D    
C5    H1    S    
C6    C16   D    
C2    C10   S    
O14   Zn4   S    
O9    Zn2   S    
C7    C13   S    
C4    H11   S    
O4    Zn2   S    
C12   O12   A    
C3    C8    D    
H4    N4    S    
C12   O5    A    
O5    Zn4   S    
H12   N1    S    
O2    Zn1   S    
O15   Zn3   S    
O6    Zn3   S    
O13   Zn4   S    
C14   O7    A    
O8    Zn4   S    
C6    H5    S    
O1    Zn1   S    
C3    H10   S    
O11   Zn1   S    
C14   O14   A    
