data_mof_unit_49785.cif
_audit_creation_date              2012-12-11T14:15:43-0500
_audit_creation_method            fapswitch 2.2
_symmetry_space_group_name_H-M    P1
_symmetry_Int_Tables_number       1
_space_group_crystal_system       triclinic
_cell_length_a                    11.100399
_cell_length_b                    12.736762
_cell_length_c                    23.527937
_cell_angle_alpha                 90.631417
_cell_angle_beta                  96.95313
_cell_angle_gamma                 68.900628
_cell_volume                      3078.71112285

loop_
_atom_site_label
_atom_site_type_symbol
_atom_type_description
_atom_site_fract_x
_atom_site_fract_y
_atom_site_fract_z
_atom_type_partial_charge
C1    C     C_R   0.149608 0.616663 0.428922 0.539009
C2    C     C_2   0.245038 0.148476 0.242448 -0.101489
C3    C     C_2   0.145515 0.140945 0.267670 0.025457
C4    C     C_R   0.748731 0.603796 0.403948 0.560057
C5    C     C_1   0.129582 0.182647 0.324680 -0.052308
C6    C     C_1   0.261995 0.119789 0.183657 -0.057005
C7    C     C_1   0.116291 0.223277 0.371067 -0.031752
C8    C     C_1   0.167567 0.751506 0.124060 -0.009618
C9    C     C_2   0.141203 0.693416 0.228585 -0.124288
C10   C     C_2   0.237206 0.677446 0.271955 -0.133604
C11   C     C_1   0.218496 0.653349 0.329503 -0.054872
C12   C     C_R   0.650158 0.561799 0.309579 0.127921
C13   C     C_1   0.154819 0.723771 0.171286 -0.051828
C14   C     C_1   0.194437 0.635199 0.376364 -0.004325
C15   C     C_1   0.625706 0.757721 0.864262 -0.045148
C16   C     C_R   0.101184 0.280826 0.423930 0.538774
C17   C     C_2   0.688284 0.726777 0.758457 0.144064
C18   C     C_2   0.618771 0.683517 0.720512 -0.102773
C19   C     C_1   0.652000 0.658340 0.663160 -0.056809
C20   C     C_1   0.657713 0.742409 0.816691 -0.036529
C21   C     C_1   0.689663 0.635622 0.617023 -0.029727
C22   C     C_R   0.248115 0.087241 0.840861 -0.012576
C23   C     C_R   0.710542 0.728243 0.318875 -0.167363
C24   C     C_R   0.115801 0.203880 0.634212 -0.002965
C25   C     C_R   0.003467 0.211562 0.716718 0.027716
C26   C     C_R   0.002876 0.207768 0.656906 -0.015469
C27   C     C_R   0.238194 0.156013 0.666930 0.113654
C28   C     C_R   0.152998 0.617275 0.589898 0.544916
C29   C     C_R   0.243933 0.137380 0.726026 0.012776
C30   C     C_R   0.125818 0.174915 0.751921 0.000932
C31   C     C_R   0.135178 0.168888 0.812302 0.124534
C32   C     C_R   0.359054 0.041036 0.813833 -0.145597
C33   C     C_R   0.364152 0.083722 0.760723 0.152480
C34   C     C_R   0.700479 0.740130 0.259143 0.030900
C35   C     C_R   0.140375 0.762235 0.845773 0.005926
C36   C     C_R   0.211381 0.640420 0.645559 0.008346
C37   C     C_R   0.309896 0.556942 0.740354 0.001329
C38   C     C_R   0.294678 0.548804 0.680933 -0.141102
C39   C     C_R   0.161787 0.747803 0.668484 0.010104
C40   C     C_R   0.748909 0.602006 0.565669 0.542871
C41   C     C_R   0.154837 0.751908 0.727801 0.034706
C42   C     C_R   0.230724 0.656715 0.764353 0.039068
C43   C     C_R   0.225139 0.664963 0.823607 -0.127368
C44   C     C_R   0.054047 0.848157 0.808474 -0.119707
C45   C     C_R   0.677425 0.654505 0.226098 0.001528
C46   C     C_R   0.065739 0.845949 0.750713 -0.137762
C47   C     C_R   0.292691 0.061243 0.076930 0.562914
C48   C     C_R   0.600862 0.774948 0.081134 0.539177
C49   C     C_R   0.189677 0.788275 0.069907 0.540950
C50   C     C_R   0.268580 0.060307 0.901309 0.572957
C51   C     C_R   0.573768 0.776545 0.918111 0.535539
C52   C     C_R   0.101746 0.273499 0.583060 0.551727
C53   C     C_R   0.165814 0.788957 0.905508 0.536250
C54   C     C_R   0.669120 0.754797 0.139417 -0.011639
C55   C     C_R   0.693148 0.636094 0.344280 0.028277
C56   C     C_R   0.676394 0.656996 0.167735 -0.126354
C57   C     C_R   0.646166 0.570270 0.250752 -0.131763
C58   C     C_3   0.762489 0.838898 0.696337 -0.288947
C59   C     C_3   0.977377 0.266249 0.880835 -0.271211
C60   C     C_3   0.874996 0.250658 0.741519 -0.241868
C61   C     C_3   0.849065 0.153202 0.766845 -0.451887
C62   C     C_3   0.601077 0.041954 0.785897 -0.321382
C63   C     C_3   0.897107 0.181482 0.618325 -0.259679
C64   C     C_3   0.772043 0.283201 0.601335 -0.381215
C65   C     C_3   0.376854 0.030971 0.602054 -0.288789
C66   C     C_3   0.398984 0.453298 0.775771 -0.287141
C67   C     C_R   0.692534 0.841233 0.170765 -0.111213
C68   C     C_3   0.323343 0.382644 0.793782 -0.433358
C69   C     C_3   0.112297 0.855664 0.630659 -0.264908
C70   C     C_3   0.195530 0.851862 0.582687 -0.430503
C71   C     C_3   0.737960 0.926943 0.266489 -0.279799
C72   C     C_3   0.742554 0.026630 0.232410 -0.457806
C73   C     C_3   0.697159 0.362479 0.326141 -0.277689
C74   C     C_3   0.041025 0.104101 0.236342 -0.254035
C75   C     C_3   0.935501 0.203098 0.202401 -0.433282
C76   C     C_R   0.712976 0.833841 0.231314 0.017658
C77   C     C_1   0.275668 0.094906 0.134656 -0.011737
Cr1   Cr    Cr6+3 0.189770 0.415650 0.511620 1.008771
Cr2   Cr    Cr6+3 0.930400 0.667320 0.496770 0.996844
Cr3   Cr    Cr6+3 0.879870 0.417010 0.491650 0.999854
Cr4   Cr    Cr6+3 0.149500 0.973980 0.985330 0.998918
Cr5   Cr    Cr6+3 0.457000 0.976510 0.994660 1.004627
Cr6   Cr    Cr6+3 0.411170 0.724270 0.995270 1.007824
H1    H     H_    0.662539 0.587878 0.143918 0.135894
H2    H     H_    0.617967 0.510799 0.224136 0.108007
H3    H     H_    0.738501 0.786723 0.346102 0.123586
H4    H     H_    0.314986 0.179485 0.266173 0.116923
H5    H     H_    0.328621 0.684987 0.264689 0.137727
H6    H     H_    0.879369 0.689672 0.742791 0.261962
H7    H     H_    0.808228 0.798007 0.658413 0.149462
H8    H     H_    0.801754 0.904861 0.709470 0.131050
H9    H     H_    0.655745 0.880869 0.684054 0.180767
H10   H     H_    0.121678 0.316783 0.853879 0.251806
H11   H     H_    0.019486 0.272638 0.925455 0.170531
H12   H     H_    0.049510 0.686820 0.236225 0.143279
H13   H     H_    0.886041 0.340506 0.871556 0.124064
H14   H     H_    0.952862 0.189299 0.877595 0.165788
H15   H     H_    0.829425 0.100495 0.731869 0.127109
H16   H     H_    0.933739 0.100100 0.796257 0.158337
H17   H     H_    0.763567 0.186692 0.790760 0.126377
H18   H     H_    0.871124 0.316275 0.772881 0.175631
H19   H     H_    0.791314 0.294624 0.709464 0.134756
H20   H     H_    0.477507 0.156958 0.725484 0.255970
H21   H     H_    0.684496 0.043910 0.765849 0.133200
H22   H     H_    0.624375 0.953374 0.798919 0.185334
H23   H     H_    0.539284 0.662268 0.733370 0.108115
H24   H     H_    0.589247 0.096050 0.823776 0.137182
H25   H     H_    0.687874 0.269298 0.616565 0.102604
H26   H     H_    0.779182 0.361369 0.619963 0.185828
H27   H     H_    0.752136 0.294991 0.553970 0.163486
H28   H     H_    0.935950 0.142413 0.578634 0.133019
H29   H     H_    0.873589 0.115165 0.639587 0.121208
H30   H     H_    0.385643 0.186401 0.629100 0.264553
H31   H     H_    0.473943 0.009801 0.587361 0.131152
H32   H     H_    0.301575 0.054318 0.564058 0.138816
H33   H     H_    0.376537 0.955850 0.625226 0.161241
H34   H     H_    0.446350 0.984306 0.838392 0.131907
H35   H     H_    0.248153 0.431450 0.820721 0.149573
H36   H     H_    0.275163 0.355452 0.755330 0.162935
H37   H     H_    0.391113 0.306522 0.818812 0.150200
H38   H     H_    0.475426 0.399847 0.750387 0.129674
H39   H     H_    0.452298 0.476741 0.813759 0.140745
H40   H     H_    0.300610 0.814434 0.599130 0.140958
H41   H     H_    0.174980 0.802711 0.546206 0.176707
H42   H     H_    0.172474 0.938698 0.565638 0.118838
H43   H     H_    0.009010 0.875792 0.612651 0.154489
H44   H     H_    0.117011 0.927555 0.656820 0.137678
H45   H     H_    0.288741 0.598314 0.853226 0.126356
H46   H     H_    0.821560 0.997635 0.204608 0.153598
H47   H     H_    0.647466 0.070691 0.206156 0.154866
H48   H     H_    0.762468 0.087795 0.262570 0.133713
H49   H     H_    0.659925 0.960914 0.294548 0.142336
H50   H     H_    0.832628 0.889731 0.294182 0.147717
H51   H     H_    0.516206 0.489816 0.321680 0.246058
H52   H     H_    0.684404 0.339096 0.280798 0.107867
H53   H     H_    0.671734 0.304840 0.353363 0.139230
H54   H     H_    0.800757 0.351378 0.339171 0.182056
H55   H     H_    0.889655 0.270967 0.231616 0.146292
H56   H     H_    0.687402 0.915804 0.147612 0.135020
H57   H     H_    0.977571 0.237305 0.169883 0.169978
H58   H     H_    0.859320 0.174873 0.179898 0.132953
H59   H     H_    0.083279 0.035232 0.206974 0.156432
H60   H     H_    0.996319 0.069912 0.267788 0.138470
H61   H     H_    0.984137 0.921753 0.824654 0.131240
H62   H     H_    0.001769 0.917523 0.724198 0.093201
H63   H     H_    0.340401 0.467652 0.662686 0.130670
N1    N     N_2   0.792721 0.756603 0.743184 -0.502319
N2    N     N_2   0.067128 0.268073 0.841227 -0.523999
N3    N     N_2   0.485437 0.081818 0.744478 -0.490947
N4    N     N_2   0.354847 0.123195 0.640428 -0.500064
N5    N     N_2   0.612965 0.477537 0.333579 -0.486308
O1    O     O_R   0.196340 0.303200 0.448500 -0.508481
O2    O     O_R   0.555390 0.700940 0.062700 -0.517394
O3    O     O_R   0.295020 0.731920 0.049950 -0.490817
O4    O     O_R   0.199310 0.519670 0.454880 -0.491538
O5    O     O_R   0.094290 0.884230 0.921550 -0.528955
O6    O     O_R   0.168980 0.069410 0.926940 -0.500729
O7    O     O_R   0.358400 0.089990 0.927950 -0.511705
O8    O     O_R   0.544850 0.873850 0.939920 -0.518475
O9    O     O_R   0.536020 0.701900 0.936430 -0.506160
O10   O     O_R   0.277070 0.732810 0.932890 -0.501754
O11   O     O_3   0.339220 0.891590 0.991750 -0.281504
O12   O     O_R   0.811960 0.658090 0.547150 -0.496494
O13   O     O_R   0.045660 0.691380 0.441680 -0.520077
O14   O     O_R   0.811930 0.659460 0.430950 -0.514298
O15   O     O_R   0.757900 0.507620 0.421760 -0.475998
O16   O     O_R   0.988630 0.322990 0.439840 -0.509237
O17   O     O_R   0.196380 0.301720 0.573850 -0.522221
O18   O     O_R   0.199350 0.518300 0.571080 -0.507456
O19   O     O_R   0.045700 0.689900 0.567030 -0.520845
O20   O     O_R   0.757930 0.506140 0.547110 -0.529225
O21   O     O_R   0.988670 0.321620 0.556040 -0.500468
O22   O     O_3   0.000020 0.499990 0.500010 -0.236420
O23   O     O_R   0.113660 0.883270 0.047820 -0.515026
O24   O     O_R   0.186930 0.068530 0.043990 -0.491388
O25   O     O_R   0.377770 0.089040 0.054220 -0.502347
O26   O     O_R   0.562800 0.872960 0.056970 -0.515040

loop_
_geom_bond_atom_site_label_1
_geom_bond_atom_site_label_2
_ccdc_geom_bond_type
C24   C52   S    
C66   C68   S    
C48   O2    A    
C8    C13   T    
C62   N3    S    
C35   C53   S    
C41   C42   A    
Cr2   O22   S    
C61   H15   S    
C24   C27   A    
C32   H34   S    
C74   H60   S    
C52   O21   A    
Cr1   O1    S    
C72   H46   S    
C39   C41   A    
Cr6   O3    S    
C2    C6    S    
C50   O7    A    
C48   C54   S    
C10   H5    S    
C29   C30   A    
Cr4   O5    S    
C22   C32   A    
Cr4   O24   S    
Cr2   O19   S    
C17   N1    S    
C24   C26   A    
Cr3   O22   S    
C75   H57   S    
C68   H36   S    
C71   C76   S    
Cr5   O7    S    
C11   C14   T    
Cr1   O4    S    
C46   H62   S    
C27   C29   A    
C16   O16   A    
C29   C33   A    
C51   O9    A    
C63   H29   S    
C17   C20   S    
C4    O14   A    
H10   N2    S    
C18   C19   S    
C65   H31   S    
C37   C42   A    
C1    O4    A    
C3    C74   S    
C9    C13   S    
C38   H63   S    
C75   H58   S    
C68   H35   S    
C71   H49   S    
C65   N4    S    
C70   H40   S    
Cr4   O11   S    
Cr6   O9    S    
C73   H52   S    
C1    O13   A    
C4    O15   A    
C23   H3    S    
Cr1   O22   S    
C41   C46   A    
C66   H39   S    
C64   H25   S    
C59   H11   S    
C15   C51   S    
C35   C43   A    
C58   H8    S    
C9    H12   S    
Cr3   O16   S    
C47   O25   A    
C22   C50   S    
C59   N2    S    
C74   H59   S    
C73   N5    S    
C63   H28   S    
C65   H32   S    
C12   N5    S    
C61   H16   S    
C60   H19   S    
Cr3   O15   S    
C48   O26   A    
C44   C46   A    
C56   H1    S    
C62   H21   S    
C50   O6    A    
C15   C20   T    
C54   C56   A    
Cr4   O6    S    
C74   C75   S    
C49   O3    A    
C45   C56   A    
C40   O12   A    
C22   C31   A    
C62   H22   S    
C58   N1    S    
C6    C77   T    
C62   H24   S    
Cr5   O11   S    
C25   C26   A    
C68   H37   S    
Cr1   O18   S    
C60   C61   S    
C26   C63   S    
C18   H23   S    
C37   C38   A    
C64   H27   S    
C73   H53   S    
C44   H61   S    
C23   C34   A    
C45   C57   A    
C37   C66   S    
C17   C18   D    
C39   C69   S    
C66   H38   S    
C2    H4    S    
C16   O1    A    
C34   C45   A    
Cr2   O14   S    
C72   H47   S    
C35   C44   A    
C58   H7    S    
C69   H44   S    
C12   C57   A    
C70   H42   S    
C28   O19   A    
C7    C16   S    
C25   C60   S    
Cr6   O11   S    
Cr5   O25   S    
C69   H43   S    
C27   N4    S    
C4    C55   S    
C59   H14   S    
C65   H33   S    
C61   H17   S    
C42   C43   A    
C47   C77   S    
C60   H18   S    
C67   H56   S    
C72   H48   S    
C5    C7    T    
C9    C10   D    
C25   C30   A    
H6    N1    S    
C19   C21   T    
C49   O23   A    
H30   N4    S    
C36   C39   A    
Cr2   O12   S    
C3    C5    S    
C75   H55   S    
C31   N2    S    
C43   H45   S    
C71   H50   S    
C23   C55   A    
Cr6   O2    S    
C1    C14   S    
Cr1   O17   S    
Cr4   O23   S    
C36   C38   A    
C2    C3    D    
C71   C72   S    
C54   C67   A    
C33   N3    S    
C32   C33   A    
Cr5   O8    S    
C53   O10   A    
C64   H26   S    
C30   C31   A    
C21   C40   S    
C73   H54   S    
Cr2   O13   S    
H51   N5    S    
Cr5   O26   S    
C51   O8    A    
C57   H2    S    
Cr6   O10   S    
C69   C70   S    
C47   O24   A    
C12   C55   A    
C10   C11   S    
H20   N3    S    
C63   C64   S    
C70   H41   S    
C28   O18   A    
C28   C36   S    
C53   O5    A    
C59   H13   S    
Cr3   O21   S    
C67   C76   A    
Cr3   O20   S    
C58   H9    S    
C8    C49   S    
C40   O20   A    
C52   O17   A    
C34   C76   A    
