data_mof_unit_7075.cif
_audit_creation_date              2013-03-05T15:47:58-0500
_audit_creation_method            fapswitch 2.2
_symmetry_space_group_name_H-M    P1
_symmetry_Int_Tables_number       1
_space_group_crystal_system       triclinic
_cell_length_a                    21.948128
_cell_length_b                    21.680812
_cell_length_c                    23.454895
_cell_angle_alpha                 90.365875
_cell_angle_beta                  90.108652
_cell_angle_gamma                 87.476087
_cell_volume                      11150.018755

loop_
_atom_site_label
_atom_site_type_symbol
_atom_site_description
_atom_site_fract_x
_atom_site_fract_y
_atom_site_fract_z
_atom_type_partial_charge
O1    O     O_R   0.408370 0.051730 0.500010 -0.617123
O2    O     O_R   0.948270 0.408370 0.500010 -0.636793
O3    O     O_R   0.591630 0.948270 0.500010 -0.617931
O4    O     O_R   0.051730 0.591630 0.500010 -0.640692
O5    O     O_R   0.591630 0.051730 0.499990 -0.619840
O6    O     O_R   0.051730 0.408370 0.499990 -0.550879
O7    O     O_R   0.408370 0.948270 0.499990 -0.626432
O8    O     O_R   0.948270 0.591630 0.499990 -0.539792
O9    O     O_R   0.908370 0.551730 0.000010 -0.637172
O10   O     O_R   0.448270 0.908370 0.000010 -0.647261
O11   O     O_R   0.091630 0.448270 0.000010 -0.619774
O12   O     O_R   0.551730 0.091630 0.000010 -0.648396
O13   O     O_R   0.091630 0.551730 0.999990 -0.609507
O14   O     O_R   0.551730 0.908370 0.999990 -0.572069
O15   O     O_R   0.908370 0.448270 0.999990 -0.612983
O16   O     O_R   0.448270 0.091630 0.999990 -0.554936
C1    C     C_R   0.379898 0.001038 0.502210 0.976545
C2    C     C_R   0.002204 0.379552 0.503517 0.848639
C3    C     C_R   0.620203 0.999053 0.501793 0.973052
C4    C     C_R   0.997801 0.620516 0.502365 0.848839
C5    C     C_R   0.879981 0.501009 0.999481 0.975118
C6    C     C_R   0.502067 0.880050 0.998856 0.937567
C7    C     C_R   0.120005 0.499478 0.000492 0.934777
C8    C     C_R   0.497821 0.119968 0.998247 0.930701
O17   O     O_R   0.499980 0.051730 0.417240 -0.587438
O18   O     O_R   0.948270 0.499980 0.417240 -0.587579
O19   O     O_R   0.500020 0.948270 0.417240 -0.598471
O20   O     O_R   0.051730 0.500020 0.417240 -0.612764
O21   O     O_R   0.500020 0.051730 0.582760 -0.590089
O22   O     O_R   0.051730 0.499980 0.582760 -0.600628
O23   O     O_R   0.499980 0.948270 0.582760 -0.591072
O24   O     O_R   0.948270 0.500020 0.582760 -0.608093
O25   O     O_R   0.999980 0.551730 0.917240 -0.603748
O26   O     O_R   0.448270 0.999980 0.917240 -0.571334
O27   O     O_R   0.000020 0.448270 0.917240 -0.575086
O28   O     O_R   0.551730 0.000020 0.917240 -0.571693
O29   O     O_R   0.000020 0.551730 0.082760 -0.561739
O30   O     O_R   0.551730 0.999980 0.082760 -0.621919
O31   O     O_R   0.999980 0.448270 0.082760 -0.643955
O32   O     O_R   0.448270 0.000020 0.082760 -0.610134
C9    C     C_R   0.500128 0.999839 0.390686 1.057338
C10   C     C_R   0.999871 0.500179 0.390903 0.868768
C11   C     C_R   0.500441 0.000131 0.609306 1.061559
C12   C     C_R   0.000020 0.500135 0.609090 0.953427
C13   C     C_R   0.998727 0.499858 0.890701 1.044695
C14   C     C_R   0.500007 0.999441 0.890921 1.003448
C15   C     C_R   0.999964 0.500100 0.109321 0.981468
C16   C     C_R   0.500081 0.000136 0.109083 0.958331
Zn1   Zn    Zn3+2 0.500000 0.069080 0.500000 1.069560
Zn2   Zn    Zn3+2 0.930920 0.500000 0.500000 1.097498
Zn3   Zn    Zn3+2 0.500000 0.930920 0.500000 1.066625
Zn4   Zn    Zn3+2 0.069080 0.500000 0.500000 1.071834
Zn5   Zn    Zn3+2 0.000000 0.569080 0.000000 1.060037
Zn6   Zn    Zn3+2 0.430920 0.000000 0.000000 1.086094
Zn7   Zn    Zn3+2 0.000000 0.430920 0.000000 1.057923
Zn8   Zn    Zn3+2 0.569080 0.000000 0.000000 1.064459
C17   C     C_1   0.500434 0.999597 0.330341 0.046196
C18   C     C_1   0.999241 0.500648 0.330644 -0.156636
C19   C     C_1   0.500399 0.000389 0.669721 0.071559
C20   C     C_1   0.999916 0.500053 0.669366 0.016917
C21   C     C_1   0.998316 0.499459 0.830368 0.038467
C22   C     C_1   0.500005 0.999503 0.830655 -0.022221
C23   C     C_1   0.998220 0.500329 0.169615 0.011448
C24   C     C_1   0.500375 0.000021 0.169352 0.015467
C25   C     C_1   0.500598 0.999647 0.279500 0.087041
C26   C     C_1   0.998266 0.500852 0.279794 0.037132
C27   C     C_1   0.500262 0.000243 0.720558 0.081026
C28   C     C_1   0.999383 0.499866 0.720238 0.142860
C29   C     C_1   0.998619 0.499532 0.779523 0.098009
C30   C     C_1   0.500092 0.999823 0.779826 0.051946
C31   C     C_1   0.997652 0.500650 0.220478 0.092556
C32   C     C_1   0.500582 0.999845 0.220218 0.124325
C33   C     C_R   0.317452 0.926835 0.420854 0.232509
C34   C     C_R   0.104405 0.290063 0.455926 0.255994
C35   C     C_R   0.683382 0.076256 0.423106 0.237399
C36   C     C_R   0.903742 0.704264 0.441965 0.256276
C37   C     C_R   0.696655 0.932752 0.588992 0.278159
C38   C     C_R   0.946339 0.314643 0.600180 0.236249
C39   C     C_R   0.304155 0.066428 0.590740 0.275226
C40   C     C_R   0.051754 0.686205 0.598419 0.236690
C41   C     C_R   0.813671 0.416068 0.929049 0.232934
C42   C     C_R   0.601644 0.804090 0.940331 0.253976
C43   C     C_R   0.183014 0.571733 0.917269 0.229023
C44   C     C_R   0.401746 0.199445 0.934267 0.251424
C45   C     C_R   0.195062 0.477101 0.102042 0.197739
C46   C     C_R   0.448293 0.815246 0.091157 0.246223
C47   C     C_R   0.813541 0.585457 0.072736 0.239406
C48   C     C_R   0.543796 0.185045 0.094786 0.233004
C49   C     C_R   0.288643 0.874350 0.400935 -0.205282
C50   C     C_R   0.130709 0.256847 0.409249 -0.218363
C51   C     C_R   0.713687 0.127775 0.403523 -0.210043
C52   C     C_R   0.885874 0.730865 0.389460 -0.230771
C53   C     C_R   0.730555 0.886227 0.618620 -0.231768
C54   C     C_R   0.890383 0.297281 0.623023 -0.203395
C55   C     C_R   0.270376 0.111975 0.622018 -0.229540
C56   C     C_R   0.108354 0.702139 0.620937 -0.199889
C57   C     C_R   0.782123 0.363072 0.914309 -0.219900
C58   C     C_R   0.653808 0.765229 0.930007 -0.187435
C59   C     C_R   0.211362 0.625306 0.899670 -0.216282
C60   C     C_R   0.357843 0.242700 0.912606 -0.207124
C61   C     C_R   0.222892 0.436430 0.142268 -0.203254
C62   C     C_R   0.391132 0.799356 0.111875 -0.202044
C63   C     C_R   0.788567 0.644534 0.084240 -0.194437
C64   C     C_R   0.599130 0.200330 0.120017 -0.190545
C65   C     C_R   0.225729 0.881354 0.390344 0.227390
C66   C     C_R   0.094649 0.216217 0.378229 0.226979
C67   C     C_R   0.776170 0.118907 0.391887 0.228300
C68   C     C_R   0.921410 0.775946 0.365099 0.245130
C69   C     C_R   0.788461 0.866754 0.599612 0.200440
C70   C     C_R   0.866388 0.240947 0.606050 0.208556
C71   C     C_R   0.211572 0.130281 0.604870 0.189349
C72   C     C_R   0.132859 0.758443 0.605225 0.205033
C73   C     C_R   0.718885 0.370846 0.906622 0.229413
C74   C     C_R   0.645120 0.701773 0.922620 0.193734
C75   C     C_R   0.274848 0.620290 0.892036 0.221779
C76   C     C_R   0.378379 0.299935 0.895028 0.226324
C77   C     C_R   0.278440 0.405112 0.128446 0.211677
C78   C     C_R   0.367118 0.743406 0.093905 0.197644
C79   C     C_R   0.725257 0.652639 0.083488 0.244533
C80   C     C_R   0.623990 0.256924 0.106203 0.204252
C81   C     C_R   0.194837 0.936817 0.408157 0.230564
C82   C     C_R   0.039054 0.198170 0.401649 0.230922
C83   C     C_R   0.805724 0.062676 0.408341 0.231020
C84   C     C_R   0.969778 0.800208 0.396376 0.232078
C85   C     C_R   0.814747 0.896448 0.552986 0.211456
C86   C     C_R   0.898860 0.202044 0.566877 0.229055
C87   C     C_R   0.184846 0.100948 0.557797 0.206258
C88   C     C_R   0.100520 0.798018 0.566804 0.226885
C89   C     C_R   0.691121 0.429265 0.918155 0.246055
C90   C     C_R   0.585713 0.680722 0.927925 0.125939
C91   C     C_R   0.306159 0.564946 0.908248 0.246895
C92   C     C_R   0.438392 0.314679 0.908752 0.205616
C93   C     C_R   0.309113 0.419197 0.077428 0.227209
C94   C     C_R   0.402145 0.703122 0.057592 0.236413
C95   C     C_R   0.689471 0.603765 0.064667 0.185863
C96   C     C_R   0.592011 0.297640 0.068467 0.237531
C97   C     C_R   0.220891 0.970858 0.454077 -0.044873
C98   C     C_R   0.021020 0.220685 0.456466 -0.064835
C99   C     C_R   0.779429 0.028734 0.453704 -0.042551
C100  C     C_R   0.982284 0.778975 0.452763 -0.064880
C101  C     C_R   0.783941 0.949109 0.528577 -0.097620
C102  C     C_R   0.950954 0.223716 0.538353 -0.101834
C103  C     C_R   0.216054 0.049384 0.531151 -0.089051
C104  C     C_R   0.048427 0.776738 0.537549 -0.104446
C105  C     C_R   0.719170 0.467830 0.959693 -0.019243
C106  C     C_R   0.543816 0.714902 0.963888 -0.042442
C107  C     C_R   0.279632 0.528096 0.951800 -0.036259
C108  C     C_R   0.467862 0.283276 0.955301 -0.039455
C109  C     C_R   0.281557 0.462655 0.038833 -0.064054
C110  C     C_R   0.456550 0.723761 0.031726 -0.083377
C111  C     C_R   0.717513 0.552640 0.032869 -0.069775
C112  C     C_R   0.541600 0.276488 0.035990 -0.084863
C113  C     C_R   0.284522 0.967386 0.458775 -0.039821
C114  C     C_R   0.044994 0.275839 0.474910 -0.074284
C115  C     C_R   0.715852 0.033668 0.459208 -0.040487
C116  C     C_R   0.958202 0.723110 0.468896 -0.061310
C117  C     C_R   0.721429 0.959718 0.539325 -0.073000
C118  C     C_R   0.968501 0.284267 0.550222 -0.038728
C119  C     C_R   0.278828 0.039496 0.541013 -0.080847
C120  C     C_R   0.030126 0.716605 0.548701 -0.037971
C121  C     C_R   0.782820 0.462547 0.963069 -0.039083
C122  C     C_R   0.550432 0.778749 0.967858 -0.011020
C123  C     C_R   0.215624 0.531156 0.954771 -0.016755
C124  C     C_R   0.454471 0.221390 0.962827 -0.050082
C125  C     C_R   0.219747 0.478232 0.046202 -0.076788
C126  C     C_R   0.471396 0.784546 0.041794 -0.058218
C127  C     C_R   0.781825 0.546680 0.034816 -0.010879
C128  C     C_R   0.525328 0.215687 0.044064 -0.058220
C129  C     C_R   0.186524 0.008515 0.493825 0.000777
C130  C     C_R   0.983351 0.189231 0.495337 0.015017
C131  C     C_R   0.813621 0.990497 0.492705 -0.003072
C132  C     C_R   0.017286 0.810921 0.494102 0.017960
C133  C     C_R   0.686145 0.509700 0.997479 -0.049689
C134  C     C_R   0.496591 0.687440 0.995980 0.012773
C135  C     C_R   0.313123 0.492906 0.994580 -0.014194
C136  C     C_R   0.507852 0.312002 0.994850 -0.012904
C137  C     C_R   0.313527 0.002595 0.501236 -0.069213
C138  C     C_R   0.009133 0.312444 0.513051 -0.000921
C139  C     C_R   0.686674 0.997706 0.500730 -0.069019
C140  C     C_R   0.990984 0.687864 0.510083 -0.003927
C141  C     C_R   0.813755 0.503062 0.999434 -0.063913
C142  C     C_R   0.508434 0.813655 0.002416 -0.059654
C143  C     C_R   0.186071 0.500389 0.999109 -0.046342
C144  C     C_R   0.491149 0.186464 0.001911 -0.055057
O33   O     O_R   0.999980 0.091600 0.546760 -0.595586
O34   O     O_R   0.908400 0.999980 0.546760 -0.601020
O35   O     O_R   0.000020 0.908400 0.546760 -0.600047
O36   O     O_R   0.091600 0.000020 0.546760 -0.599792
O37   O     O_R   0.000020 0.091600 0.453240 -0.578201
O38   O     O_R   0.091600 0.999980 0.453240 -0.575605
O39   O     O_R   0.999980 0.908400 0.453240 -0.582779
O40   O     O_R   0.908400 0.000020 0.453240 -0.575908
O41   O     O_R   0.499980 0.591600 0.046760 -0.580089
O42   O     O_R   0.408400 0.499980 0.046760 -0.595637
O43   O     O_R   0.500020 0.408400 0.046760 -0.581265
O44   O     O_R   0.591600 0.500020 0.046760 -0.541775
O45   O     O_R   0.500020 0.591600 0.953240 -0.570977
O46   O     O_R   0.591600 0.499980 0.953240 -0.581273
O47   O     O_R   0.499980 0.408400 0.953240 -0.585986
O48   O     O_R   0.408400 0.500020 0.953240 -0.578171
C145  C     C_R   0.991623 0.120968 0.499178 0.978009
C146  C     C_R   0.879482 0.997571 0.498731 0.968075
C147  C     C_R   0.008390 0.879078 0.498842 0.971968
C148  C     C_R   0.120614 0.001564 0.498965 0.974978
C149  C     C_R   0.497431 0.620715 0.999342 0.923919
C150  C     C_R   0.379429 0.497297 0.998968 0.964275
C151  C     C_R   0.504155 0.379133 0.999033 0.960866
C152  C     C_R   0.619992 0.505948 0.999662 0.898114
Zn9   Zn    Zn3+2 1.000000 1.000000 0.562420 1.129944
Zn10  Zn    Zn3+2 1.000000 1.000000 0.437580 1.301373
Zn11  Zn    Zn3+2 0.500000 0.500000 0.062420 1.193858
Zn12  Zn    Zn3+2 0.500000 0.500000 0.937580 1.303079
C153  C     C_R   0.297397 0.141209 0.672670 0.217972
C154  C     C_R   0.327323 0.196750 0.666736 -0.041966
C155  C     C_R   0.362502 0.218858 0.711510 -0.096085
C156  C     C_R   0.368331 0.185438 0.762077 -0.091842
C157  C     C_R   0.337119 0.131072 0.768764 -0.122537
C158  C     C_R   0.301498 0.109064 0.724320 -0.082223
H1    H     H_    0.325392 0.221420 0.626713 0.147089
H2    H     H_    0.386290 0.261171 0.706581 0.185784
H3    H     H_    0.396354 0.202254 0.796282 0.185363
H4    H     H_    0.341123 0.105349 0.807949 0.217506
H5    H     H_    0.279398 0.065712 0.729125 0.163226
C159  C     C_R   0.852541 0.343493 0.655679 0.193622
C160  C     C_R   0.827300 0.395480 0.627274 -0.131308
C161  C     C_R   0.794714 0.441760 0.657579 -0.117700
C162  C     C_R   0.787583 0.436810 0.716500 -0.041985
C163  C     C_R   0.812935 0.385536 0.745137 -0.094344
C164  C     C_R   0.845145 0.338722 0.714947 0.004454
H6    H     H_    0.833349 0.400334 0.581715 0.149541
H7    H     H_    0.775451 0.481715 0.635443 0.170133
H8    H     H_    0.762793 0.472900 0.740055 0.199370
H9    H     H_    0.808086 0.382704 0.790827 0.169286
H10   H     H_    0.865699 0.299828 0.737763 0.160213
C165  C     C_R   0.706125 0.858166 0.670608 0.220759
C166  C     C_R   0.673685 0.803894 0.666677 -0.031389
C167  C     C_R   0.647004 0.779780 0.715292 -0.095005
C168  C     C_R   0.652544 0.809726 0.767838 -0.072087
C169  C     C_R   0.685623 0.863269 0.772007 -0.127496
C170  C     C_R   0.712384 0.887508 0.723572 -0.079660
H11   H     H_    0.668258 0.781060 0.625892 0.149805
H12   H     H_    0.621636 0.738199 0.712166 0.176553
H13   H     H_    0.631532 0.791154 0.805318 0.177170
H14   H     H_    0.690616 0.886156 0.812652 0.202440
H15   H     H_    0.737160 0.929484 0.727085 0.158346
C171  C     C_R   0.147079 0.653621 0.649130 0.188401
C172  C     C_R   0.174096 0.605804 0.615827 -0.133852
C173  C     C_R   0.208580 0.557892 0.641561 -0.110300
C174  C     C_R   0.216026 0.557177 0.700704 -0.047211
C175  C     C_R   0.188950 0.604333 0.734113 -0.091273
C176  C     C_R   0.154612 0.652597 0.708511 0.008457
H16   H     H_    0.168105 0.605526 0.569969 0.150004
H17   H     H_    0.229236 0.521159 0.615679 0.165862
H18   H     H_    0.242485 0.519932 0.720696 0.188169
H19   H     H_    0.194329 0.602983 0.779849 0.170202
H20   H     H_    0.132645 0.688260 0.734703 0.158880
C177  C     C_R   0.678669 0.187174 0.393428 0.202327
C178  C     C_R   0.639250 0.210733 0.436354 -0.048558
C179  C     C_R   0.604724 0.265672 0.428096 -0.138069
C180  C     C_R   0.608949 0.297634 0.376872 -0.100717
C181  C     C_R   0.647639 0.274640 0.333814 -0.102326
C182  C     C_R   0.682262 0.219693 0.341877 -0.078728
H21   H     H_    0.635369 0.186562 0.476380 0.154440
H22   H     H_    0.574621 0.283420 0.461425 0.148842
H23   H     H_    0.582115 0.340117 0.370477 0.154347
H24   H     H_    0.650552 0.299253 0.293988 0.193272
H25   H     H_    0.710866 0.202503 0.307420 0.179489
C183  C     C_R   0.196624 0.260686 0.395971 0.201990
C184  C     C_R   0.240477 0.242113 0.436937 -0.010211
C185  C     C_R   0.302647 0.244965 0.424953 -0.140542
C186  C     C_R   0.321576 0.266159 0.372001 -0.087544
C187  C     C_R   0.278352 0.284074 0.330828 -0.075146
C188  C     C_R   0.216148 0.281013 0.342568 -0.091829
H26   H     H_    0.226484 0.225213 0.478051 0.166456
H27   H     H_    0.336132 0.230651 0.456699 0.144582
H28   H     H_    0.369723 0.268383 0.362762 0.159960
H29   H     H_    0.293042 0.300042 0.289705 0.213500
H30   H     H_    0.183343 0.293751 0.309867 0.170451
C189  C     C_R   0.325572 0.815940 0.390323 0.205837
C190  C     C_R   0.367787 0.795323 0.432077 -0.058111
C191  C     C_R   0.404157 0.741551 0.423390 -0.134390
C192  C     C_R   0.399038 0.707747 0.372890 -0.095536
C193  C     C_R   0.357582 0.727723 0.330996 -0.113352
C194  C     C_R   0.321113 0.781483 0.339507 -0.072675
H31   H     H_    0.372415 0.820844 0.471592 0.153456
H32   H     H_    0.436374 0.726130 0.455842 0.147707
H33   H     H_    0.427290 0.666167 0.366162 0.151291
H34   H     H_    0.353885 0.701703 0.291689 0.175873
H35   H     H_    0.290318 0.796056 0.305895 0.172319
C195  C     C_R   0.831507 0.710356 0.358517 0.203701
C196  C     C_R   0.772905 0.731438 0.375476 -0.014587
C197  C     C_R   0.721714 0.712913 0.345344 -0.125236
C198  C     C_R   0.728800 0.673392 0.298233 -0.065951
C199  C     C_R   0.787091 0.652295 0.281166 -0.132718
C200  C     C_R   0.838392 0.670795 0.311097 -0.086397
H36   H     H_    0.767025 0.762284 0.411758 0.162663
H37   H     H_    0.676556 0.729278 0.358442 0.155951
H38   H     H_    0.689139 0.659165 0.274929 0.188347
H39   H     H_    0.792532 0.621865 0.244577 0.181828
H40   H     H_    0.883395 0.654451 0.297382 0.161479
C201  C     C_R   0.828701 0.696854 0.094499 0.198538
C202  C     C_R   0.872087 0.710691 0.052974 -0.074718
C203  C     C_R   0.908686 0.761307 0.060133 -0.167381
C204  C     C_R   0.902243 0.798583 0.108710 -0.082075
C205  C     C_R   0.859572 0.784940 0.150383 -0.056665
C206  C     C_R   0.823364 0.733920 0.143770 -0.058463
H41   H     H_    0.876842 0.682857 0.014589 0.154799
H42   H     H_    0.941643 0.771944 0.027765 0.134213
H43   H     H_    0.930226 0.838094 0.114027 0.168815
H44   H     H_    0.854305 0.814183 0.187657 0.215299
H45   H     H_    0.791080 0.723732 0.176799 0.166615
C207  C     C_R   0.352201 0.847271 0.141140 0.193071
C208  C     C_R   0.325753 0.896030 0.109118 -0.126699
C209  C     C_R   0.291984 0.943909 0.136106 -0.120961
C210  C     C_R   0.284859 0.943766 0.195265 -0.043996
C211  C     C_R   0.311345 0.895661 0.227457 -0.087232
C212  C     C_R   0.344615 0.847187 0.200549 0.006446
H46   H     H_    0.331777 0.897158 0.063311 0.150538
H47   H     H_    0.271811 0.981406 0.111201 0.155942
H48   H     H_    0.259168 0.981131 0.216228 0.185903
H49   H     H_    0.306507 0.896579 0.273295 0.169541
H50   H     H_    0.365989 0.810669 0.225839 0.152978
C213  C     C_R   0.194412 0.425648 0.198356 0.225916
C214  C     C_R   0.139344 0.395184 0.201437 -0.064144
C215  C     C_R   0.110708 0.387988 0.254038 -0.159988
C216  C     C_R   0.136746 0.411196 0.303750 -0.133617
C217  C     C_R   0.192037 0.440648 0.301081 -0.111025
C218  C     C_R   0.220919 0.447836 0.248582 -0.057034
H51   H     H_    0.118300 0.377894 0.163065 0.138889
H52   H     H_    0.068135 0.364760 0.256253 0.169656
H53   H     H_    0.114515 0.405541 0.344423 0.166201
H54   H     H_    0.212389 0.458095 0.339680 0.166292
H55   H     H_    0.263265 0.471574 0.246881 0.160309
C219  C     C_R   0.636023 0.151265 0.149451 0.186673
C220  C     C_R   0.663327 0.102899 0.116997 -0.130943
C221  C     C_R   0.696083 0.054469 0.143733 -0.119135
C222  C     C_R   0.701636 0.053831 0.203043 -0.054784
C223  C     C_R   0.674363 0.101560 0.235624 -0.109108
C224  C     C_R   0.641576 0.150263 0.209062 0.000950
H56   H     H_    0.658953 0.102617 0.070989 0.152128
H57   H     H_    0.716939 0.017324 0.118477 0.148155
H58   H     H_    0.726875 0.016259 0.223797 0.180028
H59   H     H_    0.678573 0.100432 0.281467 0.179836
H60   H     H_    0.619648 0.186449 0.234736 0.162379
C225  C     C_R   0.174110 0.683673 0.890501 0.200514
C226  C     C_R   0.129516 0.701746 0.931131 -0.034891
C227  C     C_R   0.093078 0.755602 0.923682 -0.138617
C228  C     C_R   0.100654 0.792150 0.875655 -0.101858
C229  C     C_R   0.144659 0.774858 0.835018 -0.106625
C230  C     C_R   0.181182 0.720989 0.842271 -0.090127
H61   H     H_    0.123057 0.674182 0.968816 0.161805
H62   H     H_    0.058932 0.768972 0.955185 0.132920
H63   H     H_    0.072347 0.833793 0.869865 0.144520
H64   H     H_    0.150238 0.803013 0.797601 0.183953
H65   H     H_    0.213836 0.708323 0.809476 0.180562
C231  C     C_R   0.715055 0.791541 0.923858 0.179590
C232  C     C_R   0.736772 0.830327 0.966966 -0.013088
C233  C     C_R   0.795048 0.853526 0.963381 -0.151484
C234  C     C_R   0.832039 0.838904 0.916416 -0.132187
C235  C     C_R   0.810631 0.801382 0.872807 -0.114436
C236  C     C_R   0.752508 0.777799 0.876408 -0.090982
H66   H     H_    0.708495 0.842755 0.003354 0.182366
H67   H     H_    0.811496 0.882908 0.997028 0.145791
H68   H     H_    0.877149 0.856910 0.913672 0.141983
H69   H     H_    0.839092 0.790529 0.836142 0.175788
H70   H     H_    0.736834 0.749342 0.841872 0.178094
C237  C     C_R   0.815975 0.303009 0.904162 0.204339
C238  C     C_R   0.857798 0.280777 0.945504 -0.039186
C239  C     C_R   0.891159 0.225105 0.936817 -0.135434
C240  C     C_R   0.883302 0.191144 0.886748 -0.106389
C241  C     C_R   0.842088 0.212823 0.845281 -0.106000
C242  C     C_R   0.808558 0.268421 0.853822 -0.084422
H71   H     H_    0.864511 0.306598 0.984544 0.150664
H72   H     H_    0.923199 0.208351 0.968893 0.146953
H73   H     H_    0.909260 0.148117 0.880019 0.145968
H74   H     H_    0.836297 0.186672 0.806327 0.181819
H75   H     H_    0.777729 0.284511 0.820660 0.172393
C243  C     C_R   0.292950 0.226103 0.906824 0.182310
C244  C     C_R   0.262818 0.203315 0.954672 -0.028572
C245  C     C_R   0.201912 0.187365 0.950906 -0.138582
C246  C     C_R   0.170347 0.194090 0.899417 -0.109220
C247  C     C_R   0.199596 0.216971 0.851685 -0.091070
C248  C     C_R   0.260436 0.233148 0.855331 -0.090118
H76   H     H_    0.286554 0.198018 0.995007 0.163969
H77   H     H_    0.179186 0.169804 0.987954 0.154398
H78   H     H_    0.123208 0.181673 0.896531 0.149076
H79   H     H_    0.175113 0.222226 0.811778 0.185940
H80   H     H_    0.281740 0.250750 0.817783 0.179029
N1    N     N_R   0.366721 0.949284 0.387644 0.188616
O49   O     O_R   0.367505 0.008157 0.377208 -0.427997
O50   O     O_R   0.399229 0.911517 0.355390 -0.428126
N2    N     N_R   0.141743 0.329722 0.489075 0.225320
O51   O     O_R   0.174639 0.370191 0.464224 -0.421790
O52   O     O_R   0.144194 0.324357 0.544247 -0.259801
N3    N     N_R   0.632378 0.056334 0.390420 0.186119
O53   O     O_R   0.631541 0.998574 0.375051 -0.444656
O54   O     O_R   0.597292 0.096418 0.363470 -0.431617
N4    N     N_R   0.861556 0.667552 0.472276 0.230458
O55   O     O_R   0.833933 0.623176 0.446740 -0.394038
O56   O     O_R   0.851387 0.677896 0.526211 -0.262873
N5    N     N_R   0.642088 0.958622 0.614660 0.173057
O57   O     O_R   0.637392 0.017685 0.625026 -0.409101
O58   O     O_R   0.604013 0.922570 0.638589 -0.437742
N6    N     N_R   0.984853 0.354635 0.632707 0.190245
O59   O     O_R   0.041874 0.359179 0.618984 -0.327719
O60   O     O_R   0.969310 0.371224 0.684218 -0.415305
N7    N     N_R   0.360033 0.041856 0.614571 0.170569
O61   O     O_R   0.365422 0.983250 0.626192 -0.411552
O62   O     O_R   0.398686 0.079149 0.636382 -0.439337
N8    N     N_R   0.012755 0.646813 0.630357 0.191031
O63   O     O_R   0.955445 0.643679 0.616773 -0.325930
O64   O     O_R   0.028569 0.629454 0.681437 -0.419083
N9    N     N_R   0.864875 0.431586 0.894564 0.192029
O65   O     O_R   0.866199 0.487076 0.873887 -0.430888
O66   O     O_R   0.901265 0.388617 0.872923 -0.409166
N10   N     N_R   0.594781 0.860248 0.908526 0.193562
O67   O     O_R   0.548373 0.868134 0.874371 -0.436488
O68   O     O_R   0.637532 0.899923 0.908181 -0.422559
N11   N     N_R   0.132352 0.550359 0.884973 0.187253
O69   O     O_R   0.130110 0.491517 0.874232 -0.413547
O70   O     O_R   0.099635 0.588631 0.853740 -0.428414
N12   N     N_R   0.400922 0.138208 0.911694 0.198332
O71   O     O_R   0.441825 0.121281 0.874093 -0.471598
O72   O     O_R   0.354006 0.104533 0.919281 -0.409271
N13   N     N_R   0.153972 0.527519 0.120411 0.201170
O73   O     O_R   0.156935 0.581043 0.095960 -0.315067
O74   O     O_R   0.125692 0.525971 0.168927 -0.418303
N14   N     N_R   0.487015 0.853796 0.124826 0.193621
O75   O     O_R   0.544772 0.855821 0.112810 -0.356744
O76   O     O_R   0.470133 0.871292 0.175723 -0.420351
N15   N     N_R   0.860953 0.560007 0.109490 0.192906
O77   O     O_R   0.861754 0.501477 0.121701 -0.413697
O78   O     O_R   0.892587 0.596033 0.141496 -0.411127
N16   N     N_R   0.501850 0.147825 0.125556 0.193780
O79   O     O_R   0.445357 0.145745 0.108958 -0.362552
O80   O     O_R   0.513891 0.132430 0.178002 -0.418536
N17   N     N_R   0.194726 0.835087 0.359386 0.252611
O81   O     O_R   0.181857 0.843136 0.305694 -0.310223
O82   O     O_R   0.190422 0.780526 0.381439 -0.313537
N18   N     N_R   0.115285 0.191499 0.324465 0.236728
O83   O     O_R   0.086814 0.207516 0.277799 -0.343932
O84   O     O_R   0.163724 0.154820 0.321741 -0.280940
N19   N     N_R   0.808246 0.164312 0.361412 0.251381
O85   O     O_R   0.820613 0.155953 0.307607 -0.309176
O86   O     O_R   0.814851 0.218421 0.384339 -0.310430
N20   N     N_R   0.907875 0.797624 0.308714 0.229356
O87   O     O_R   0.945681 0.784922 0.267191 -0.349639
O88   O     O_R   0.856785 0.828294 0.298516 -0.349823
N21   N     N_R   0.820987 0.817754 0.629066 0.261351
O89   O     O_R   0.864591 0.830435 0.664317 -0.336185
O90   O     O_R   0.803365 0.761408 0.624856 -0.306565
N22   N     N_R   0.807166 0.224903 0.625488 0.252414
O91   O     O_R   0.796827 0.217941 0.679596 -0.380060
O92   O     O_R   0.764108 0.214674 0.588860 -0.309018
N23   N     N_R   0.178702 0.177743 0.636472 0.258363
O93   O     O_R   0.135786 0.163178 0.671445 -0.336809
O94   O     O_R   0.194666 0.234707 0.633703 -0.319131
N24   N     N_R   0.192313 0.773722 0.625156 0.253289
O95   O     O_R   0.204338 0.774733 0.679467 -0.379869
O96   O     O_R   0.234672 0.786728 0.588968 -0.301666
N25   N     N_R   0.683941 0.322311 0.883458 0.238379
O97   O     O_R   0.665764 0.324308 0.830656 -0.303523
O98   O     O_R   0.677381 0.272294 0.912742 -0.330615
N26   N     N_R   0.694570 0.660229 0.905694 0.217188
O99   O     O_R   0.697981 0.639756 0.853503 -0.304299
O100  O     O_R   0.741789 0.652611 0.938902 -0.411344
N27   N     N_R   0.306947 0.668569 0.865618 0.238911
O101  O     O_R   0.323805 0.663453 0.812580 -0.320990
O102  O     O_R   0.313690 0.720353 0.892733 -0.313339
N28   N     N_R   0.339456 0.342288 0.863709 0.244183
O103  O     O_R   0.345500 0.346940 0.808752 -0.345132
O104  O     O_R   0.292395 0.369119 0.888656 -0.317615
N29   N     N_R   0.303184 0.358680 0.166155 0.240022
O105  O     O_R   0.345459 0.372358 0.202471 -0.369497
O106  O     O_R   0.276722 0.306418 0.170584 -0.366076
N30   N     N_R   0.306313 0.728719 0.109978 0.255866
O107  O     O_R   0.290464 0.728635 0.163386 -0.359700
O108  O     O_R   0.266494 0.715443 0.071102 -0.290541
N31   N     N_R   0.696873 0.707990 0.106865 0.241404
O109  O     O_R   0.670759 0.707142 0.156595 -0.330687
O110  O     O_R   0.699494 0.759840 0.079699 -0.396164
N32   N     N_R   0.682916 0.271967 0.127731 0.252392
O111  O     O_R   0.694303 0.270124 0.182138 -0.386486
O112  O     O_R   0.725193 0.288571 0.092912 -0.304742
N33   N     N_R   0.154490 0.968167 0.368336 0.224422
O113  O     O_R   0.160645 0.026469 0.358035 -0.287672
O114  O     O_R   0.111973 0.939439 0.341913 -0.237665
N34   N     N_R   0.997791 0.164111 0.367319 0.242580
O115  O     O_R   0.939616 0.177594 0.369983 -0.281815
O116  O     O_R   0.017473 0.118695 0.334735 -0.238079
N35   N     N_R   0.846885 0.032090 0.368549 0.224789
O117  O     O_R   0.840589 0.974172 0.355849 -0.305344
O118  O     O_R   0.891665 0.060783 0.346116 -0.242814
N36   N     N_R   0.012118 0.837480 0.367412 0.248562
O119  O     O_R   0.070090 0.828390 0.376708 -0.287126
O120  O     O_R   0.993299 0.881850 0.333697 -0.241066
N37   N     N_R   0.865390 0.866402 0.523569 0.182284
O121  O     O_R   0.901312 0.826685 0.549833 -0.344311
O122  O     O_R   0.866757 0.867424 0.468115 -0.425573
N38   N     N_R   0.872525 0.145719 0.549607 0.195968
O123  O     O_R   0.851756 0.108667 0.587676 -0.340929
O124  O     O_R   0.857851 0.138240 0.496449 -0.438948
N39   N     N_R   0.133491 0.130957 0.529763 0.175621
O125  O     O_R   0.097704 0.170212 0.557117 -0.343441
O126  O     O_R   0.131300 0.130304 0.474373 -0.448202
N40   N     N_R   0.127210 0.854288 0.550623 0.197504
O127  O     O_R   0.147030 0.891477 0.589558 -0.342547
O128  O     O_R   0.143361 0.861453 0.497924 -0.434156
N41   N     N_R   0.655662 0.456971 0.872923 0.231978
O129  O     O_R   0.677903 0.501780 0.844082 -0.300933
O130  O     O_R   0.605865 0.432570 0.855293 -0.242499
N42   N     N_R   0.562792 0.644725 0.881621 0.234668
O131  O     O_R   0.513282 0.663454 0.855084 -0.289071
O132  O     O_R   0.589736 0.592629 0.866624 -0.258232
N43   N     N_R   0.351985 0.539911 0.870046 0.227811
O133  O     O_R   0.346962 0.484817 0.848839 -0.278932
O134  O     O_R   0.398171 0.571978 0.855491 -0.249742
N44   N     N_R   0.473887 0.346032 0.867324 0.229446
O135  O     O_R   0.529809 0.326736 0.857197 -0.277356
O136  O     O_R   0.451836 0.394729 0.841022 -0.251610
N45   N     N_R   0.361131 0.381385 0.059901 0.199719
O137  O     O_R   0.400563 0.359488 0.096850 -0.312598
O138  O     O_R   0.363603 0.360741 0.007862 -0.459580
N46   N     N_R   0.376978 0.646280 0.040620 0.198359
O139  O     O_R   0.351840 0.611537 0.078159 -0.348112
O140  O     O_R   0.368077 0.636053 0.986790 -0.426565
N47   N     N_R   0.627354 0.606529 0.082434 0.203418
O141  O     O_R   0.613959 0.575758 0.127865 -0.319269
O142  O     O_R   0.594946 0.656702 0.071847 -0.386744
N48   N     N_R   0.617006 0.356025 0.057700 0.211487
O143  O     O_R   0.632872 0.391053 0.099980 -0.313467
O144  O     O_R   0.635775 0.367659 0.006738 -0.440256

loop_
_geom_bond_atom_site_label_1
_geom_bond_atom_site_label_2
_geom_bond_distance
_ccdc_geom_bond_type
C232  C233  1.397723 A    
C3    C139  1.458184 S    
C8    C144  1.444700 S    
C84   N36   1.433054 S    
N13   O73   1.301958 A    
C196  C197  1.398671 A    
C77   C93   1.415700 A    
C10   C18   1.413493 S    
N30   O108  1.301485 A    
C222  C223  1.396505 A    
C208  H46   1.083311 S    
N17   O81   1.301268 A    
C192  C193  1.395824 A    
C247  C248  1.397803 A    
C167  H12   1.082287 S    
C14   C22   1.413537 S    
C91   N43   1.434644 S    
C89   N41   1.433840 S    
O18   Zn2   1.978828 S    
C70   N22   1.436141 S    
C235  H69   1.082402 S    
O41   Zn11  2.021929 S    
C90   C106  1.428705 A    
C205  H44   1.080049 S    
N41   O129  1.300410 A    
C201  C202  1.406333 A    
O25   C13   1.283255 A    
O34   C146  1.293851 A    
N48   O143  1.301460 A    
C117  C139  1.425212 A    
C164  H10   1.082737 S    
C190  H31   1.083290 S    
C219  C224  1.403465 A    
C47   C127  1.421986 A    
N31   O109  1.301190 A    
O19   Zn3   1.979600 S    
C214  C215  1.398401 A    
C48   C128  1.416174 A    
C46   C126  1.415380 A    
C48   N16   1.447412 S    
C216  C217  1.397627 A    
C104  C120  1.407258 A    
C47   N15   1.443112 S    
C89   C105  1.435252 A    
C75   N27   1.432091 S    
C102  C130  1.424375 A    
C98   C114  1.393513 A    
N9    O66   1.301306 A    
C74   C90   1.406282 A    
O5    Zn1   2.029634 S    
C197  H37   1.082300 S    
O39   C147  1.256931 A    
C68   C84   1.408222 A    
O42   C150  1.289940 A    
C163  C164  1.400307 A    
C96   C112  1.432404 A    
N36   O120  1.301859 A    
N39   O126  1.299968 A    
C123  C143  1.413045 A    
C213  C214  1.404825 A    
C125  C143  1.403411 A    
C51   C67   1.403444 A    
O41   C149  1.282243 A    
N2    O52   1.300800 A    
C242  H75   1.079442 S    
O17   C9    1.282331 A    
N41   O130  1.300709 A    
C65   N17   1.430180 S    
C209  C210  1.396697 A    
C172  H16   1.083361 S    
O46   C152  1.262265 A    
C211  C212  1.400610 A    
C109  C135  1.427915 A    
C132  C147  1.485469 S    
C155  C156  1.396529 A    
C218  H55   1.082968 S    
C203  C204  1.396435 A    
N38   O124  1.298082 A    
C62   C207  1.481673 S    
N42   O131  1.301890 A    
C79   C95   1.414414 A    
C97   C113  1.399461 A    
C87   C103  1.426457 A    
C190  C191  1.397679 A    
C69   N21   1.433948 S    
C88   C104  1.424904 A    
O40   Zn10  2.044392 S    
C100  C116  1.397335 A    
C47   C63   1.395763 A    
C101  C117  1.404157 A    
N27   O102  1.300780 A    
C23   C31   1.193050 T    
O26   Zn6   1.978828 S    
N32   O112  1.301382 A    
C170  H15   1.083124 S    
C57   C237  1.488603 S    
O33   Zn9   2.021929 S    
C219  C220  1.405113 A    
O27   C13   1.282680 A    
O8    Zn2   2.039182 S    
O31   C15   1.281360 A    
C1    C137  1.455758 S    
C191  H32   1.082363 S    
O32   C16   1.293012 A    
N20   O88   1.300819 A    
C71   N23   1.433742 S    
C193  H34   1.082562 S    
C173  H17   1.082311 S    
C160  H6    1.083413 S    
C221  C222  1.396298 A    
C85   N37   1.438491 S    
N44   O135  1.300970 A    
C33   C49   1.402988 A    
C188  H30   1.079830 S    
C45   C125  1.419078 A    
N10   O67   1.300711 A    
C34   C50   1.416409 A    
O38   Zn10  2.043022 S    
C181  H24   1.082133 S    
C155  H2    1.082267 S    
C86   N38   1.429824 S    
C116  C140  1.411813 A    
O38   C148  1.247297 A    
C244  H76   1.083448 S    
C220  H56   1.083203 S    
C105  C121  1.398786 A    
C38   C54   1.408129 A    
C111  C127  1.412438 A    
C106  C134  1.434724 A    
O11   C7    1.296660 A    
N34   O115  1.298786 A    
C102  C118  1.410225 A    
C118  C138  1.409363 A    
C62   C78   1.405644 A    
O16   Zn6   2.039182 S    
N19   O86   1.301168 A    
C41   N9    1.438968 S    
O7    Zn3   2.029636 S    
C239  H72   1.082338 S    
O4    C4    1.315596 A    
C35   C115  1.423782 A    
C87   N39   1.436742 S    
C241  H74   1.082450 S    
O34   Zn9   2.043059 S    
C52   C195  1.479064 S    
C234  C235  1.396424 A    
N23   O94   1.300570 A    
O6    Zn4   2.039181 S    
C243  C244  1.406998 A    
C159  C164  1.404873 A    
C59   C225  1.492566 S    
O15   Zn7   2.029636 S    
C245  C246  1.396385 A    
C236  H70   1.080002 S    
C229  C230  1.398269 A    
C165  C170  1.401334 A    
N11   O69   1.301850 A    
C126  C142  1.402733 A    
O9    C5    1.287557 A    
N5    O57   1.301527 A    
C176  H20   1.081630 S    
C226  H61   1.083142 S    
N15   O78   1.301522 A    
O21   Zn1   1.979589 S    
N25   O97   1.300811 A    
C66   N18   1.433408 S    
C174  C175  1.396594 A    
N33   O113  1.301331 A    
O23   C11   1.282220 A    
C184  H26   1.083554 S    
C83   N35   1.438589 S    
O47   Zn12  2.021968 S    
C58   C231  1.490821 S    
O37   Zn10  2.017354 S    
C181  C182  1.398208 A    
C223  H59   1.079384 S    
C110  C126  1.390045 A    
C83   C99   1.434002 A    
C101  C131  1.414447 A    
C166  C167  1.397698 A    
O13   C7    1.268617 A    
C92   N44   1.439143 S    
C177  C178  1.407454 A    
C81   C97   1.434008 A    
C198  H38   1.082297 S    
C43   N11   1.436202 S    
C248  H80   1.077698 S    
C228  C229  1.396013 A    
O2    Zn2   2.006245 S    
C19   C27   1.192402 T    
C227  H62   1.082532 S    
C212  H50   1.082147 S    
C52   C68   1.402163 A    
O35   Zn9   2.017317 S    
C85   C101  1.423857 A    
O7    C1    1.280031 A    
C91   C107  1.440279 A    
C234  H68   1.082325 S    
O26   C14   1.293084 A    
O29   C15   1.284573 A    
O46   Zn12  2.043022 S    
O30   C16   1.291730 A    
C222  H58   1.082436 S    
C78   C94   1.418853 A    
C35   C51   1.405053 A    
O29   Zn5   1.979589 S    
C224  H60   1.082389 S    
C192  H33   1.082321 S    
C167  C168  1.396925 A    
C54   C159  1.483118 S    
O48   Zn12  2.044392 S    
C186  C187  1.397257 A    
C235  C236  1.398004 A    
C48   C64   1.401869 A    
C74   N26   1.434496 S    
C60   C243  1.490055 S    
C171  C176  1.402443 A    
C186  H28   1.082346 S    
C113  C137  1.417935 A    
C44   N12   1.427049 S    
N24   O95   1.300656 A    
C42   C58   1.411662 A    
C108  C124  1.398481 A    
C109  C125  1.394314 A    
N6    O59   1.300914 A    
C182  H25   1.078729 S    
N28   O103  1.301072 A    
N26   O99   1.300627 A    
C42   C122  1.429590 A    
N21   O90   1.300641 A    
C157  C158  1.396055 A    
C168  H13   1.081675 S    
O36   C148  1.291674 A    
C220  C221  1.397432 A    
N37   O122  1.301421 A    
C90   N42   1.436447 S    
C166  H11   1.083107 S    
O44   C152  1.279301 A    
C7    C143  1.451445 S    
C198  C199  1.397980 A    
C64   C219  1.481645 S    
N15   O77   1.302034 A    
C76   C92   1.405302 A    
C99   C115  1.400929 A    
C165  C166  1.404324 A    
C66   C82   1.411061 A    
N8    O63   1.301538 A    
C99   C131  1.428121 A    
N45   O138  1.297783 A    
C163  H9    1.079518 S    
C237  C242  1.407704 A    
C70   C86   1.415327 A    
N46   O140  1.296426 A    
N32   O111  1.300417 A    
O32   Zn6   1.977416 S    
N12   O71   1.299334 A    
N4    O56   1.301326 A    
N43   O133  1.300070 A    
C46   C62   1.404051 A    
C67   N19   1.430946 S    
N14   O75   1.301821 A    
O18   C10   1.291277 A    
C69   C85   1.409738 A    
C209  H47   1.082369 S    
O22   Zn4   1.978839 S    
C171  C172  1.404936 A    
C185  H27   1.082452 S    
O23   Zn3   1.974874 S    
C180  C181  1.396113 A    
C153  C158  1.402228 A    
C77   N29   1.432475 S    
C203  H42   1.082494 S    
O20   Zn4   1.977417 S    
N29   O106  1.300643 A    
C58   C74   1.406812 A    
O12   C8    1.309686 A    
O1    C1    1.289338 A    
C206  H45   1.081228 S    
C38   N6    1.449837 S    
C27   C30   1.390233 S    
O14   C6    1.274539 A    
C131  C146  1.466811 S    
C178  C179  1.397654 A    
C54   C70   1.406141 A    
C199  H39   1.082712 S    
C6    C142  1.443063 S    
C107  C123  1.405340 A    
C129  C148  1.466275 S    
C247  H79   1.082529 S    
C133  C152  1.458810 S    
N48   O144  1.294952 A    
N7    O62   1.299493 A    
C121  C141  1.414516 A    
C210  C211  1.396707 A    
O30   Zn8   1.978839 S    
C2    C138  1.474633 S    
C76   N28   1.431703 S    
C161  C162  1.396469 A    
C49   C65   1.404354 A    
C193  C194  1.398047 A    
C229  H64   1.082430 S    
C45   N13   1.449987 S    
C53   C69   1.394557 A    
N9    O65   1.301537 A    
N35   O118  1.299909 A    
O45   C149  1.248721 A    
C169  C170  1.396118 A    
C60   C76   1.403361 A    
C67   C83   1.411170 A    
C159  C160  1.405111 A    
C79   N31   1.433845 S    
N16   O79   1.301475 A    
C45   C61   1.414845 A    
C244  C245  1.397925 A    
C153  C154  1.404633 A    
O10   C6    1.306881 A    
C106  C122  1.400693 A    
C187  H29   1.081404 S    
N11   O70   1.301564 A    
C33   N1    1.437832 S    
C15   C23   1.414754 S    
C199  C200  1.398104 A    
C107  C135  1.444577 A    
C16   C24   1.413614 S    
O2    C2    1.316652 A    
N40   O128  1.298698 A    
C241  C242  1.397895 A    
O35   C147  1.297086 A    
C49   C189  1.492952 S    
N18   O83   1.300890 A    
C39   N7    1.429679 S    
C195  C196  1.403321 A    
O33   C145  1.297148 A    
C243  C248  1.407400 A    
C213  C218  1.404448 A    
C156  H3    1.081214 S    
C238  C239  1.397893 A    
N36   O119  1.297201 A    
O31   Zn7   1.974874 S    
C178  H21   1.083419 S    
C28   C29   1.390723 S    
N42   O132  1.298472 A    
C127  C141  1.417024 A    
C189  C190  1.408216 A    
C93   N45   1.435121 S    
C240  H73   1.082305 S    
C174  H18   1.082456 S    
C43   C59   1.406177 A    
C184  C185  1.397780 A    
O21   C11   1.283449 A    
N13   O74   1.298553 A    
O22   C12   1.292977 A    
C56   C171  1.481291 S    
N30   O107  1.300744 A    
C112  C128  1.394994 A    
C115  C139  1.422156 A    
C240  C241  1.396487 A    
O13   Zn5   2.029634 S    
N17   O82   1.301388 A    
N29   O105  1.300940 A    
C204  H43   1.082254 S    
C177  C182  1.407632 A    
C158  H5    1.083103 S    
C82   C98   1.423007 A    
C179  H22   1.082337 S    
C227  C228  1.395783 A    
O3    Zn3   2.062199 S    
N22   O91   1.300543 A    
N44   O136  1.300647 A    
C175  C176  1.400137 A    
C202  H41   1.083296 S    
C86   C102  1.424734 A    
C53   C165  1.478227 S    
C80   C96   1.417173 A    
C44   C60   1.410931 A    
C50   C183  1.486448 S    
C39   C55   1.411159 A    
O28   Zn8   1.977417 S    
O36   Zn9   2.044430 S    
C26   C31   1.391271 S    
C72   N24   1.436959 S    
N39   O125  1.299603 A    
N34   O116  1.301695 A    
C207  C208  1.404659 A    
C231  C236  1.407403 A    
C215  H52   1.082303 S    
C108  C136  1.434027 A    
C189  C194  1.408144 A    
C40   C120  1.414122 A    
C50   C66   1.408106 A    
C73   C89   1.406052 A    
C46   N14   1.447790 S    
C194  H35   1.077289 S    
C114  C138  1.410056 A    
O9    Zn5   2.062203 S    
C25   C32   1.390491 S    
O11   Zn7   2.062199 S    
C173  C174  1.396572 A    
N23   O93   1.300869 A    
C157  H4    1.079519 S    
N47   O142  1.298274 A    
C43   C123  1.418441 A    
C168  C169  1.398841 A    
C41   C121  1.429101 A    
C84   C100  1.425354 A    
C210  H48   1.082463 S    
C17   C25   1.192497 T    
N2    O51   1.301841 A    
N43   O134  1.301496 A    
C34   N2    1.437538 S    
N3    O53   1.301809 A    
C103  C119  1.403976 A    
C200  H40   1.083308 S    
O5    C3    1.279400 A    
C104  C132  1.420296 A    
C61   C77   1.406518 A    
C196  H36   1.083344 S    
N40   O127  1.301271 A    
C9    C17   1.415382 S    
C217  C218  1.398754 A    
O45   Zn12  2.017354 S    
O28   C14   1.291687 A    
C208  C209  1.397575 A    
C217  H54   1.082234 S    
C201  C206  1.405490 A    
C12   C20   1.413795 S    
C95   C111  1.447333 A    
C59   C75   1.404561 A    
C13   C21   1.415101 S    
C36   C116  1.425321 A    
C94   N46   1.426590 S    
C215  C216  1.398071 A    
O17   Zn1   1.974882 S    
C72   C88   1.416284 A    
O43   C151  1.284619 A    
C183  C184  1.406800 A    
C20   C28   1.193309 T    
C205  C206  1.397818 A    
N1    O50   1.301726 A    
C185  C186  1.397255 A    
C135  C150  1.465956 S    
C180  H23   1.082312 S    
N47   O141  1.301720 A    
N10   O68   1.300608 A    
C64   C80   1.404600 A    
O14   Zn8   2.039181 S    
N20   O87   1.300919 A    
C111  C133  1.440166 A    
C37   N5    1.432010 S    
C98   C130  1.428375 A    
C42   N10   1.434099 S    
C237  C238  1.406718 A    
C95   N47   1.425000 S    
C4    C140  1.471291 S    
C75   C91   1.410258 A    
N38   O123  1.301286 A    
C5    C141  1.452252 S    
C56   C72   1.406959 A    
C34   C114  1.425857 A    
O8    C4    1.279225 A    
N24   O96   1.301325 A    
O4    Zn4   2.006240 S    
C51   C177  1.490397 S    
C230  H65   1.078335 S    
C136  C151  1.456826 S    
C197  C198  1.398623 A    
C214  H51   1.083155 S    
N6    O60   1.300251 A    
C246  C247  1.396251 A    
C122  C142  1.418791 A    
C154  H1    1.083210 S    
C78   N30   1.437163 S    
C238  H71   1.083411 S    
N28   O104  1.301015 A    
C161  H7    1.082302 S    
C94   C110  1.430884 A    
C80   N32   1.437565 S    
C225  C230  1.407744 A    
N37   O121  1.299113 A    
C130  C145  1.486400 S    
O42   Zn11  2.043059 S    
O44   Zn11  2.044430 S    
C18   C26   1.192880 T    
C120  C140  1.408456 A    
C162  C163  1.396495 A    
C128  C144  1.404530 A    
C183  C188  1.404446 A    
C134  C149  1.448605 S    
N35   O117  1.301919 A    
C169  H14   1.079529 S    
C40   C56   1.405177 A    
N45   O137  1.300630 A    
N8    O64   1.300083 A    
C44   C124  1.433777 A    
C162  H8    1.082439 S    
O16   C8    1.273287 A    
C35   N3    1.436158 S    
N12   O72   1.301382 A    
C22   C30   1.192247 T    
C119  C137  1.424788 A    
C246  H78   1.082350 S    
N5    O58   1.299708 A    
N14   O76   1.299913 A    
C228  H63   1.082326 S    
N25   O98   1.300810 A    
O25   Zn5   1.974882 S    
O6    C2    1.280470 A    
C96   N48   1.425787 S    
C38   C118  1.416850 A    
O27   Zn7   1.979600 S    
C195  C200  1.404489 A    
C92   C108  1.428962 A    
C61   C213  1.481876 S    
C93   C109  1.425361 A    
C156  C157  1.398971 A    
C103  C129  1.417809 A    
N22   O92   1.301270 A    
C154  C155  1.397092 A    
O37   C145  1.257777 A    
C191  C192  1.395843 A    
C232  H66   1.081936 S    
O43   Zn11  2.017317 S    
C221  H57   1.082352 S    
C124  C144  1.419233 A    
O19   C9    1.283397 A    
N27   O101  1.301184 A    
O15   C5    1.277971 A    
N7    O61   1.301471 A    
O3    C3    1.291271 A    
O47   C151  1.252137 A    
C160  C161  1.397541 A    
O24   C12   1.291912 A    
C65   C81   1.415315 A    
C233  H67   1.082426 S    
C40   N8    1.448513 S    
O24   Zn2   1.977416 S    
O12   Zn8   2.006240 S    
C36   C52   1.410795 A    
N26   O100  1.300573 A    
C204  C205  1.396991 A    
C110  C134  1.424354 A    
C105  C133  1.438454 A    
N21   O89   1.300914 A    
C71   C87   1.410328 A    
C55   C153  1.478406 S    
C187  C188  1.397785 A    
C57   C73   1.402216 A    
C179  C180  1.396058 A    
C82   N34   1.436096 S    
C37   C53   1.412396 A    
C239  C240  1.396558 A    
C21   C29   1.192593 T    
C175  H19   1.079430 S    
C202  C203  1.397309 A    
O48   C150  1.250949 A    
N4    O55   1.301765 A    
C97   C129  1.429480 A    
C63   C79   1.392996 A    
C36   N4    1.439065 S    
C211  H49   1.080531 S    
N16   O80   1.300254 A    
C172  C173  1.397577 A    
N31   O110  1.299233 A    
C11   C19   1.417002 S    
N19   O85   1.301207 A    
N33   O114  1.298809 A    
C55   C71   1.392834 A    
N3    O54   1.301568 A    
C68   N20   1.432598 S    
C226  C227  1.397611 A    
N1    O49   1.302065 A    
C41   C57   1.408262 A    
C39   C119  1.423982 A    
O20   C10   1.293889 A    
C231  C232  1.406851 A    
N18   O84   1.300726 A    
C245  H77   1.082319 S    
C24   C32   1.193079 T    
C233  C234  1.396191 A    
O10   Zn6   2.006245 S    
C81   N33   1.438924 S    
O39   Zn10  2.021968 S    
C112  C136  1.424478 A    
C63   C201  1.484684 S    
N46   O139  1.301532 A    
C100  C132  1.430209 A    
C223  C224  1.400253 A    
C33   C113  1.422290 A    
C216  H53   1.082478 S    
O40   C146  1.245144 A    
C207  C212  1.403681 A    
C225  C226  1.408765 A    
O1    Zn1   2.062203 S    
C88   N40   1.430118 S    
C37   C117  1.426063 A    
C73   N25   1.432784 S    
