data_mof_unit_67087.cif
_audit_creation_date              2012-12-11T17:41:24-0500
_audit_creation_method            fapswitch 2.2
_symmetry_space_group_name_H-M    P1
_symmetry_Int_Tables_number       1
_space_group_crystal_system       triclinic
_cell_length_a                    8.169013
_cell_length_b                    12.749679
_cell_length_c                    14.231174
_cell_angle_alpha                 92.906348
_cell_angle_beta                  90.488647
_cell_angle_gamma                 98.775381
_cell_volume                      1462.77590371

loop_
_atom_site_label
_atom_site_type_symbol
_atom_type_description
_atom_site_fract_x
_atom_site_fract_y
_atom_site_fract_z
_atom_type_partial_charge
Ba1   Ba    Ba6+2 0.855630 0.555280 0.454520 1.649133
Ba2   Ba    Ba6+2 0.334200 0.444810 0.545490 1.647219
C1    C     C_3   0.610492 0.947584 0.182207 -0.406514
C2    C     C_R   0.183922 0.498775 0.196133 0.042473
C3    C     C_R   0.340384 0.549440 0.225959 -0.291652
C4    C     C_3   0.154879 0.806538 0.199384 0.292870
C5    C     C_R   0.452828 0.598192 0.162753 0.018700
C6    C     C_R   0.406843 0.603152 0.068651 -0.154526
C7    C     C_R   0.248987 0.555012 0.035884 -0.011287
C8    C     C_R   0.136836 0.499632 0.098932 -0.024024
C9    C     C_R   0.051220 0.507587 0.903871 -0.008225
C10   C     C_R   0.937888 0.453653 0.967144 -0.003680
C11   C     C_R   0.006870 0.504501 0.806160 0.035843
C12   C     C_3   0.657324 0.857134 0.237275 0.334416
C13   C     C_R   0.853535 0.448901 0.775663 -0.291850
C14   C     C_R   0.737951 0.404171 0.838969 0.014800
C15   C     C_R   0.780203 0.404765 0.934274 -0.142726
C16   C     C_3   0.150325 0.845626 0.100569 -0.267863
C17   C     C_R   0.204527 0.560035 0.940380 0.003261
C18   C     C_R   0.766340 0.176357 0.537271 -0.278254
C19   C     C_R   0.422394 0.814747 0.469489 -0.272743
C20   C     C_R   0.402469 0.995057 0.433468 -0.108089
C21   C     C_R   0.335490 0.888264 0.430571 -0.003146
C22   C     C_R   0.573242 0.847315 0.516817 0.058963
C23   C     C_3   0.474272 0.307891 0.259432 0.303136
C24   C     C_R   0.639914 0.957689 0.525183 -0.063196
C25   C     C_R   0.553812 0.031851 0.480924 -0.058028
C26   C     C_R   0.619809 0.141222 0.486705 0.038764
C27   C     C_R   0.854674 0.105020 0.578445 -0.007373
C28   C     C_3   0.130821 0.771454 0.679606 0.297071
C29   C     C_R   0.790010 0.996537 0.574756 -0.084809
C30   C     C_3   0.173095 0.884454 0.721279 0.405804
C31   C     C_3   0.972175 0.237458 0.344313 0.279981
C32   C     C_3   0.964827 0.118903 0.323416 -0.354581
C33   C     C_3   0.679617 0.664260 0.738331 0.380909
C34   C     C_3   0.454036 0.285221 0.153630 -0.385672
C35   C     C_3   0.651738 0.679855 0.843210 -0.347405
C36   C     C_3   0.038481 0.212266 0.806666 0.408761
C37   C     C_3   0.058711 0.189876 0.909770 -0.255959
C38   C     C_3   0.538567 0.144950 0.758852 0.345116
C39   C     C_3   0.592198 0.053115 0.808928 -0.371629
C40   C     C_R   0.982713 0.448062 0.062441 -0.032108
H1    H     H_    0.752995 0.889801 0.291256 0.085358
H2    H     H_    0.579909 0.603149 0.709615 0.086123
H3    H     H_    0.562454 0.006393 0.230650 0.102080
H4    H     H_    0.761234 0.728830 0.877878 0.171540
H5    H     H_    0.630717 0.601753 0.875557 0.049125
H6    H     H_    0.541800 0.720097 0.855086 0.126445
H7    H     H_    0.545151 0.820949 0.274356 -0.051283
H8    H     H_    0.513469 0.915882 0.128826 0.120349
H9    H     H_    0.355697 0.327561 0.287402 0.017686
H10   H     H_    0.573824 0.376957 0.272502 0.058763
H11   H     H_    0.350948 0.218859 0.138168 0.135013
H12   H     H_    0.309649 0.907585 0.725077 -0.036420
H13   H     H_    0.425897 0.356834 0.119370 0.058730
H14   H     H_    0.570282 0.263159 0.124105 0.120844
H15   H     H_    0.720055 0.987365 0.145185 0.132185
H16   H     H_    0.204240 0.790456 0.051271 0.117290
H17   H     H_    0.116905 0.289285 0.794934 0.067507
H18   H     H_    0.906884 0.219025 0.792759 -0.101974
H19   H     H_    0.190383 0.185542 0.926417 0.172351
H20   H     H_    0.020013 0.254388 0.955178 0.018444
H21   H     H_    0.980384 0.114412 0.926157 0.149542
H22   H     H_    0.647998 0.183220 0.720699 -0.049366
H23   H     H_    0.121665 0.938864 0.675100 -0.012186
H24   H     H_    0.439844 0.113196 0.706409 0.084831
H25   H     H_    0.695519 0.083374 0.858866 0.115740
H26   H     H_    0.633256 0.995562 0.756540 0.117131
H27   H     H_    0.069451 0.730045 0.201030 0.098071
H28   H     H_    0.488798 0.011570 0.848980 0.184289
H29   H     H_    0.377545 0.547519 0.298936 0.071309
H30   H     H_    0.494541 0.644196 0.021377 0.075686
H31   H     H_    0.690640 0.366660 0.982363 0.070097
H32   H     H_    0.820013 0.445018 0.701691 0.065951
H33   H     H_    0.895878 0.402334 0.107120 0.098131
H34   H     H_    0.849726 0.254339 0.366359 0.001820
H35   H     H_    0.291667 0.604115 0.894920 0.106135
H36   H     H_    0.332541 0.048205 0.399671 0.099692
H37   H     H_    0.858554 0.944020 0.610117 0.113701
H38   H     H_    0.816071 0.260165 0.540915 0.061315
H39   H     H_    0.282961 0.793178 0.215307 -0.063998
H40   H     H_    0.369492 0.731465 0.465419 0.079154
H41   H     H_    0.020502 0.848819 0.078555 0.169441
H42   H     H_    0.223454 0.926287 0.097958 0.133204
H43   H     H_    0.170819 0.767354 0.605336 -0.062682
H44   H     H_    0.996715 0.748411 0.684109 0.056536
H45   H     H_    0.063796 0.261750 0.402137 0.082839
H46   H     H_    0.853031 0.924749 0.891297 0.341109
H47   H     H_    0.874427 0.092049 0.265618 0.116168
H48   H     H_    0.926124 0.074844 0.386541 0.083809
H49   H     H_    0.088708 0.101427 0.302059 0.140023
H50   H     H_    0.797251 0.634075 0.727352 -0.075995
O1    O     O_2   0.887370 0.460630 0.272300 -0.466989
O2    O     O_2   0.200266 0.112627 0.577592 -0.502069
O3    O     O_3   0.087921 0.130030 0.749086 -0.546671
O4    O     O_3   0.129410 0.451380 0.388510 -0.496957
O5    O     O_3   0.575400 0.626570 0.547370 -0.495985
O6    O     O_2   0.344320 0.238700 0.455090 -0.472355
O7    O     O_3   0.515900 0.217583 0.300614 -0.648103
O8    O     O_2   0.395491 0.404772 0.835067 -0.505668
O9    O     O_3   0.475605 0.213812 0.825081 -0.582381
O10   O     O_3   0.670210 0.653170 0.329170 -0.479738
O11   O     O_2   0.793099 0.592959 0.166017 -0.490296
O12   O     O_3   0.683498 0.761775 0.696185 -0.614687
O13   O     O_3   0.015225 0.289793 0.262104 -0.639524
O14   O     O_3   0.723300 0.785875 0.174742 -0.591429
O15   O     O_2   0.845380 0.761330 0.544970 -0.485787
O16   O     O_3   0.088930 0.704860 0.376040 -0.482740
O17   O     O_2   0.994072 0.886914 0.434266 -0.492797
O18   O     O_2   0.078820 0.791866 0.883929 -0.358534
O19   O     O_2   0.194931 0.980346 0.895417 -0.323945
O20   O     O_3   0.896649 0.926412 0.826572 -0.542187
O21   O     O_3   0.105128 0.882771 0.263187 -0.601112
O22   O     O_2   0.302330 0.539400 0.727760 -0.466952
O23   O     O_3   0.060300 0.548700 0.611500 -0.495674
O24   O     O_3   0.519500 0.346920 0.670840 -0.477066
O25   O     O_3   0.214020 0.707373 0.733104 -0.607117
O26   O     O_3   0.614310 0.373510 0.452640 -0.478785
O27   O     O_3   0.100780 0.295230 0.623970 -0.494403
P1    P     P_3+3 0.054400 0.427280 0.286870 0.967497
P2    P     P_3+3 0.668300 0.742890 0.573060 0.981118
P3    P     P_3+3 0.130749 0.842566 0.377397 0.955697
P4    P     P_3+3 0.135310 0.572810 0.713130 1.001043
P5    P     P_3+3 0.060141 0.157808 0.631110 0.964479
P6    P     P_3+3 0.660133 0.655473 0.206882 0.961984
P7    P     P_3+3 0.527805 0.241196 0.422945 0.931989
P8    P     P_3+3 0.531649 0.345195 0.793480 0.951628
S1    S     S_3+6 0.088065 0.895198 0.836527 -0.109020

loop_
_geom_bond_atom_site_label_1
_geom_bond_atom_site_label_2
_ccdc_geom_bond_type
O3    P5    S    
C4    H27   S    
C8    C40   A    
O8    P8    D    
Ba2   O22   S    
O10   P6    S    
Ba1   O16   S    
C32   H48   S    
Ba2   O26   S    
O5    P2    S    
C5    C6    A    
C39   H25   S    
Ba2   P4    S    
O14   P6    S    
C9    C17   A    
C40   H33   S    
C33   C35   S    
C22   C24   A    
C36   C37   S    
C11   P4    S    
O17   P3    D    
C12   H7    S    
C13   C14   A    
C27   P5    S    
Ba1   Ba2   S    
C17   H35   S    
C32   H49   S    
C10   C40   A    
C34   H11   S    
C38   O9    S    
Ba2   O24   S    
C7    C17   A    
O21   P3    S    
Ba2   O5    S    
C14   C15   A    
C39   H28   S    
O24   P8    S    
C36   O3    S    
C16   H42   S    
O13   P1    S    
O1    P1    D    
O7    P7    S    
C7    C8    A    
C33   H50   S    
C24   C29   A    
C4    H39   S    
C38   H24   S    
C15   H31   S    
C4    C16   S    
C30   H12   S    
C1    H8    S    
C26   P7    S    
C16   H41   S    
C21   P3    S    
C18   C27   A    
C37   H19   S    
C6    H30   S    
O23   P4    S    
C18   H38   S    
C31   O13   S    
C20   H36   S    
C33   O12   S    
Ba1   O5    S    
C3    C5    A    
O20   S1    S    
C6    C7    A    
O12   P2    S    
C18   C26   A    
O27   P5    S    
C1    H3    S    
C35   H6    S    
Ba1   P1    S    
C10   C15   A    
C23   H9    S    
C4    O21   S    
C34   H14   S    
Ba2   O23   S    
C31   H34   S    
O6    P7    D    
Ba2   O27   S    
C31   C32   S    
C24   C25   A    
C5    P6    S    
C28   H43   S    
C33   H2    S    
C1    C12   S    
Ba1   O15   S    
C36   H18   S    
O22   P4    D    
C1    H15   S    
C38   C39   S    
C28   H44   S    
C20   C25   A    
C19   C21   A    
C35   H5    S    
O15   P2    D    
C2    C8    A    
C25   C26   A    
C37   H20   S    
C39   H26   S    
C27   C29   A    
O4    P1    S    
C2    P1    S    
O16   P3    S    
C2    C3    A    
C9    C10   A    
C29   H37   S    
C28   O25   S    
O26   P7    S    
C37   H21   S    
C38   H22   S    
C30   S1    S    
C11   C13   A    
C31   H45   S    
C23   H10   S    
C3    H29   S    
C34   H13   S    
C28   C30   S    
C23   O7    S    
C9    C11   A    
Ba1   O4    S    
Ba2   O4    S    
C22   P2    S    
O9    P8    S    
C16   H16   S    
Ba1   O26   S    
O25   P4    S    
O11   P6    D    
C14   P8    S    
Ba1   P2    S    
C32   H47   S    
C23   C34   S    
C36   H17   S    
H46   O20   S    
C12   O14   S    
C13   H32   S    
C19   H40   S    
Ba2   O6    S    
Ba1   O1    S    
C19   C22   A    
O19   S1    D    
C20   C21   A    
C12   H1    S    
Ba1   O23   S    
C35   H4    S    
Ba1   O10   S    
O18   S1    D    
C30   H23   S    
O2    P5    D    
