data_mof_unit_28225.cif
_audit_creation_date              2012-12-10T17:37:50-0500
_audit_creation_method            fapswitch 2.2
_symmetry_space_group_name_H-M    P1
_symmetry_Int_Tables_number       1
_space_group_crystal_system       triclinic
_cell_length_a                    12.388706
_cell_length_b                    13.179658
_cell_length_c                    17.322666
_cell_angle_alpha                 105.948316
_cell_angle_beta                  74.431693
_cell_angle_gamma                 116.858215
_cell_volume                      2391.64153179

loop_
_atom_site_label
_atom_site_type_symbol
_atom_type_description
_atom_site_fract_x
_atom_site_fract_y
_atom_site_fract_z
_atom_type_partial_charge
C1    C     C_R   0.144445 0.714384 0.508146 0.831160
C2    C     C_R   0.025752 0.503481 0.262578 -0.142530
C3    C     C_R   0.735424 0.966006 0.409353 -0.151813
C4    C     C_R   0.986897 0.503342 0.652162 0.787258
C5    C     C_R   0.775421 0.162769 0.477580 -0.046595
C6    C     C_R   0.185030 0.921091 0.572482 -0.048307
C7    C     C_R   0.267842 0.021811 0.611830 -0.218167
C8    C     C_R   0.392461 0.046574 0.594392 -0.000902
C9    C     C_R   0.439211 0.980605 0.525275 -0.028997
C10   C     C_R   0.354648 0.875027 0.486806 -0.060239
C11   C     C_R   0.566398 0.014951 0.492976 0.065323
C12   C     C_R   0.899311 0.546551 0.797803 -0.215732
C13   C     C_R   0.609049 0.935309 0.436182 0.079239
C14   C     C_R   0.525240 0.831764 0.399956 -0.292478
C15   C     C_R   0.400631 0.808198 0.417948 0.506432
C16   C     C_R   0.856188 0.285986 0.488576 0.803627
C17   C     C_R   0.650499 0.130019 0.507994 -0.186763
C18   C     C_R   0.818790 0.079175 0.431418 -0.189601
C19   C     C_R   0.226915 0.839310 0.518075 -0.154918
C20   C     C_R   0.639299 0.672309 0.631592 -0.276907
C21   C     C_R   0.253395 0.359304 0.384251 0.009016
C22   C     C_R   0.361080 0.343314 0.349158 0.460094
C23   C     C_R   0.977400 0.570801 0.164956 -0.152010
C24   C     C_R   0.464259 0.407669 0.386895 -0.267833
C25   C     C_R   0.457753 0.476752 0.465046 -0.089189
C26   C     C_R   0.348741 0.497249 0.494328 0.274041
C27   C     C_R   0.556153 0.531564 0.513053 -0.040375
C28   C     C_R   0.013514 0.497278 0.347793 0.841717
C29   C     C_R   0.547210 0.615908 0.583027 0.162668
C30   C     C_R   0.444814 0.642135 0.605807 -0.270641
C31   C     C_R   0.347185 0.582902 0.563407 -0.160226
C32   C     C_R   0.660162 0.503837 0.498669 0.102360
C33   C     C_R   0.739980 0.644448 0.612622 0.086050
C34   C     C_R   0.964557 0.559121 0.244364 -0.277904
C35   C     C_R   0.978640 0.504781 0.738088 -0.040503
C36   C     C_R   0.049721 0.463764 0.760862 -0.200769
C37   C     C_R   0.042760 0.465432 0.842325 -0.155821
C38   C     C_R   0.966263 0.510214 0.902720 0.129133
C39   C     C_R   0.892514 0.549325 0.879958 0.012761
C40   C     C_1   0.057739 0.903646 0.592608 0.263783
C41   C     C_1   0.465096 0.131323 0.654406 0.208986
C42   C     C_3   0.307468 0.773902 0.311717 -0.313250
C43   C     C_1   0.668059 0.406029 0.438675 0.294079
C44   C     C_3   0.303942 0.158207 0.281146 -0.338771
C45   C     C_R   0.100654 0.458888 0.199350 0.495747
C46   C     C_3   0.094248 0.284039 0.198054 -0.305811
C47   C     C_1   0.811751 0.595366 0.939703 0.207471
C48   C     C_R   0.115515 0.473970 0.119858 -0.246548
C49   C     C_R   0.051636 0.526868 0.102273 0.109920
C50   C     C_2   0.961625 0.513646 0.988990 -0.208381
C51   C     C_2   0.060366 0.531638 0.017466 -0.205235
Cu1   Cu    Cu3+1 0.900140 0.524980 0.518800 0.959919
Cu2   Cu    Cu3+1 0.099860 0.475020 0.481200 0.973179
H1    H     H_    0.110048 0.429326 0.715725 0.162716
H2    H     H_    0.438417 0.707476 0.658694 0.154172
H3    H     H_    0.632590 0.736904 0.684892 0.149017
H4    H     H_    0.174894 0.315065 0.353394 0.148268
H5    H     H_    0.549090 0.406427 0.350972 0.183515
H6    H     H_    0.272764 0.608711 0.586185 0.194947
H7    H     H_    0.147433 0.543350 0.977179 0.152106
H8    H     H_    0.930076 0.615101 0.152766 0.150630
H9    H     H_    0.843652 0.578233 0.780661 0.156491
H10   H     H_    0.874808 0.500779 0.029892 0.166980
H11   H     H_    0.096388 0.430099 0.857671 0.137230
H12   H     H_    0.173806 0.440765 0.071455 0.153498
H13   H     H_    0.252065 0.824616 0.344727 0.142959
H14   H     H_    0.255569 0.704927 0.265550 0.198746
H15   H     H_    0.396088 0.829584 0.278374 0.162584
H16   H     H_    0.203705 0.136067 0.297826 0.132439
H17   H     H_    0.335577 0.136063 0.326223 0.167582
H18   H     H_    0.319265 0.103831 0.221406 0.200939
H19   H     H_    0.004138 0.258039 0.239574 0.142206
H20   H     H_    0.145569 0.239859 0.208464 0.202127
H21   H     H_    0.080641 0.253741 0.133335 0.159384
H22   H     H_    0.915529 0.102987 0.407210 0.139911
H23   H     H_    0.557212 0.774920 0.351009 0.171822
H24   H     H_    0.769063 0.904469 0.367690 0.133417
H25   H     H_    0.618479 0.197146 0.537492 0.164743
H26   H     H_    0.233960 0.078166 0.660138 0.148555
H27   H     H_    0.809946 0.686681 0.650822 0.142300
H28   H     H_    0.907660 0.595201 0.291693 0.181230
N1    N     N_R   0.749710 0.562810 0.547300 -0.207807
N2    N     N_R   0.249640 0.437820 0.453210 -0.234800
N3    N     N_1   0.956369 0.891796 0.608688 -0.304115
N4    N     N_1   0.522793 0.198970 0.702668 -0.275436
N5    N     N_1   0.673821 0.327070 0.390446 -0.308694
N6    N     N_1   0.747074 0.632246 0.987556 -0.276590
O1    O     O_R   0.025490 0.682370 0.523640 -0.586272
O2    O     O_3   0.371256 0.275367 0.273355 -0.555709
O3    O     O_3   0.163255 0.404466 0.214925 -0.545408
O4    O     O_R   0.194150 0.640180 0.491890 -0.551967
O5    O     O_R   0.905900 0.523560 0.631310 -0.588177
O6    O     O_R   0.074570 0.481370 0.599560 -0.612009
O7    O     O_R   0.805850 0.359820 0.508110 -0.576775
O8    O     O_R   0.974510 0.317630 0.476360 -0.598661
O9    O     O_R   0.925430 0.518630 0.400440 -0.596464
O10   O     O_R   0.094100 0.476440 0.368690 -0.513469
O11   O     O_3   0.326218 0.721873 0.365169 -0.544907

loop_
_geom_bond_atom_site_label_1
_geom_bond_atom_site_label_2
_ccdc_geom_bond_type
C28   O10   A    
C18   H22   S    
Cu2   O8    S    
C40   N3    T    
C35   C36   A    
C20   H3    S    
C7    C8    A    
C6    C19   A    
C26   N2    A    
C3    C18   A    
C39   C47   S    
C36   C37   A    
C37   C38   A    
C10   C15   A    
C42   O11   S    
C38   C39   A    
C23   C49   A    
C27   C29   A    
C44   H18   S    
C31   H6    S    
C5    C16   S    
C32   C43   S    
C21   N2    A    
C8    C9    A    
C49   C51   S    
Cu2   O4    S    
Cu1   O7    S    
C34   H28   S    
C48   H12   S    
C9    C10   A    
C46   H19   S    
C3    C13   A    
C2    C34   A    
C1    O1    A    
C4    C35   S    
C26   C31   A    
C1    O4    A    
C13   C14   A    
C42   H15   S    
C50   H10   S    
C20   C29   A    
C2    C45   A    
C1    C19   S    
Cu2   O6    S    
Cu1   O1    S    
C24   C25   A    
C5    C18   A    
Cu2   O10   S    
C25   C26   A    
C14   H23   S    
C21   H4    S    
C29   C30   A    
C12   H9    S    
C10   C19   A    
C23   C34   A    
C50   C51   D    
C44   H16   S    
C8    C41   S    
C12   C35   A    
Cu1   N1    S    
C45   O3    S    
C9    C11   A    
C46   O3    S    
C20   C33   A    
C48   C49   A    
C42   H14   S    
C6    C40   S    
Cu1   O5    S    
C15   O11   S    
C3    H24   S    
C46   H21   S    
C37   H11   S    
C41   N4    T    
Cu1   Cu2   S    
C7    H26   S    
C33   N1    A    
C45   C48   A    
C11   C17   A    
C16   O8    A    
C27   C32   A    
C43   N5    T    
C33   H27   S    
C6    C7    A    
C38   C50   S    
C25   C27   A    
C32   N1    A    
C30   H2    S    
C16   O7    A    
C28   O9    A    
Cu2   N2    S    
C12   C39   A    
C11   C13   A    
C30   C31   A    
C17   H25   S    
C22   O2    S    
Cu1   O9    S    
C22   C24   A    
C44   H17   S    
C36   H1    S    
C4    O6    A    
C23   H8    S    
C5    C17   A    
C24   H5    S    
C42   H13   S    
C14   C15   A    
C2    C28   S    
C51   H7    S    
C21   C22   A    
C46   H20   S    
C44   O2    S    
C47   N6    T    
C4    O5    A    
