data_mof_unit_39498.cif
_audit_creation_date              2012-12-10T20:38:22-0500
_audit_creation_method            fapswitch 2.2
_symmetry_space_group_name_H-M    P1
_symmetry_Int_Tables_number       1
_space_group_crystal_system       triclinic
_cell_length_a                    9.87009
_cell_length_b                    10.67409
_cell_length_c                    16.633029
_cell_angle_alpha                 90.069073
_cell_angle_beta                  85.500897
_cell_angle_gamma                 89.617294
_cell_volume                      1746.91855751

loop_
_atom_site_label
_atom_site_type_symbol
_atom_type_description
_atom_site_fract_x
_atom_site_fract_y
_atom_site_fract_z
_atom_type_partial_charge
C1    C     C_R   0.499243 0.739829 0.501703 0.895326
C2    C     C_R   0.342613 0.438957 0.778851 -0.233927
C3    C     C_R   0.430587 0.322277 0.161810 -0.165231
C4    C     C_R   0.420000 0.376663 0.237602 -0.216429
C5    C     C_R   0.650520 0.454438 0.215346 -0.208097
C6    C     C_R   0.660356 0.401223 0.138597 -0.164442
C7    C     C_R   0.548685 0.338817 0.110751 0.206086
C8    C     C_2   0.441822 0.356279 0.986048 -0.214951
C9    C     C_2   0.547559 0.314250 0.024497 -0.263441
C10   C     C_R   0.528552 0.445736 0.264157 -0.028015
C11   C     C_R   0.381571 0.937377 0.491422 0.121074
C12   C     C_R   0.481273 0.496371 0.653632 0.862124
C13   C     C_R   0.495186 0.871191 0.512122 -0.132160
C14   C     C_R   0.600653 0.932631 0.547370 -0.277865
C15   C     C_R   0.602142 0.062866 0.548759 0.086541
C16   C     C_R   0.497014 0.128384 0.513814 -0.116579
C17   C     C_R   0.382739 0.064854 0.492109 0.109884
C18   C     C_3   0.310199 0.074213 0.416707 -0.479069
C19   C     C_3   0.309248 0.932206 0.415801 -0.475472
C20   C     C_R   0.919118 0.516611 0.570095 0.185722
C21   C     C_R   0.937289 0.471685 0.432106 -0.127979
C22   C     C_R   0.081090 0.471516 0.432135 -0.139911
C23   C     C_R   0.500008 0.260130 0.502957 0.898891
C24   C     C_R   0.061426 0.517451 0.570118 0.159984
C25   C     C_3   0.055370 0.627845 0.626797 -0.147504
C26   C     C_3   0.901577 0.625854 0.625765 -0.483463
C27   C     C_R   0.518461 0.491972 0.346811 0.855162
C28   C     C_R   0.469316 0.469635 0.739903 -0.058506
C29   C     C_R   0.586394 0.460763 0.781623 -0.213375
C30   C     C_R   0.577977 0.421064 0.860919 -0.190322
C31   C     C_R   0.452161 0.386807 0.899826 0.185690
C32   C     C_R   0.333029 0.397081 0.858748 0.123940
H1    H     H_    0.685188 0.482966 0.752856 0.151832
H2    H     H_    0.752022 0.414773 0.099394 0.125646
H3    H     H_    0.684063 0.880633 0.570254 0.161550
H4    H     H_    0.207190 0.116475 0.427982 0.208371
H5    H     H_    0.374050 0.115666 0.365534 0.197321
H6    H     H_    0.205550 0.892587 0.426122 0.201024
H7    H     H_    0.372765 0.890680 0.364191 0.199706
H8    H     H_    0.890878 0.450712 0.376940 0.146585
H9    H     H_    0.142204 0.450315 0.376998 0.144849
H10   H     H_    0.091287 0.605470 0.686938 0.155820
H11   H     H_    0.327095 0.363312 0.275658 0.145771
H12   H     H_    0.850266 0.600407 0.685077 0.168396
H13   H     H_    0.857117 0.708716 0.596731 0.213442
H14   H     H_    0.736785 0.504003 0.235932 0.143715
H15   H     H_    0.642211 0.286375 0.991542 0.150120
H16   H     H_    0.344478 0.271915 0.141674 0.131414
H17   H     H_    0.251584 0.444124 0.746603 0.144836
H18   H     H_    0.348971 0.385653 0.020557 0.175240
H19   H     H_    0.670399 0.420603 0.891772 0.134259
N1    N     N_R   0.857140 0.500860 0.500530 -0.099409
N2    N     N_R   0.142780 0.500820 0.500530 -0.107861
O1    O     O_R   0.385310 0.683210 0.499990 -0.627021
O2    O     O_R   0.614650 0.683240 0.500000 -0.615301
O3    O     O_R   0.371780 0.500000 0.615800 -0.626896
O4    O     O_R   0.601120 0.500040 0.615800 -0.613912
O5    O     O_R   0.385350 0.316760 0.500000 -0.620256
O6    O     O_R   0.614690 0.316790 0.500010 -0.588580
O7    O     O_R   0.398880 0.499960 0.384200 -0.623399
O8    O     O_R   0.628220 0.500000 0.384200 -0.621696
Zn1   Zn    Zn3+2 0.346870 0.499980 0.499990 0.929986
Zn2   Zn    Zn3+2 0.653130 0.500020 0.500010 0.951933
N3    N     N_3   0.711530 0.127043 0.582523 -0.428197
H20   H     H_    0.802664 0.097850 0.551632 0.187994
H21   H     H_    0.713627 0.099358 0.642691 0.179451
N4    N     N_3   0.112352 0.744025 0.592342 -0.432302
H22   H     H_    0.213151 0.749829 0.606747 0.219676
H23   H     H_    0.110676 0.743983 0.529554 0.211947
N5    N     N_3   0.203284 0.364511 0.898329 -0.485449
H24   H     H_    0.203713 0.267676 0.907692 0.181743
H25   H     H_    0.125206 0.383310 0.860969 0.173968

loop_
_geom_bond_atom_site_label_1
_geom_bond_atom_site_label_2
_ccdc_geom_bond_type
C10   C27   S    
O5    Zn1   S    
C23   O5    A    
C32   N5    S    
C30   H19   S    
O4    Zn2   S    
C29   C30   A    
C4    H11   S    
C29   H1    S    
C16   C23   S    
C27   O8    A    
N2    Zn1   S    
O6    Zn2   S    
C31   C32   A    
C25   N4    S    
C30   C31   A    
C15   N3    S    
C6    H2    S    
N3    H20   S    
C17   C18   S    
C1    O2    A    
C26   H12   S    
C5    C10   A    
C20   N1    A    
C12   O3    A    
C21   C22   A    
C23   O6    A    
C11   C13   A    
C11   C19   S    
C6    C7    A    
C21   H8    S    
C20   C26   S    
C12   C28   S    
C1    O1    A    
C25   H10   S    
C19   H7    S    
O7    Zn1   S    
C28   C29   A    
C2    H17   S    
C18   H5    S    
C9    H15   S    
C22   N2    A    
C3    C7    A    
C27   O7    A    
C5    C6    A    
C13   C14   A    
O3    Zn1   S    
C22   H9    S    
C1    C13   S    
C12   O4    A    
C4    C10   A    
N4    H22   S    
C8    H18   S    
C3    H16   S    
N5    H24   S    
N5    H25   S    
C24   C25   S    
C24   N2    A    
C8    C9    D    
C2    C32   A    
C18   C19   S    
C5    H14   S    
C14   H3    S    
O8    Zn2   S    
C7    C9    S    
C19   H6    S    
C11   C17   A    
C2    C28   A    
O1    Zn1   S    
C26   H13   S    
C25   C26   S    
C14   C15   A    
C8    C31   S    
C18   H4    S    
C20   C24   A    
C21   N1    A    
C3    C4    A    
C15   C16   A    
N3    H21   S    
C16   C17   A    
N4    H23   S    
N1    Zn2   S    
O2    Zn2   S    
