data_mof_unit_52642.cif
_audit_creation_date              2012-10-26T21:24:48-0400
_audit_creation_method            fapswitch 2.2
_symmetry_space_group_name_H-M    P1
_symmetry_Int_Tables_number       1
_space_group_crystal_system       triclinic
_cell_length_a                    9.613925
_cell_length_b                    10.754718
_cell_length_c                    15.588022
_cell_angle_alpha                 88.502227
_cell_angle_beta                  74.045239
_cell_angle_gamma                 90.296806
_cell_volume                      1548.98152195

loop_
_atom_site_label
_atom_site_type_symbol
_atom_type_description
_atom_site_fract_x
_atom_site_fract_y
_atom_site_fract_z
_atom_type_partial_charge
Br1   Br    Br    0.838952 0.147241 0.690878 -0.363900
Br2   Br    Br    0.835293 0.834886 0.688912 -0.397082
Br3   Br    Br    0.919425 0.162020 0.309436 -0.409249
Br4   Br    Br    0.273681 0.303446 0.634247 -0.354457
Br5   Br    Br    0.432397 0.765905 0.316925 -0.476290
Br6   Br    Br    0.834143 0.579188 0.222957 -0.433095
C1    C     C_R   0.999483 0.262903 0.500789 0.598960
C2    C     C_R   0.246078 0.568041 0.046707 -0.032855
C3    C     C_R   0.336959 0.515416 0.095372 0.040449
C4    C     C_R   0.917537 0.496970 0.672038 0.610781
C5    C     C_R   0.098049 0.582581 0.086915 -0.046046
C6    C     C_R   0.038229 0.553091 0.177054 0.186835
C7    C     C_R   0.277768 0.498344 0.187818 -0.080249
C8    C     C_R   0.080574 0.067471 0.430212 -0.048274
C9    C     C_R   0.999209 0.129579 0.504085 0.032525
C10   C     C_R   0.931321 0.061742 0.583335 0.180217
C11   C     C_R   0.931318 0.930697 0.582869 0.157750
C12   C     C_R   0.681487 0.497551 0.911251 -0.047911
C13   C     C_R   0.000741 0.870298 0.503558 -0.012063
C14   C     C_R   0.081725 0.939678 0.430068 -0.045373
C15   C     C_3   0.084291 0.937678 0.333198 0.146083
C16   C     C_R   0.000512 0.737180 0.499573 0.594992
C17   C     C_3   0.086419 0.080022 0.333249 0.060424
C18   C     C_R   0.599455 0.576535 0.442669 0.144323
C19   C     C_R   0.549569 0.414491 0.550084 0.381592
C20   C     C_R   0.401898 0.416850 0.551363 0.317870
C21   C     C_R   0.453374 0.575167 0.441487 0.168922
C22   C     C_3   0.451895 0.713579 0.433003 0.019316
C23   C     C_R   0.780618 0.455703 0.957189 0.029192
C24   C     C_3   0.608222 0.714890 0.436592 -0.216838
C25   C     C_R   0.082059 0.503456 0.327948 0.577315
C26   C     C_R   0.871007 0.488491 0.770576 0.042913
C27   C     C_R   0.129986 0.515266 0.229514 0.013770
C28   C     C_R   0.927798 0.442316 0.910980 0.236201
C29   C     C_R   0.972922 0.467303 0.818478 -0.132749
C30   C     C_R   0.723099 0.492697 0.817062 0.248472
C31   C     C_R   0.540542 0.533422 0.960356 -0.036514
C32   C     C_R   0.485282 0.490695 0.050758 0.058823
C33   C     C_R   0.580022 0.423208 0.091033 0.254232
C34   C     C_R   0.728502 0.418629 0.046805 -0.040658
C35   C     C_R   0.452901 0.610931 0.921424 0.246795
C36   C     C_R   0.305328 0.616053 0.960734 -0.056884
Cu1   Cu    Cu3+1 0.140670 0.499980 0.500000 1.058890
Cu2   Cu    Cu3+1 0.859330 0.500020 0.500000 1.098561
H1    H     H_    0.801287 0.375667 0.080610 0.198885
H2    H     H_    0.086549 0.461221 0.783313 0.163615
H3    H     H_    0.873493 0.908789 0.366276 0.355850
H4    H     H_    0.677668 0.343304 0.613984 0.399038
H5    H     H_    0.122410 0.397692 0.914331 0.341776
H6    H     H_    0.535772 0.435208 0.808365 0.351180
H7    H     H_    0.607323 0.313589 0.187228 0.361231
H8    H     H_    0.608829 0.710059 0.845488 0.372150
H9    H     H_    0.028879 0.620523 0.048507 0.169259
H10   H     H_    0.184900 0.898287 0.290027 0.197573
H11   H     H_    0.191466 0.120819 0.293277 0.148019
H12   H     H_    0.347448 0.481507 0.229967 0.230079
H13   H     H_    0.376776 0.758202 0.490921 0.162590
H14   H     H_    0.686518 0.749461 0.374009 0.222911
H15   H     H_    0.621758 0.756369 0.498437 0.151690
H16   H     H_    0.238458 0.667246 0.926558 0.162853
N1    N     N_R   0.648210 0.500930 0.499430 -0.272300
N2    N     N_R   0.352300 0.500890 0.499430 -0.289243
O1    O     O_R   0.118810 0.319640 0.500000 -0.467907
O2    O     O_3   0.587391 0.321285 0.601192 -0.614845
O3    O     O_3   0.024687 0.402907 0.956721 -0.694421
O4    O     O_3   0.620878 0.481431 0.770209 -0.617173
O5    O     O_3   0.526872 0.354986 0.169744 -0.697046
O6    O     O_3   0.508104 0.687301 0.847226 -0.609769
O7    O     O_R   0.881230 0.319680 0.499990 -0.484399
O8    O     O_R   0.055580 0.499970 0.629840 -0.493688
O9    O     O_R   0.818000 0.500010 0.629830 -0.457739
O10   O     O_R   0.118770 0.680320 0.500010 -0.497534
O11   O     O_R   0.881190 0.680360 0.500000 -0.495684
O12   O     O_R   0.182000 0.499990 0.370170 -0.502770
O13   O     O_R   0.944420 0.500030 0.370160 -0.439515
O14   O     O_3   0.959197 0.884382 0.318000 -0.630382

loop_
_geom_bond_atom_site_label_1
_geom_bond_atom_site_label_2
_ccdc_geom_bond_type
Cu1   O10   S    
C35   C36   A    
Br3   C17   S    
C13   C14   A    
C18   C21   A    
Cu1   O1    S    
C22   H13   S    
C15   O14   S    
C18   N1    A    
H5    O3    S    
C26   C30   A    
C12   C31   A    
C2    C36   A    
H3    O14   S    
Br6   C6    S    
C15   H10   S    
C30   O4    S    
H4    O2    S    
C9    C10   A    
Cu2   O9    S    
C28   C29   A    
C3    C7    A    
C2    C3    A    
C25   C27   S    
C5    H9    S    
C7    H12   S    
C4    O9    A    
Cu1   O12   S    
C1    C9    S    
Br2   C11   S    
C28   O3    S    
C16   O10   A    
C35   O6    S    
C34   H1    S    
C26   C29   A    
C8    C14   A    
C13   C16   S    
C36   H16   S    
C33   C34   A    
C12   C23   A    
C10   C11   A    
C25   O12   A    
C19   N1    A    
C19   C20   A    
C23   C28   A    
C19   O2    S    
C8    C17   S    
Cu2   O13   S    
Cu1   Cu2   S    
C7    C27   A    
C31   C32   A    
C21   N2    A    
Br5   C22   S    
C25   O13   A    
C24   H15   S    
Cu2   O7    S    
Br1   C10   S    
H7    O5    S    
H6    O4    S    
C1    O1    A    
C4    O8    A    
Cu1   O8    S    
C15   C17   S    
C33   O5    S    
H8    O6    S    
C1    O7    A    
Br4   C20   S    
C5    C6    A    
C17   H11   S    
Cu2   N1    S    
C22   C24   S    
C20   N2    A    
C32   C33   A    
C2    C5    A    
C24   H14   S    
C23   C34   A    
C3    C32   A    
C11   C13   A    
C31   C35   A    
Cu2   O11   S    
C18   C24   S    
C4    C26   S    
C14   C15   S    
C21   C22   S    
C8    C9    A    
C16   O11   A    
C6    C27   A    
C29   H2    S    
C12   C30   A    
Cu1   N2    S    
