data_mof_unit_37077.cif
_audit_creation_date              2012-12-10T20:31:56-0500
_audit_creation_method            fapswitch 2.2
_symmetry_space_group_name_H-M    P1
_symmetry_Int_Tables_number       1
_space_group_crystal_system       triclinic
_cell_length_a                    9.877992
_cell_length_b                    10.689084
_cell_length_c                    15.511385
_cell_angle_alpha                 90.090697
_cell_angle_beta                  67.910709
_cell_angle_gamma                 89.75194
_cell_volume                      1517.55645198

loop_
_atom_site_label
_atom_site_type_symbol
_atom_type_description
_atom_site_fract_x
_atom_site_fract_y
_atom_site_fract_z
_atom_type_partial_charge
C1    C     C_R   0.500941 0.739948 0.498092 0.934315
C2    C     C_R   0.394154 0.470444 0.919478 0.047523
C3    C     C_R   0.256056 0.525634 0.970589 0.050847
C4    C     C_R   0.487906 0.432924 0.964880 0.067292
C5    C     C_R   0.453783 0.469301 0.058506 -0.063632
C6    C     C_R   0.309187 0.514046 0.111324 -0.126794
C7    C     C_R   0.213058 0.544820 0.066706 0.291936
C8    C     C_R   0.614202 0.358517 0.919623 -0.186725
C9    C     C_R   0.711789 0.330883 0.961967 -0.218955
C10   C     C_R   0.690344 0.380664 0.048883 0.161402
C11   C     C_R   0.565122 0.455533 0.095681 0.124388
C12   C     C_R   0.408591 0.500394 0.675820 0.904127
C13   C     C_R   0.791513 0.355203 0.090562 -0.190241
C14   C     C_R   0.766015 0.399798 0.179852 -0.113628
C15   C     C_R   0.558006 0.516665 0.177034 -0.200934
C16   C     C_R   0.378383 0.937355 0.499971 0.051920
C17   C     C_R   0.506465 0.871642 0.486894 -0.060096
C18   C     C_R   0.640528 0.934543 0.458433 -0.193904
C19   C     C_R   0.641140 0.064087 0.457637 -0.207435
C20   C     C_R   0.507755 0.128705 0.484623 -0.060264
C21   C     C_R   0.379452 0.064754 0.497154 0.058872
C22   C     C_3   0.232233 0.076183 0.573440 -0.482366
C23   C     C_R   0.501798 0.260163 0.497223 0.875582
C24   C     C_3   0.231679 0.934386 0.577928 0.210618
C25   C     C_R   0.904340 0.596103 0.540465 0.218302
C26   C     C_R   0.953881 0.407535 0.457162 -0.107590
C27   C     C_R   0.096885 0.406573 0.458391 -0.086580
C28   C     C_R   0.046954 0.595912 0.540738 0.180840
C29   C     C_3   0.991269 0.629436 0.641577 -0.486782
C30   C     C_3   0.838615 0.631568 0.640697 -0.488122
C31   C     C_R   0.591373 0.499416 0.324053 0.867999
C32   C     C_R   0.349871 0.501690 0.777069 -0.057246
C33   C     C_R   0.646696 0.479002 0.223837 -0.036706
C34   C     C_R   0.163290 0.559752 0.923951 -0.108863
C35   C     C_R   0.209825 0.547233 0.827961 -0.174375
C36   C     C_R   0.439471 0.462030 0.822632 -0.228002
H1    H     H_    0.885766 0.295818 0.056176 0.153781
H2    H     H_    0.742925 0.884611 0.441985 0.176852
H3    H     H_    0.743731 0.112806 0.441199 0.161704
H4    H     H_    0.235959 0.123860 0.636317 0.233738
H5    H     H_    0.149509 0.114584 0.547811 0.170492
H6    H     H_    0.146612 0.891070 0.557007 0.108027
H7    H     H_    0.920219 0.332241 0.423137 0.151213
H8    H     H_    0.170464 0.330017 0.425994 0.189274
H9    H     H_    0.008369 0.553132 0.685107 0.210968
H10   H     H_    0.479353 0.590132 0.207997 0.155433
H11   H     H_    0.027750 0.722839 0.654535 0.241228
H12   H     H_    0.767465 0.557554 0.684898 0.219144
H13   H     H_    0.788952 0.726666 0.650992 0.214261
H14   H     H_    0.835980 0.369359 0.215429 0.172201
H15   H     H_    0.805850 0.272085 0.925703 0.155016
H16   H     H_    0.055660 0.599008 0.960298 0.201359
H17   H     H_    0.138760 0.578084 0.793349 0.171413
H18   H     H_    0.547988 0.430644 0.780257 0.143337
H19   H     H_    0.637251 0.315399 0.852648 0.145637
N1    N     N_R   0.856900 0.500860 0.500610 -0.109299
N2    N     N_R   0.142540 0.500820 0.500610 -0.120159
O1    O     O_R   0.385310 0.683210 0.499990 -0.608860
O2    O     O_R   0.614650 0.683240 0.500000 -0.618406
O3    O     O_R   0.319830 0.499970 0.632240 -0.609778
O4    O     O_R   0.549170 0.500000 0.632250 -0.621414
O5    O     O_R   0.385350 0.316760 0.500000 -0.619667
O6    O     O_R   0.614690 0.316790 0.500010 -0.632944
O7    O     O_R   0.450830 0.500000 0.367750 -0.594875
O8    O     O_R   0.680170 0.500030 0.367760 -0.596422
Zn1   Zn    Zn3+2 0.346870 0.499980 0.499990 0.970314
Zn2   Zn    Zn3+2 0.653130 0.500020 0.500010 0.967344
Cl1   Cl    Cl    0.037070 0.607031 0.132425 -0.608503
Cl2   Cl    Cl    0.238509 0.877941 0.684942 -0.640998
C37   C     C_2   0.247009 0.510058 0.214095 0.968713
O9    O     O_2   0.252314 0.412704 0.253858 -0.651499
O10   O     O_R   0.185518 0.618113 0.264952 -0.750907
H20   H     H_    0.149349 0.605000 0.334502 0.335561

loop_
_geom_bond_atom_site_label_1
_geom_bond_atom_site_label_2
_ccdc_geom_bond_type
C16   C21   A    
C35   H17   S    
C24   H6    S    
C19   C20   A    
C9    H15   S    
C25   N1    A    
N2    Zn1   S    
C4    C8    A    
C14   C33   A    
C28   N2    A    
C25   C28   A    
C26   C27   A    
C29   H11   S    
C32   C36   A    
C30   H12   S    
C28   C29   S    
C5    C11   A    
C3    C7    A    
C1    O2    A    
C5    C6    A    
C22   H5    S    
C16   C17   A    
C18   C19   A    
C6    C37   S    
C34   C35   A    
O2    Zn2   S    
C7    Cl1   S    
C11   C15   A    
C27   H8    S    
O1    Zn1   S    
C23   O5    A    
C8    C9    A    
O8    Zn2   S    
C24   Cl2   S    
C31   C33   S    
C37   O9    D    
C9    C10   A    
C13   H1    S    
C23   O6    A    
O3    Zn1   S    
C16   C24   S    
C21   C22   S    
C12   C32   S    
C8    H19   S    
C26   H7    S    
O6    Zn2   S    
O5    Zn1   S    
C32   C35   A    
C27   N2    A    
O10   H20   S    
C3    C34   A    
C29   H9    S    
O7    Zn1   S    
C2    C4    A    
C29   C30   S    
O4    Zn2   S    
C20   C23   S    
C22   H4    S    
C17   C18   A    
C19   H3    S    
C30   H13   S    
C22   C24   S    
C2    C36   A    
C25   C30   S    
C31   O8    A    
C34   H16   S    
C31   O7    A    
C4    C5    A    
C10   C13   A    
C26   N1    A    
C6    C7    A    
N1    Zn2   S    
C1    C17   S    
C2    C3    A    
C18   H2    S    
C1    O1    A    
C12   O4    A    
C14   H14   S    
C36   H18   S    
C10   C11   A    
C12   O3    A    
C20   C21   A    
C37   O10   S    
C15   H10   S    
C13   C14   A    
C15   C33   A    
