data_mof_unit_13829.cif
_audit_creation_date              2012-12-11T20:37:33-0500
_audit_creation_method            fapswitch 2.2
_symmetry_space_group_name_H-M    P1
_symmetry_Int_Tables_number       1
_space_group_crystal_system       triclinic
_cell_length_a                    8.44382
_cell_length_b                    18.793667
_cell_length_c                    23.016346
_cell_angle_alpha                 98.296608
_cell_angle_beta                  90.024671
_cell_angle_gamma                 93.557989
_cell_volume                      3607.11690217

loop_
_atom_site_label
_atom_site_type_symbol
_atom_type_description
_atom_site_fract_x
_atom_site_fract_y
_atom_site_fract_z
_atom_type_partial_charge
Ba1   Ba    Ba6+2 0.849480 0.533290 0.473010 1.662419
Ba2   Ba    Ba6+2 0.340340 0.466770 0.527000 1.635513
C1    C     C_3   0.699175 0.790816 0.305175 -0.184590
C2    C     C_R   0.140435 0.537448 0.935283 -0.198835
C3    C     C_R   0.116552 0.528867 0.873678 0.664778
C4    C     C_3   0.057745 0.674645 0.313568 0.372805
C5    C     C_R   0.958610 0.420383 0.875893 0.585016
C6    C     C_R   0.994262 0.422015 0.937118 0.035677
C7    C     C_R   0.081291 0.483104 0.967106 -0.143768
C8    C     C_R   0.225666 0.598712 0.965591 0.587711
C9    C     C_R   0.250511 0.606082 0.026280 0.589068
C10   C     C_R   0.198983 0.550593 0.058456 -0.194173
C11   C     C_R   0.117552 0.488289 0.028370 -0.133454
C12   C     C_3   0.631227 0.721620 0.327860 0.900022
C13   C     C_R   0.946934 0.364798 0.969696 0.048376
C14   C     C_R   0.990174 0.369822 0.029341 -0.059842
C15   C     C_R   0.075192 0.430733 0.059188 0.007704
C16   C     C_3   0.038838 0.691880 0.250514 -0.229941
C17   C     C_R   0.121893 0.434272 0.118957 0.583047
C18   C     C_R   0.229705 0.555305 0.119629 0.631422
C19   C     C_2   0.810227 0.442722 0.762186 -0.130455
C20   C     C_3   0.775074 0.431999 0.696833 -0.064280
C21   C     C_1   0.988633 0.522809 0.687152 0.044721
C22   C     C_2   0.011104 0.536185 0.745732 0.028025
C23   C     C_3   0.572154 0.366193 0.342612 0.321697
C24   C     C_2   0.943916 0.482013 0.784756 0.166063
C25   C     C_R   0.408284 0.524031 0.229570 0.001954
C26   C     C_R   0.445145 0.537601 0.290536 -0.026110
C27   C     C_R   0.188373 0.483266 0.312982 0.007356
C28   C     C_3   0.238250 0.692962 0.625328 0.270107
C29   C     C_R   0.142743 0.477540 0.253402 -0.141432
C30   C     C_R   0.250112 0.499321 0.210650 0.211710
C31   C     C_2   0.850631 0.492182 0.666746 -0.192590
C32   C     C_2   0.413271 0.698388 0.472407 -0.246066
C33   C     C_3   0.316306 0.747750 0.441719 -0.075764
C34   C     C_3   0.641601 0.345963 0.281993 -0.346472
C35   C     C_2   0.349797 0.827011 0.462039 0.548168
C36   C     C_2   0.480527 0.850422 0.495517 -0.127944
C37   C     C_2   0.577810 0.795196 0.517512 -0.175916
C38   C     C_1   0.531965 0.725243 0.508655 0.119506
C39   C     C_R   0.639979 0.070612 0.516324 0.468703
C40   C     C_3   0.286117 0.763362 0.667042 0.501934
C41   C     C_R   0.534127 0.928898 0.506326 0.480852
C42   C     C_R   0.610186 0.194373 0.489692 -0.168814
C43   C     C_R   0.673180 0.263285 0.482740 0.049174
C44   C     C_R   0.913388 0.242144 0.534682 0.007604
C45   C     C_3   0.051996 0.276183 0.679669 0.352011
C46   C     C_R   0.850927 0.172601 0.540766 -0.061367
C47   C     C_R   0.700836 0.146938 0.516380 -0.024394
C48   C     C_R   0.830105 0.284550 0.501030 -0.207544
C49   C     C_3   0.163880 0.308944 0.349069 0.241157
C50   C     C_3   0.212193 0.290317 0.284798 -0.222643
C51   C     C_3   0.766486 0.734011 0.644514 0.257050
C52   C     C_3   0.731545 0.781340 0.702953 -0.230941
C53   C     C_3   0.311976 0.751665 0.730464 -0.239283
C54   C     C_3   0.076688 0.252681 0.245945 -0.320106
C55   C     C_3   0.702517 0.859259 0.694359 -0.381355
C56   C     C_3   0.010964 0.213793 0.714383 0.483213
C57   C     C_3   0.452578 0.714147 0.318944 -0.332182
C58   C     C_3   0.661716 0.860869 0.344315 -0.375228
C59   C     C_3   0.127758 0.340437 0.720236 -0.223441
C60   C     C_3   0.422557 0.143616 0.647566 -0.252772
C61   C     C_3   0.558141 0.204826 0.740523 -0.244949
C62   C     C_3   0.850585 0.297393 0.943184 -0.315427
C63   C     C_3   0.540059 0.531483 0.185959 -0.288368
C64   C     C_3   0.003776 0.614796 0.771046 -0.271941
C65   C     C_3   0.750009 0.533393 0.630819 -0.226565
C66   C     C_3   0.914198 0.348851 0.480017 -0.230051
C67   C     C_3   0.559852 0.269675 0.649681 0.345114
C68   C     C_3   0.132154 0.760528 0.238245 -0.341797
C69   C     C_3   0.166794 0.712418 0.569850 -0.204435
C70   C     C_3   0.560204 0.196017 0.673018 0.458293
C71   C     C_R   0.334603 0.517514 0.331057 -0.279911
F1    F     F_    0.670747 0.726612 0.386794 -0.697423
F2    F     F_    0.172029 0.813453 0.666822 -0.711901
F3    F     F_    0.137318 0.200734 0.748783 -0.730864
F4    F     F_    0.698200 0.164122 0.654695 -0.774487
F5    F     F_    0.330726 0.667004 0.052877 -0.613443
F6    F     F_    0.280924 0.653413 0.936922 -0.615807
F7    F     F_    0.259546 0.873563 0.438731 -0.680939
H1    H     H_    0.397609 0.786659 0.650439 -0.009737
H2    H     H_    0.629604 0.757176 0.724938 0.121896
H3    H     H_    0.459226 0.391002 0.337661 -0.087826
H4    H     H_    0.652066 0.407603 0.367439 0.108143
H5    H     H_    0.560533 0.306173 0.254430 0.102761
H6    H     H_    0.660091 0.394493 0.259990 0.092102
H7    H     H_    0.756860 0.322100 0.286205 0.135744
H8    H     H_    0.655545 0.792067 0.259753 0.068497
H9    H     H_    0.075393 0.645307 0.219399 0.128540
H10   H     H_    0.939265 0.292399 0.662359 -0.132623
H11   H     H_    0.909861 0.226949 0.743737 0.043995
H12   H     H_    0.138993 0.257899 0.367219 0.049261
H13   H     H_    0.978087 0.163932 0.683700 0.107297
H14   H     H_    0.684726 0.286423 0.640806 -0.040096
H15   H     H_    0.495587 0.263843 0.606949 0.051260
H16   H     H_    0.969043 0.631358 0.320641 0.114229
H17   H     H_    0.955807 0.325512 0.052979 0.116136
H18   H     H_    0.732442 0.412527 0.788283 0.141506
H19   H     H_    0.024809 0.455140 0.240368 0.129266
H20   H     H_    0.367087 0.524630 0.377116 0.069081
H21   H     H_    0.172460 0.651314 0.317020 -0.083243
H22   H     H_    0.691135 0.812963 0.538379 0.110769
H23   H     H_    0.261006 0.337965 0.375891 0.060640
H24   H     H_    0.492559 0.177220 0.472428 0.117620
H25   H     H_    0.920061 0.138586 0.563724 0.116340
H26   H     H_    0.396376 0.640796 0.458216 0.077163
H27   H     H_    0.913189 0.697081 0.239881 0.132898
H28   H     H_    0.345099 0.662450 0.614853 0.007627
H29   H     H_    0.195982 0.748693 0.752690 0.141859
H30   H     H_    0.374102 0.701633 0.732594 0.065748
H31   H     H_    0.382744 0.798558 0.754496 0.102175
H32   H     H_    0.989407 0.291765 0.238037 0.156125
H33   H     H_    0.124008 0.229507 0.203039 0.137867
H34   H     H_    0.310792 0.253805 0.282906 0.104671
H35   H     H_    0.017120 0.208654 0.266532 0.116205
H36   H     H_    0.815953 0.887712 0.683531 0.180825
H37   H     H_    0.617500 0.860612 0.657687 0.124227
H38   H     H_    0.655273 0.888787 0.735590 0.147458
H39   H     H_    0.424696 0.692083 0.272545 0.077268
H40   H     H_    0.394178 0.765237 0.330928 0.080821
H41   H     H_    0.405763 0.675060 0.346924 0.039942
H42   H     H_    0.701765 0.860409 0.390233 0.192274
H43   H     H_    0.725974 0.907095 0.327649 0.132613
H44   H     H_    0.533282 0.869986 0.343753 0.140118
H45   H     H_    0.255454 0.339630 0.267165 0.095871
H46   H     H_    0.149451 0.387093 0.696122 0.100389
H47   H     H_    0.048356 0.354704 0.757308 0.092375
H48   H     H_    0.240452 0.327108 0.739360 0.190151
H49   H     H_    0.413825 0.141338 0.599196 0.102932
H50   H     H_    0.442058 0.088487 0.657058 0.142405
H51   H     H_    0.308574 0.159237 0.667212 0.166128
H52   H     H_    0.441549 0.222059 0.757606 0.162320
H53   H     H_    0.581091 0.153004 0.755892 0.129806
H54   H     H_    0.650339 0.246282 0.759517 0.098081
H55   H     H_    0.821284 0.260780 0.975971 0.089627
H56   H     H_    0.803349 0.769491 0.611397 0.054821
H57   H     H_    0.736223 0.311833 0.925654 0.148322
H58   H     H_    0.918704 0.266624 0.907865 0.174527
H59   H     H_    0.640033 0.499460 0.195818 0.101313
H60   H     H_    0.503813 0.509886 0.140263 0.108830
H61   H     H_    0.582672 0.588917 0.188198 0.154392
H62   H     H_    0.952844 0.621553 0.815843 0.133486
H63   H     H_    0.125127 0.640455 0.772942 0.164235
H64   H     H_    0.927394 0.643660 0.743989 0.068515
H65   H     H_    0.729322 0.502314 0.586664 0.151418
H66   H     H_    0.637101 0.546731 0.653038 0.131128
H67   H     H_    0.869218 0.702886 0.652653 0.085431
H68   H     H_    0.810176 0.584930 0.624113 0.088207
H69   H     H_    0.040109 0.339269 0.470073 0.131861
H70   H     H_    0.865174 0.358005 0.437786 0.117838
H71   H     H_    0.903196 0.397702 0.512733 0.129901
H72   H     H_    0.256512 0.749844 0.227055 0.162361
H73   H     H_    0.078870 0.779581 0.199634 0.146745
H74   H     H_    0.129279 0.804479 0.275937 0.161011
H75   H     H_    0.155904 0.664160 0.535913 0.083519
H76   H     H_    0.048354 0.732987 0.579011 0.165660
H77   H     H_    0.239368 0.757048 0.554777 -0.003878
H78   H     H_    0.829809 0.790710 0.303392 0.153812
H79   H     H_    0.834964 0.783191 0.733472 0.131063
N1    N     N_R   0.003942 0.478076 0.845711 -0.423491
N2    N     N_R   0.199006 0.496225 0.149015 -0.432421
N3    N     N_R   0.492951 0.048202 0.494567 -0.248031
N4    N     N_R   0.441413 0.979206 0.489800 -0.148459
N5    N     N_R   0.680437 0.951406 0.529239 -0.237506
N6    N     N_R   0.732238 0.020725 0.534128 -0.207187
O1    O     O_2   0.898140 0.461210 0.359840 -0.456032
O2    O     O_2   0.237842 0.248426 0.527235 -0.477561
O3    O     O_3   0.159808 0.253451 0.635325 -0.603557
O4    O     O_3   0.138540 0.461940 0.430900 -0.488547
O5    O     O_3   0.557600 0.585010 0.531050 -0.481214
O6    O     O_2   0.379790 0.327560 0.468300 -0.455088
O7    O     O_3   0.548418 0.303907 0.369714 -0.652780
O8    O     O_2   0.446145 0.461788 0.709178 -0.457180
O9    O     O_3   0.489571 0.322132 0.689991 -0.629493
O10   O     O_2   0.203368 0.564228 0.844976 -0.529813
O11   O     O_2   0.894111 0.365740 0.849072 -0.634590
O12   O     O_3   0.636860 0.684499 0.626015 -0.678635
O13   O     O_2   0.096079 0.381528 0.143754 -0.617606
O14   O     O_2   0.286213 0.611917 0.146608 -0.545613
O15   O     O_3   0.654260 0.589640 0.397760 -0.413824
O16   O     O_2   0.769262 0.530008 0.295299 -0.517542
O17   O     O_3   0.025982 0.346761 0.354334 -0.638908
O18   O     O_3   0.698389 0.661298 0.295476 -0.649033
O19   O     O_2   0.809910 0.672460 0.531740 -0.474089
O20   O     O_3   0.065030 0.625960 0.427320 -0.502672
O21   O     O_2   0.986720 0.757234 0.469409 -0.407383
O22   O     O_3   0.038682 0.735574 0.356104 -0.558390
O23   O     O_2   0.291560 0.538810 0.640200 -0.452088
O24   O     O_3   0.051160 0.538120 0.569110 -0.490756
O25   O     O_3   0.535440 0.410410 0.602240 -0.475940
O26   O     O_3   0.121845 0.653480 0.652144 -0.664734
O27   O     O_3   0.632100 0.415050 0.468960 -0.506464
O28   O     O_3   0.124670 0.374100 0.572690 -0.485985
P1    P     P_3+3 0.069200 0.440380 0.368230 0.963954
P2    P     P_3+3 0.634560 0.662100 0.548650 0.969622
P3    P     P_3+3 0.101434 0.717645 0.425100 1.068220
P4    P     P_3+3 0.120500 0.559680 0.631780 0.990670
P5    P     P_3+3 0.106451 0.279185 0.568200 0.960082
P6    P     P_3+3 0.639131 0.579297 0.320528 0.965360
P7    P     P_3+3 0.557215 0.325498 0.446604 0.933362
P8    P     P_3+3 0.559991 0.407979 0.676905 0.959345

loop_
_geom_bond_atom_site_label_1
_geom_bond_atom_site_label_2
_ccdc_geom_bond_type
C42   C47   A    
C57   H41   S    
C71   H20   S    
C19   C24   D    
C16   C68   S    
C57   H40   S    
C19   H18   S    
O23   P4    D    
O22   P3    S    
C67   C70   S    
Ba2   P4    S    
C60   H50   S    
Ba2   O24   S    
C49   O17   S    
C52   C55   S    
C23   H3    S    
C28   C69   S    
C42   H24   S    
C56   F3    S    
C5    C6    A    
C62   H58   S    
C51   C52   S    
C43   P7    S    
C12   C57   S    
C51   H56   S    
C31   C65   S    
C40   F2    S    
C35   C36   D    
O3    P5    S    
C32   C38   D    
C12   F1    S    
O21   P3    D    
N5    N6    A    
Ba1   P2    S    
C56   H13   S    
C22   C24   S    
C32   C33   S    
C36   C37   S    
C40   C53   S    
Ba1   O15   S    
C14   H17   S    
C44   P5    S    
C27   C71   A    
C69   H76   S    
C49   H23   S    
C13   C14   A    
C68   H73   S    
Ba1   O5    S    
C51   H67   S    
O8    P8    D    
Ba1   Ba2   S    
C17   N2    Am   
C4    H21   S    
C58   H44   S    
C7    C11   A    
C16   H27   S    
C66   H69   S    
C52   H79   S    
C63   H60   S    
C54   H35   S    
C46   H25   S    
C14   C15   A    
C21   C31   D    
C39   N6    A    
C65   H65   S    
C23   H4    S    
C54   H33   S    
C24   N1    S    
C59   H46   S    
O17   P1    S    
C29   H19   S    
C55   H36   S    
O12   P2    S    
C56   H11   S    
C22   C64   S    
Ba2   O6    S    
C53   H31   S    
C41   N5    A    
C25   C30   A    
C62   H55   S    
C39   N3    A    
C30   N2    S    
C3    O10   D    
C60   H49   S    
C40   H1    S    
C69   H77   S    
C26   C71   A    
C39   C47   S    
Ba1   O19   S    
O28   P5    S    
C12   O18   S    
C18   O14   D    
C62   H57   S    
C34   H7    S    
C4    C16   S    
C35   F7    S    
C44   C46   A    
C26   P6    S    
C49   C50   S    
C32   H26   S    
C61   H54   S    
O26   P4    S    
C68   H72   S    
C67   H14   S    
C37   C38   D    
C8    F6    S    
C6    C7    A    
C64   H63   S    
Ba2   O4    S    
C34   H6    S    
C28   O26   S    
C4    O22   S    
O9    P8    S    
O18   P6    S    
C58   H43   S    
C70   F4    S    
C25   C63   S    
C9    F5    S    
C49   H12   S    
C1    H78   S    
C63   H61   S    
C29   C30   A    
C13   C62   S    
C3    N1    Am   
C69   H75   S    
C5    O11   D    
C10   C18   A    
C65   H66   S    
C60   C70   S    
C59   H47   S    
C61   H52   S    
C61   C70   S    
C58   H42   S    
C17   O13   D    
C1    C12   S    
C33   P3    S    
Ba2   O5    S    
C64   H62   S    
C23   O7    S    
C46   C47   A    
C6    C13   A    
C4    H16   S    
C53   H30   S    
C45   H10   S    
O6    P7    D    
O1    P1    D    
C67   O9    S    
O20   P3    S    
C2    C8    A    
O16   P6    D    
C61   H53   S    
C52   H2    S    
C42   C43   A    
C33   C35   S    
C37   H22   S    
C55   H37   S    
N3    N4    A    
O24   P4    S    
C20   C31   S    
C44   C48   A    
C57   H39   S    
C21   C22   D    
C20   P8    S    
C28   H28   S    
C1    H8    S    
C68   H74   S    
C16   H9    S    
C60   H51   S    
Ba2   O25   S    
Ba2   O27   S    
C2    C3    A    
C67   H15   S    
C51   O12   S    
C45   C59   S    
C50   H45   S    
O25   P8    S    
O4    P1    S    
C5    N1    Am   
C50   H34   S    
C34   H5    S    
O19   P2    D    
C21   P4    S    
C11   C15   A    
Ba2   O28   S    
Ba1   O20   S    
Ba1   P1    S    
C36   C41   S    
C27   C29   A    
C66   H71   S    
C1    C58   S    
C45   C56   S    
C43   C48   A    
C45   O3    S    
O5    P2    S    
Ba1   O1    S    
C18   N2    Am   
Ba1   O4    S    
C15   C17   A    
O2    P5    D    
O7    P7    S    
C59   H48   S    
O27   P7    S    
Ba2   O23   S    
C66   H70   S    
C8    C9    A    
C23   C34   S    
C63   H59   S    
Ba1   O27   S    
C50   C54   S    
C64   H64   S    
C10   C11   A    
C65   H68   S    
O15   P6    S    
C28   C40   S    
C2    C7    A    
C19   C20   S    
C48   C66   S    
C54   H32   S    
C53   H29   S    
C27   P1    S    
C9    C10   A    
C41   N4    A    
C55   H38   S    
C25   C26   A    
C38   P2    S    
Ba1   O24   S    
