data_mof_unit_19433.cif
_audit_creation_date              2012-10-26T19:03:30-0400
_audit_creation_method            fapswitch 2.2
_symmetry_space_group_name_H-M    P1
_symmetry_Int_Tables_number       1
_space_group_crystal_system       triclinic
_cell_length_a                    10.885514
_cell_length_b                    13.043037
_cell_length_c                    11.892186
_cell_angle_alpha                 101.579544
_cell_angle_beta                  95.763228
_cell_angle_gamma                 92.179931
_cell_volume                      1642.79261383

loop_
_atom_site_label
_atom_site_type_symbol
_atom_type_description
_atom_site_fract_x
_atom_site_fract_y
_atom_site_fract_z
_atom_type_partial_charge
Br1   Br    Br    0.511410 0.149674 0.211752 -0.202982
Br2   Br    Br    0.818939 0.321655 0.291453 -0.259189
Br3   Br    Br    0.319738 0.758854 0.313317 -0.237485
Br4   Br    Br    0.483333 0.848775 0.785757 -0.203239
Br5   Br    Br    0.322877 0.361653 0.745317 -0.328527
Br6   Br    Br    0.706917 0.686761 0.804147 -0.280117
Br7   Br    Br    0.389680 0.233195 0.939090 -0.204007
Br8   Br    Br    0.573015 0.775905 0.036944 -0.115490
Br9   Br    Br    0.284059 0.323129 0.189376 -0.189475
Br10  Br    Br    0.202277 0.746081 0.581803 -0.353366
Br11  Br    Br    0.991691 0.623023 0.970100 -0.225150
Br12  Br    Br    0.837263 0.435084 0.779954 -0.220720
C1    C     C_R   0.505909 0.298756 0.476557 0.620346
C2    C     C_R   0.457822 0.118998 0.351720 0.180277
C3    C     C_R   0.540818 0.133987 0.549450 0.161616
C4    C     C_R   0.261423 0.498558 0.498428 0.607830
C5    C     C_R   0.498967 0.030026 0.544237 -0.065386
C6    C     C_R   0.435137 0.967296 0.441329 -0.020585
C7    C     C_R   0.418303 0.856613 0.437694 0.209724
C8    C     C_R   0.495600 0.884877 0.640479 0.165411
C9    C     C_R   0.513030 0.990377 0.644585 -0.009223
C10   C     C_R   0.418455 0.378955 0.016303 0.184997
C11   C     C_R   0.408556 0.400450 0.135918 0.302725
C12   C     C_R   0.068220 0.557687 0.584410 -0.078695
C13   C     C_R   0.543005 0.554122 0.161308 0.360012
C14   C     C_R   0.527790 0.547884 0.036481 -0.088115
C15   C     C_R   0.468857 0.456832 0.963138 -0.073192
C16   C     C_R   0.490563 0.700768 0.522024 0.593676
C17   C     C_R   0.455993 0.450591 0.839627 0.319692
C18   C     C_R   0.590315 0.601283 0.861736 0.327716
C19   C     C_R   0.574341 0.626348 0.979677 0.210829
C20   C     C_R   0.736686 0.490009 0.501596 0.606837
C21   C     C_R   0.123198 0.650277 0.656294 0.156258
C22   C     C_R   0.088958 0.681663 0.769404 0.200701
C23   C     C_R   0.125048 0.492755 0.495935 0.000103
C24   C     C_R   0.004439 0.614832 0.807244 0.164034
C25   C     C_R   0.930656 0.538724 0.724434 0.197693
C26   C     C_R   0.951775 0.524359 0.606688 -0.067693
C27   C     C_R   0.051306 0.406834 0.424881 0.198133
C28   C     C_R   0.922183 0.412878 0.416033 0.157620
C29   C     C_R   0.870221 0.473241 0.509260 0.019801
C30   C     C_R   0.469852 0.815073 0.533578 0.024698
C31   C     C_R   0.505147 0.182476 0.458000 -0.020652
C32   C     C_R   0.404565 0.018288 0.346762 0.264471
Cu1   Cu    Cu3+1 0.509250 0.507730 0.615930 1.183916
Cu2   Cu    Cu3+1 0.490750 0.492270 0.384070 1.204701
H1    H     H_    0.536123 0.042300 0.728065 0.232066
H2    H     H_    0.051916 0.253477 0.565708 0.370978
H3    H     H_    0.781634 0.211622 0.512595 0.371043
H4    H     H_    0.783572 0.723993 0.393674 0.380016
H5    H     H_    0.264950 0.699419 0.968258 0.355506
H6    H     H_    0.180078 0.043615 0.103841 0.416446
N1    N     N_R   0.523180 0.519350 0.790130 -0.249585
N2    N     N_R   0.476820 0.480650 0.209890 -0.279442
O1    O     O_R   0.506570 0.354460 0.582000 -0.425504
O2    O     O_2   0.240450 0.276150 0.431973 -0.274531
O3    O     O_3   0.032390 0.211060 0.486427 -0.439926
O4    O     O_2   0.627123 0.258331 0.751924 -0.171837
O5    O     O_2   0.747710 0.107535 0.686013 -0.207509
O6    O     O_3   0.759001 0.261831 0.580445 -0.491723
O7    O     O_2   0.755129 0.671110 0.168197 -0.196101
O8    O     O_2   0.588721 0.757871 0.266487 -0.237768
O9    O     O_3   0.733142 0.656723 0.371553 -0.488395
O10   O     O_2   0.192698 0.880823 0.807137 -0.133488
O11   O     O_2   0.079274 0.836775 0.958028 -0.162763
O12   O     O_R   0.490940 0.341410 0.386200 -0.463963
O13   O     O_3   0.291608 0.756601 0.930821 -0.420451
O14   O     O_2   0.329500 0.893465 0.141361 -0.146027
O15   O     O_2   0.172438 0.933464 0.277316 -0.160920
O16   O     O_3   0.239883 0.075806 0.171200 -0.391522
O17   O     O_R   0.327470 0.506530 0.597920 -0.485665
O18   O     O_R   0.311840 0.493480 0.402120 -0.461219
O19   O     O_R   0.509060 0.658590 0.613800 -0.463124
O20   O     O_R   0.493430 0.645540 0.418000 -0.440376
O21   O     O_R   0.688160 0.506520 0.597880 -0.466303
O22   O     O_R   0.672530 0.493470 0.402080 -0.430700
O23   O     O_2   0.069052 0.222475 0.278617 -0.105574
S1    S     S_3+6 0.103741 0.277711 0.401878 0.119651
S2    S     S_3+6 0.670713 0.190248 0.647810 0.092919
S3    S     S_3+6 0.654995 0.658382 0.243626 0.127710
S4    S     S_3+6 0.161077 0.794075 0.867228 0.161005
S5    S     S_3+6 0.283932 0.975698 0.232358 0.186550

loop_
_geom_bond_atom_site_label_1
_geom_bond_atom_site_label_2
_ccdc_geom_bond_type
O6    S2    S    
Cu1   O17   S    
C13   S3    S    
C4    O18   A    
Cu2   O20   S    
C16   O20   A    
C20   O21   A    
Cu2   O22   S    
H2    O3    S    
Cu1   Cu2   S    
C14   C15   A    
H3    O6    S    
O8    S3    D    
C24   C25   A    
Cu2   O12   S    
C32   S5    S    
C4    C23   S    
C18   C19   A    
C15   C17   A    
O7    S3    D    
O2    S1    D    
Cu1   O19   S    
C6    C7    A    
Br12  C25   S    
O15   S5    D    
C3    S2    S    
C12   C26   A    
C20   C29   S    
Br3   C7    S    
C22   S4    S    
Cu2   O18   S    
C7    C30   A    
O9    S3    S    
Cu1   N1    S    
C14   C19   A    
H4    O9    S    
C4    O17   A    
C16   O19   A    
C21   C22   A    
Br5   C17   S    
C1    O12   A    
C18   N1    A    
C12   C23   A    
C27   S1    S    
C13   N2    A    
C26   C29   A    
O5    S2    D    
C27   C28   A    
Br9   C11   S    
C13   C14   A    
O23   S1    D    
C5    C9    A    
C23   C27   A    
C25   C26   A    
C6    C32   A    
O11   S4    D    
Cu2   N2    S    
C5    C6    A    
H5    O13   S    
O4    S2    D    
C28   C29   A    
Br6   C18   S    
O13   S4    S    
C10   C15   A    
C1    C31   S    
C11   N2    A    
C2    C32   A    
C3    C5    A    
Br11  C24   S    
Br8   C19   S    
O3    S1    S    
C20   O22   A    
C8    C30   A    
Br7   C10   S    
C12   C21   A    
Cu1   O21   S    
O14   S5    D    
C3    C31   A    
C17   N1    A    
C16   C30   S    
Br10  C21   S    
C22   C24   A    
O16   S5    S    
O10   S4    D    
H6    O16   S    
Br4   C8    S    
Br2   C28   S    
C8    C9    A    
Cu1   O1    S    
C10   C11   A    
Br1   C2    S    
C9    H1    S    
C2    C31   A    
C1    O1    A    
