data_mof_unit_46335.cif
_audit_creation_date              2012-10-26T18:33:57-0400
_audit_creation_method            fapswitch 2.2
_symmetry_space_group_name_H-M    P1
_symmetry_Int_Tables_number       1
_space_group_crystal_system       triclinic
_cell_length_a                    11.029449
_cell_length_b                    10.961011
_cell_length_c                    9.612613
_cell_angle_alpha                 90.691627
_cell_angle_beta                  102.132938
_cell_angle_gamma                 92.813069
_cell_volume                      1134.48058775

loop_
_atom_site_label
_atom_site_type_symbol
_atom_type_description
_atom_site_fract_x
_atom_site_fract_y
_atom_site_fract_z
_atom_type_partial_charge
C1    C     C_R   0.504073 0.262342 0.500429 0.585222
C2    C     C_2   0.873685 0.495563 0.575791 0.080436
C3    C     C_2   0.047906 0.524498 0.451643 0.064796
C4    C     C_2   0.924884 0.468034 0.462354 0.080045
C5    C     C_R   0.488623 0.060641 0.370627 0.049362
C6    C     C_R   0.496010 0.937114 0.627718 0.052855
C7    C     C_R   0.468774 0.933433 0.368351 0.012880
C8    C     C_R   0.513252 0.064554 0.630591 0.019832
C9    C     C_R   0.482781 0.870740 0.498084 0.005328
C10   C     C_R   0.505762 0.127600 0.500948 0.010617
C11   C     C_2   0.858904 0.384207 0.343104 0.612341
C12   C     C_R   0.492486 0.736997 0.499026 0.623608
C13   C     C_2   0.067680 0.661041 0.468591 0.592636
C14   C     C_2   0.295953 0.382594 0.091485 0.645908
C15   C     C_2   0.702772 0.623570 0.911085 0.590301
C16   C     C_2   0.421388 0.869044 0.228903 0.600646
C17   C     C_2   0.548924 0.128205 0.772115 0.592774
C18   C     C_R   0.263900 0.493268 0.443354 0.603269
C19   C     C_R   0.737129 0.494723 0.555876 0.594764
C20   C     C_R   0.406528 0.439689 0.050073 0.199365
C21   C     C_R   0.593744 0.561329 0.951335 0.154184
C22   C     C_R   0.406502 0.439446 0.902863 0.194047
C23   C     C_R   0.590682 0.564182 0.099407 0.185744
C24   C     C_2   0.134377 0.451665 0.419703 0.076869
Cu1   Cu    Cu3+1 0.500000 0.500020 0.640660 1.058395
Cu2   Cu    Cu3+1 0.500000 0.499980 0.359340 1.110740
H1    H     H_    0.744973 0.235173 0.282019 0.345685
H2    H     H_    0.237801 0.434213 0.765950 0.276425
H3    H     H_    0.677035 0.730040 0.160906 0.252257
H4    H     H_    0.766641 0.609778 0.207969 0.281866
H5    H     H_    0.410499 0.098758 0.165283 0.301065
H6    H     H_    0.567257 0.092104 0.200811 0.269852
H7    H     H_    0.568753 0.898359 0.834712 0.287132
H8    H     H_    0.411005 0.901822 0.791703 0.262517
H9    H     H_    0.449607 0.823551 0.035227 0.341525
H10   H     H_    0.677812 0.232543 0.908508 0.351546
H11   H     H_    0.184159 0.811517 0.488760 0.350631
H12   H     H_    0.109899 0.382155 0.071799 0.357432
H13   H     H_    0.889541 0.648381 0.955062 0.348575
H14   H     H_    0.920882 0.633331 0.721114 0.272365
H15   H     H_    0.936172 0.491052 0.787868 0.285595
H16   H     H_    0.130924 0.294177 0.306079 0.276224
H17   H     H_    0.165640 0.278039 0.484231 0.228406
H18   H     H_    0.334353 0.321551 0.733654 0.280120
N1    N     N_R   0.500030 0.500030 0.852080 -0.273011
N2    N     N_R   0.499970 0.499970 0.147920 -0.258348
N3    N     N_3   0.950570 0.546307 0.704430 -0.611258
N4    N     N_3   0.108320 0.321875 0.401233 -0.607336
N5    N     N_3   0.304951 0.373759 0.809895 -0.571048
N6    N     N_3   0.677620 0.641053 0.198703 -0.523275
N7    N     N_3   0.492065 0.121878 0.240054 -0.529044
N8    N     N_3   0.489354 0.874752 0.756787 -0.547081
O1    O     O_R   0.499990 0.319660 0.618740 -0.524199
O2    O     O_R   0.782296 0.286000 0.370792 -0.662870
O3    O     O_2   0.978852 0.723157 0.470598 -0.498898
O4    O     O_R   0.185026 0.719371 0.478851 -0.671794
O5    O     O_2   0.304339 0.292316 0.164824 -0.518848
O6    O     O_R   0.179980 0.430253 0.040584 -0.670818
O7    O     O_2   0.690439 0.707963 0.828794 -0.493254
O8    O     O_R   0.821736 0.590178 0.975982 -0.691252
O9    O     O_2   0.321883 0.810115 0.208187 -0.460622
O10   O     O_R   0.490166 0.875005 0.122402 -0.714673
O11   O     O_2   0.477598 0.125280 0.853879 -0.527375
O12   O     O_R   0.500010 0.680340 0.381260 -0.469884
O13   O     O_R   0.664485 0.191758 0.810837 -0.645042
O14   O     O_R   0.499990 0.319630 0.381170 -0.433117
O15   O     O_R   0.500010 0.680370 0.618830 -0.421921
O16   O     O_R   0.320690 0.500020 0.575130 -0.530871
O17   O     O_R   0.679310 0.499980 0.424870 -0.481963
O18   O     O_R   0.320680 0.499990 0.337560 -0.463814
O19   O     O_R   0.679320 0.500010 0.662440 -0.469892
O20   O     O_2   0.875135 0.399096 0.222274 -0.494673

loop_
_geom_bond_atom_site_label_1
_geom_bond_atom_site_label_2
_ccdc_geom_bond_type
H18   N5    S    
C18   O18   A    
H14   N3    S    
C2    C4    D    
H6    N7    S    
C15   O7    D    
Cu1   O19   S    
C14   C20   S    
C2    N3    S    
C5    C7    A    
H17   N4    S    
Cu2   O14   S    
H8    N8    S    
C8    C17   S    
Cu1   O15   S    
C13   O4    S    
C4    C11   S    
H10   O13   S    
C6    C9    A    
C1    O14   A    
H15   N3    S    
H1    O2    S    
C5    C10   A    
C23   N2    A    
H16   N4    S    
C17   O11   D    
H7    N8    S    
Cu1   O16   S    
C3    C24   D    
C11   O2    S    
C16   O10   S    
C12   O12   A    
C22   N5    S    
Cu2   O18   S    
H13   O8    S    
C6    C8    A    
C7    C16   S    
C9    C12   S    
C20   C22   A    
H9    O10   S    
C21   N1    A    
H3    N6    S    
C21   C23   A    
H4    N6    S    
C14   O6    S    
C12   O15   A    
C18   C24   S    
C19   O17   A    
C19   O19   A    
Cu2   N2    S    
C18   O16   A    
C3    C4    S    
C24   N4    S    
Cu1   N1    S    
C15   C21   S    
C22   N1    A    
C8    C10   A    
C16   O9    D    
C2    C19   S    
C7    C9    A    
C14   O5    D    
Cu2   O12   S    
C11   O20   D    
C5    N7    S    
C23   N6    S    
C1    O1    A    
Cu2   O17   S    
Cu1   O1    S    
C6    N8    S    
Cu1   Cu2   S    
H12   O6    S    
H11   O4    S    
C17   O13   S    
C15   O8    S    
C20   N2    A    
C1    C10   S    
H5    N7    S    
C13   O3    D    
H2    N5    S    
C3    C13   S    
