data_mof_unit_20778.cif
_audit_creation_date              2012-12-11T14:44:08-0500
_audit_creation_method            fapswitch 2.2
_symmetry_space_group_name_H-M    P1
_symmetry_Int_Tables_number       1
_space_group_crystal_system       triclinic
_cell_length_a                    25.077239
_cell_length_b                    16.733784
_cell_length_c                    15.508402
_cell_angle_alpha                 90.000086
_cell_angle_beta                  50.077731
_cell_angle_gamma                 90.000103
_cell_volume                      4991.0118801

loop_
_atom_site_label
_atom_site_type_symbol
_atom_type_description
_atom_site_fract_x
_atom_site_fract_y
_atom_site_fract_z
_atom_type_partial_charge
C1    C     C_R   0.353837 0.148357 0.752560 -0.133217
C2    C     C_3   0.721965 0.724964 0.579865 0.729447
C3    C     C_3   0.823511 0.814873 0.589827 -1.029104
C4    C     C_3   0.722585 0.114008 0.754277 0.258282
C5    C     C_3   0.733449 0.087364 0.835836 -0.847275
C6    C     C_3   0.255999 0.815375 0.330265 0.297019
C7    C     C_3   0.176511 0.814898 0.410147 -1.029094
C8    C     C_3   0.777400 0.613987 0.245747 0.258278
C9    C     C_3   0.766529 0.587332 0.164201 -0.847281
C10   C     C_3   0.244001 0.315385 0.669735 0.296998
C11   C     C_3   0.323488 0.314912 0.589855 -1.029089
C12   C     C_3   0.222603 0.613975 0.754247 0.258284
C13   C     C_3   0.771877 0.184151 0.590718 0.661713
C14   C     C_3   0.233482 0.587308 0.835780 -0.847286
C15   C     C_3   0.756012 0.315368 0.330242 0.297019
C16   C     C_3   0.676524 0.314900 0.410123 -1.029112
C17   C     C_3   0.278037 0.724960 0.420133 0.729438
C18   C     C_3   0.728117 0.684144 0.409291 0.661726
C19   C     C_3   0.221966 0.224966 0.579866 0.729441
C20   C     C_3   0.271883 0.684143 0.590710 0.661725
C21   C     C_3   0.778041 0.224957 0.420128 0.729441
C22   C     C_2   0.636133 0.269038 0.159725 -0.198964
C23   C     C_2   0.299935 0.859689 0.991883 -0.204031
C24   C     C_2   0.363866 0.269038 0.840276 -0.198969
C25   C     C_R   0.666914 0.890763 0.196859 -0.101585
C26   C     C_2   0.700066 0.859690 0.008116 -0.204033
C27   C     C_2   0.136133 0.769039 0.159727 -0.198957
C28   C     C_2   0.799934 0.359692 0.991885 -0.204041
C29   C     C_2   0.863866 0.769037 0.840277 -0.198958
C30   C     C_2   0.200066 0.359692 0.008115 -0.204047
C31   C     C_2   0.686282 0.310552 0.147380 -0.110432
C32   C     C_2   0.231192 0.862007 0.049452 -0.116430
C33   C     C_2   0.313718 0.310551 0.852621 -0.110429
C34   C     C_2   0.768808 0.862007 0.950549 -0.116436
C35   C     C_2   0.186282 0.810552 0.147381 -0.110432
C36   C     C_R   0.646162 0.148358 0.247441 -0.133219
C37   C     C_2   0.731191 0.362008 0.049452 -0.116429
C38   C     C_2   0.813719 0.810551 0.852620 -0.110432
C39   C     C_2   0.268808 0.362008 0.950549 -0.116427
C40   C     C_R   0.613420 0.104764 0.595902 0.158654
C41   C     C_R   0.409472 0.853867 0.405400 0.191735
C42   C     C_R   0.386580 0.104764 0.404097 0.158652
C43   C     C_R   0.590529 0.853868 0.594600 0.191738
C44   C     C_R   0.113421 0.604762 0.595902 0.158650
C45   C     C_R   0.909472 0.353866 0.405401 0.191732
C46   C     C_R   0.886580 0.604763 0.404098 0.158651
C47   C     C_R   0.333086 0.890763 0.803141 -0.101584
C48   C     C_R   0.090529 0.353868 0.594599 0.191733
C49   C     C_R   0.689041 0.104500 0.409325 -0.144868
C50   C     C_R   0.338138 0.851652 0.592834 -0.144275
C51   C     C_R   0.310959 0.104501 0.590675 -0.144843
C52   C     C_R   0.661863 0.851652 0.407166 -0.144275
C53   C     C_R   0.189041 0.604499 0.409324 -0.144856
C54   C     C_R   0.838137 0.351653 0.592835 -0.144271
C55   C     C_R   0.810959 0.604499 0.590675 -0.144870
C56   C     C_R   0.161864 0.351654 0.407165 -0.144273
C57   C     C_R   0.557407 0.146518 0.246805 -0.105621
C58   C     C_R   0.853837 0.648357 0.752560 -0.133227
C59   C     C_R   0.418122 0.899160 0.809756 -0.077254
C60   C     C_R   0.442593 0.146518 0.753196 -0.105621
C61   C     C_R   0.581879 0.899161 0.190244 -0.077245
C62   C     C_R   0.057407 0.646518 0.246805 -0.105615
C63   C     C_R   0.918121 0.399163 0.809757 -0.077240
C64   C     C_R   0.942593 0.646517 0.753196 -0.105618
C65   C     C_R   0.081879 0.399163 0.190243 -0.077238
C66   C     C_R   0.386877 0.192017 0.781823 0.122802
C67   C     C_R   0.650892 0.878485 0.128430 0.118694
C68   C     C_R   0.613122 0.192017 0.218178 0.122803
C69   C     C_R   0.166914 0.390764 0.196859 -0.101584
C70   C     C_R   0.349108 0.878484 0.871570 0.118695
C71   C     C_R   0.886878 0.692017 0.781823 0.122804
C72   C     C_R   0.150893 0.378487 0.128429 0.118697
C73   C     C_R   0.113122 0.692018 0.218179 0.122799
C74   C     C_R   0.849107 0.378487 0.871571 0.118696
C75   C     C_R   0.680353 0.122109 0.504412 0.059191
C76   C     C_R   0.361893 0.807414 0.498991 0.041227
C77   C     C_R   0.319648 0.122111 0.495588 0.059184
C78   C     C_R   0.638107 0.807415 0.501009 0.041226
C79   C     C_R   0.180354 0.622107 0.504411 0.059186
C80   C     C_R   0.146162 0.648358 0.247442 -0.133221
C81   C     C_R   0.861893 0.307414 0.498992 0.041232
C82   C     C_R   0.819647 0.622108 0.495588 0.059190
C83   C     C_R   0.138109 0.307416 0.501008 0.041235
C84   C     C_3   0.289868 0.218298 0.396462 -0.368108
C85   C     C_3   0.660548 0.690070 0.592567 -0.264848
C86   C     C_3   0.710133 0.218298 0.603533 -0.368094
C87   C     C_3   0.339454 0.690066 0.407434 -0.264847
C88   C     C_3   0.789865 0.718291 0.396462 -0.368105
C89   C     C_3   0.160550 0.190070 0.592563 -0.264863
C90   C     C_3   0.210136 0.718289 0.603537 -0.368082
C91   C     C_R   0.833085 0.390764 0.803141 -0.101583
C92   C     C_3   0.839453 0.190062 0.407440 -0.264858
C93   C     C_3   0.741786 0.782054 0.486150 -0.384209
C94   C     C_3   0.208915 0.125553 0.502766 -0.362444
C95   C     C_3   0.258216 0.782051 0.513848 -0.384216
C96   C     C_3   0.791085 0.125548 0.497241 -0.362452
C97   C     C_3   0.241786 0.282058 0.486153 -0.384214
C98   C     C_3   0.708910 0.625549 0.502774 -0.362463
C99   C     C_3   0.758219 0.282054 0.513838 -0.384210
C100  C     C_3   0.291091 0.625546 0.497228 -0.362472
C101  C     C_3   0.680643 0.747166 0.497911 0.055935
C102  C     C_3   0.228122 0.184151 0.409287 0.661722
C103  C     C_3   0.269530 0.161239 0.492256 0.023694
C104  C     C_3   0.319358 0.747164 0.502089 0.055930
C105  C     C_3   0.730473 0.161234 0.507742 0.023696
C106  C     C_3   0.180645 0.247170 0.497910 0.055937
C107  C     C_3   0.769527 0.661234 0.492258 0.023684
C108  C     C_3   0.819357 0.247166 0.502090 0.055938
C109  C     C_3   0.230475 0.661231 0.507741 0.023690
C110  C     C_3   0.277415 0.114013 0.245725 0.258264
C111  C     C_3   0.266556 0.087379 0.164157 -0.847275
C112  C     C_3   0.744024 0.815375 0.669709 0.297017
H1    H     H_    0.307908 0.163910 0.763888 0.114859
H2    H     H_    0.296350 0.836094 0.679526 0.143661
H3    H     H_    0.262693 0.102454 0.676461 0.151752
H4    H     H_    0.703650 0.836095 0.320474 0.143660
H5    H     H_    0.237307 0.602451 0.323538 0.151757
H6    H     H_    0.796349 0.336096 0.679527 0.143666
H7    H     H_    0.762693 0.602453 0.676462 0.151756
H8    H     H_    0.203652 0.336097 0.320473 0.143662
H9    H     H_    0.520618 0.165106 0.236819 0.139034
H10   H     H_    0.440317 0.914295 0.848224 0.163582
H11   H     H_    0.479382 0.165106 0.763181 0.139034
H12   H     H_    0.718245 0.893052 0.171629 0.085499
H13   H     H_    0.559684 0.914297 0.151775 0.163583
H14   H     H_    0.020617 0.665106 0.236820 0.139033
H15   H     H_    0.940315 0.414300 0.848227 0.163581
H16   H     H_    0.979382 0.665106 0.763181 0.139034
H17   H     H_    0.059685 0.414300 0.151774 0.163582
H18   H     H_    0.754603 0.846701 0.476396 0.162049
H19   H     H_    0.197681 0.060799 0.507547 0.159371
H20   H     H_    0.245399 0.846699 0.523597 0.162051
H21   H     H_    0.802317 0.060794 0.492466 0.159367
H22   H     H_    0.254601 0.346707 0.476406 0.162049
H23   H     H_    0.692092 0.163911 0.236112 0.114856
H24   H     H_    0.697674 0.560795 0.507560 0.159371
H25   H     H_    0.745406 0.346703 0.523578 0.162051
H26   H     H_    0.302326 0.560792 0.492442 0.159368
H27   H     H_    0.342789 0.230752 0.316563 0.177516
H28   H     H_    0.607354 0.677570 0.671895 0.183420
H29   H     H_    0.657213 0.230754 0.683430 0.177517
H30   H     H_    0.392648 0.677566 0.328106 0.183420
H31   H     H_    0.842785 0.730742 0.316560 0.177522
H32   H     H_    0.107357 0.177569 0.671890 0.183422
H33   H     H_    0.157216 0.730741 0.683439 0.177523
H34   H     H_    0.281755 0.893052 0.828371 0.085500
H35   H     H_    0.892648 0.177559 0.328116 0.183420
H36   H     H_    0.209877 0.887763 0.013085 0.133214
H37   H     H_    0.703832 0.293827 0.193030 0.138298
H38   H     H_    0.790124 0.887763 0.986916 0.133215
H39   H     H_    0.296167 0.293825 0.806972 0.138293
H40   H     H_    0.709876 0.387763 0.013085 0.133214
H41   H     H_    0.203832 0.793827 0.193031 0.138295
H42   H     H_    0.290124 0.387762 0.986916 0.133214
H43   H     H_    0.796169 0.793828 0.806968 0.138294
H44   H     H_    0.320588 0.833760 0.029417 0.150160
H45   H     H_    0.807908 0.663910 0.763889 0.114857
H46   H     H_    0.619145 0.285573 0.112909 0.138341
H47   H     H_    0.679413 0.833762 0.970582 0.150167
H48   H     H_    0.380855 0.285573 0.887092 0.138341
H49   H     H_    0.820587 0.333765 0.029419 0.150156
H50   H     H_    0.119145 0.785573 0.112910 0.138342
H51   H     H_    0.179413 0.333765 0.970581 0.150162
H52   H     H_    0.880853 0.785571 0.887096 0.138341
H53   H     H_    0.277137 0.059738 0.287651 0.120538
H54   H     H_    0.328738 0.144346 0.196489 0.139584
H55   H     H_    0.267445 0.139977 0.119529 0.257089
H56   H     H_    0.218245 0.393053 0.171629 0.085497
H57   H     H_    0.308659 0.045579 0.101215 0.224243
H58   H     H_    0.215754 0.056368 0.210469 0.255316
H59   H     H_    0.725073 0.829574 0.755199 0.133251
H60   H     H_    0.724191 0.864342 0.648628 0.117139
H61   H     H_    0.845516 0.806217 0.501565 0.265490
H62   H     H_    0.842508 0.872841 0.595765 0.242768
H63   H     H_    0.842379 0.766213 0.612774 0.272389
H64   H     H_    0.722865 0.059738 0.712341 0.120526
H65   H     H_    0.671260 0.144337 0.803520 0.139593
H66   H     H_    0.732553 0.139957 0.880480 0.257087
H67   H     H_    0.192091 0.663911 0.236114 0.114857
H68   H     H_    0.691352 0.045555 0.898768 0.224240
H69   H     H_    0.784255 0.056361 0.789514 0.255313
H70   H     H_    0.274955 0.829566 0.244770 0.133255
H71   H     H_    0.275843 0.864337 0.351334 0.117159
H72   H     H_    0.154502 0.806250 0.498413 0.265486
H73   H     H_    0.157528 0.872873 0.404194 0.242767
H74   H     H_    0.157632 0.766243 0.387213 0.272388
H75   H     H_    0.777120 0.559722 0.287691 0.120518
H76   H     H_    0.828727 0.644313 0.196492 0.139596
H77   H     H_    0.767425 0.639918 0.119549 0.257092
H78   H     H_    0.781755 0.393053 0.828371 0.085498
H79   H     H_    0.808621 0.545516 0.101276 0.224235
H80   H     H_    0.715720 0.556332 0.210536 0.255314
H81   H     H_    0.225045 0.329574 0.755231 0.133261
H82   H     H_    0.224156 0.364343 0.648666 0.117161
H83   H     H_    0.345497 0.306259 0.501590 0.265492
H84   H     H_    0.342468 0.372890 0.595808 0.242763
H85   H     H_    0.342369 0.266263 0.612794 0.272384
H86   H     H_    0.222886 0.559716 0.712292 0.120505
H87   H     H_    0.171274 0.644296 0.803513 0.139607
H88   H     H_    0.232580 0.639888 0.880448 0.257094
H89   H     H_    0.737307 0.102452 0.323538 0.151765
H90   H     H_    0.191396 0.545481 0.898693 0.224232
H91   H     H_    0.284296 0.556317 0.789432 0.255314
H92   H     H_    0.774971 0.329552 0.244744 0.133254
H93   H     H_    0.775860 0.364331 0.351305 0.117168
H94   H     H_    0.654514 0.306265 0.498391 0.265487
H95   H     H_    0.657547 0.372872 0.404152 0.242768
H96   H     H_    0.657642 0.266239 0.387202 0.272391
I1    I     I_    0.577278 0.076024 0.758701 -0.500326
I2    I     I_    0.434191 0.844704 0.246364 -0.432977
I3    I     I_    0.422722 0.076021 0.241300 -0.500331
I4    I     I_    0.565813 0.844709 0.753634 -0.432953
I5    I     I_    0.077278 0.576019 0.758699 -0.500328
I6    I     I_    0.934195 0.344698 0.246362 -0.432986
I7    I     I_    0.922721 0.576018 0.241301 -0.500328
I8    I     I_    0.065805 0.344702 0.753639 -0.432981
N1    N     N_R   0.389620 0.081040 0.705440 -0.049323
N2    N     N_R   0.417680 0.920160 0.443370 -0.055434
N3    N     N_R   0.417680 0.079840 0.443370 -0.059942
N4    N     N_R   0.582320 0.920160 0.556630 -0.055436
N5    N     N_R   0.082320 0.579840 0.556630 -0.059941
N6    N     N_R   0.917680 0.420160 0.443370 -0.055434
N7    N     N_R   0.917680 0.579840 0.443370 -0.059941
N8    N     N_R   0.082320 0.420160 0.556630 -0.055435
N9    N     N_R   0.627920 0.078930 0.443400 -0.064272
N10   N     N_R   0.372080 0.921070 0.556600 -0.063835
N11   N     N_R   0.372080 0.078930 0.556600 -0.064271
N12   N     N_R   0.610380 0.918960 0.294560 -0.050732
N13   N     N_R   0.627920 0.921070 0.443400 -0.063835
N14   N     N_R   0.127920 0.578930 0.443400 -0.064271
N15   N     N_R   0.872080 0.421070 0.556600 -0.063836
N16   N     N_R   0.872080 0.578930 0.556600 -0.064270
N17   N     N_R   0.127920 0.421070 0.443400 -0.063836
N18   N     N_R   0.555090 0.077730 0.294590 -0.039680
N19   N     N_R   0.444910 0.922270 0.705410 -0.046660
N20   N     N_R   0.444910 0.077730 0.705410 -0.039680
N21   N     N_R   0.555090 0.922270 0.294590 -0.046660
N22   N     N_R   0.055090 0.577730 0.294590 -0.039681
N23   N     N_R   0.610380 0.081040 0.294560 -0.049322
N24   N     N_R   0.944910 0.422270 0.705410 -0.046660
N25   N     N_R   0.944910 0.577730 0.705410 -0.039681
N26   N     N_R   0.055090 0.422270 0.294590 -0.046660
N27   N     N_R   0.389620 0.918960 0.705440 -0.050733
N28   N     N_R   0.889620 0.581040 0.705440 -0.049322
N29   N     N_R   0.110380 0.418960 0.294560 -0.050732
N30   N     N_R   0.110380 0.581040 0.294560 -0.049322
N31   N     N_R   0.889620 0.418960 0.705440 -0.050733
N32   N     N_R   0.582320 0.079840 0.556630 -0.059942
Ni1   Ni    Ni4+2 0.382970 0.000000 0.629840 0.204980
Ni2   Ni    Ni4+2 0.617030 0.000000 0.370160 0.204979
Ni3   Ni    Ni4+2 0.882970 0.500000 0.629840 0.204979
Ni4   Ni    Ni4+2 0.117030 0.500000 0.370160 0.204979
Ni5   Ni    Ni4+2 0.514540 0.000000 0.629840 0.260201
Ni6   Ni    Ni4+2 0.485460 0.000000 0.370160 0.260201
Ni7   Ni    Ni4+2 0.014540 0.500000 0.629840 0.260201
Ni8   Ni    Ni4+2 0.985460 0.500000 0.370160 0.260202
O1    O     O_3   0.224145 0.167504 0.324336 -0.644611
O2    O     O_3   0.716687 0.739875 0.675131 -0.651677
O3    O     O_3   0.775849 0.167508 0.675675 -0.644615
O4    O     O_3   0.283316 0.739867 0.324865 -0.651687
O5    O     O_3   0.724140 0.667493 0.324341 -0.644610
O6    O     O_3   0.216688 0.239873 0.675132 -0.651683
O7    O     O_3   0.275858 0.667492 0.675663 -0.644610
O8    O     O_3   0.783323 0.239858 0.324856 -0.651689

loop_
_geom_bond_atom_site_label_1
_geom_bond_atom_site_label_2
_ccdc_geom_bond_type
C76   C104  S    
N10   Ni1   S    
C96   C105  S    
C48   I8    S    
N9    Ni2   S    
N27   Ni1   S    
N28   Ni3   S    
C69   C72   A    
C84   C102  S    
C7    H74   S    
C43   N4    A    
C25   C67   A    
C4    H65   S    
C16   H95   S    
C28   C74   S    
C45   C81   A    
N5    Ni7   S    
C15   H92   S    
C34   H38   S    
C90   C95   S    
C47   C70   A    
C55   H7    S    
C8    H76   S    
C43   C78   A    
C99   C108  S    
C33   C39   S    
C1    H1    S    
N4    N13   A    
C6    H70   S    
C63   H15   S    
C45   N6    A    
C38   H43   S    
N3    Ni6   S    
C11   H83   S    
C90   H33   S    
C16   H94   S    
C51   C77   A    
C10   H82   S    
C27   H50   S    
C21   C99   S    
C110  H53   S    
N14   Ni4   S    
C58   C71   A    
C112  H59   S    
C15   C16   S    
C98   H24   S    
C2    C107  S    
C92   C96   S    
N26   Ni8   S    
N2    N10   A    
C52   C78   A    
C2    C85   S    
C6    O4    S    
C64   C71   A    
C94   C102  S    
C89   C94   S    
C110  C111  S    
C15   O8    S    
C21   O8    S    
C112  O2    S    
C46   C82   A    
C19   C103  S    
N7    Ni8   S    
C3    H61   S    
C23   C70   S    
N3    N11   A    
C84   H27   S    
C1    N1    A    
C8    C9    S    
C64   H16   S    
C60   N20   A    
C13   C86   S    
N24   N31   A    
C49   C75   A    
C62   C73   A    
N25   Ni7   S    
N20   Ni5   S    
C9    H80   S    
C92   C108  S    
N18   Ni6   S    
C88   H31   S    
N23   Ni2   S    
N13   Ni2   S    
C2    C93   S    
C24   C66   S    
C53   N14   A    
N11   Ni1   S    
N9    N32   A    
C81   C108  S    
C60   C66   A    
C100  C109  S    
C49   H89   S    
C34   C38   S    
C23   H44   S    
C14   H91   S    
C92   H35   S    
C56   H8    S    
C29   H52   S    
N1    Ni1   S    
C97   H22   S    
C57   N18   A    
C13   C108  S    
C9    H77   S    
N1    N20   A    
C5    H69   S    
C57   C68   A    
C40   N32   A    
C26   C34   D    
C28   H49   S    
C41   N2    A    
C6    C7    S    
N12   Ni2   S    
C83   C106  S    
C52   H4    S    
C8    H75   S    
C19   C97   S    
C91   H78   S    
C91   N31   A    
C16   H96   S    
N26   N29   A    
C40   C75   A    
C22   C31   D    
C79   C109  S    
C13   C96   S    
C4    H64   S    
C44   I5    S    
C80   H67   S    
N21   Ni6   S    
C11   H84   S    
N19   Ni5   S    
C18   O5    S    
C42   N3    A    
C33   H39   S    
C10   H81   S    
C93   C101  S    
C63   N24   A    
C62   H14   S    
C88   C107  S    
N32   Ni5   S    
C100  H26   S    
N30   Ni4   S    
C64   N25   A    
C39   H42   S    
C27   C35   D    
C20   C90   S    
C40   I1    S    
C51   H3    S    
C46   N7    A    
C31   C37   S    
N22   Ni8   S    
C17   O4    S    
C18   C101  S    
C1    C66   A    
C74   C91   A    
C29   C38   D    
C60   H11   S    
C30   H51   S    
N8    N17   A    
C32   C35   S    
C5    H68   S    
C95   C104  S    
C19   C89   S    
C24   C33   D    
C50   C76   A    
C61   C67   A    
C3    H62   S    
C30   C72   S    
C20   C100  S    
C3    C112  S    
N19   N27   A    
N4    Ni5   S    
N22   N30   A    
C36   C68   A    
C45   I6    S    
C85   C98   S    
C26   H47   S    
N16   Ni3   S    
C82   C107  S    
C55   C82   A    
C58   N28   A    
C86   C99   S    
C85   H28   S    
C22   C68   S    
C15   H93   S    
C22   H46   S    
C110  O1    S    
C17   C95   S    
C41   I2    S    
C7    H72   S    
C3    H63   S    
C2    O2    S    
N29   Ni4   S    
C12   C14   S    
C94   C103  S    
C75   C105  S    
C4    O3    S    
N6    Ni8   S    
C10   C11   S    
C54   H6    S    
C51   N11   A    
C95   H20   S    
C89   C106  S    
C80   N30   A    
C56   N17   A    
C50   N10   A    
C86   C105  S    
C111  H55   S    
C84   C97   S    
C37   H40   S    
C49   N9    A    
C93   H18   S    
C65   C72   A    
C36   H23   S    
C54   N15   A    
N5    N14   A    
C85   C101  S    
N7    N16   A    
C56   C83   A    
C87   C100  S    
C86   H29   S    
C69   N29   A    
C88   C93   S    
N24   Ni7   S    
C53   C79   A    
C17   C87   S    
C55   N16   A    
C7    H73   S    
C44   C79   A    
C59   N19   A    
C35   H41   S    
C29   C71   S    
C4    C5    S    
N2    Ni6   S    
C58   H45   S    
C17   C109  S    
N15   Ni3   S    
N6    N15   A    
C65   H17   S    
C102  O1    S    
C26   C67   S    
C96   H21   S    
C32   H36   S    
C63   C74   A    
N31   Ni3   S    
C89   H32   S    
C48   N8    A    
C65   N26   A    
C25   N12   A    
C94   H19   S    
C62   N22   A    
C48   C83   A    
C43   I4    S    
C6    H71   S    
N25   N28   A    
C61   N21   A    
C23   C32   D    
C111  H58   S    
C87   C104  S    
C13   O3    S    
C69   H56   S    
N12   N21   A    
C20   O7    S    
C9    H79   S    
C19   O6    S    
C47   N27   A    
C110  H54   S    
C112  H60   S    
C14   H88   S    
C28   C37   D    
C36   N23   A    
C31   H37   S    
C14   H90   S    
C73   C80   A    
C41   C76   A    
C30   C39   D    
C102  C106  S    
C53   H5    S    
N18   N23   A    
C87   H30   S    
C12   H87   S    
C52   N13   A    
C25   H12   S    
C18   C88   S    
C5    H66   S    
C47   H34   S    
C77   C103  S    
C20   C104  S    
C98   C107  S    
C59   C70   A    
C57   H9    S    
C11   H85   S    
C10   O6    S    
C24   H48   S    
N8    Ni7   S    
C42   C77   A    
C46   I7    S    
C59   H10   S    
C50   H2    S    
C84   C103  S    
C12   H86   S    
C99   H25   S    
C61   H13   S    
C44   N5    A    
C18   C98   S    
C90   C109  S    
C111  H57   S    
C8    O5    S    
C27   C73   S    
C12   O7    S    
C54   C81   A    
C21   C105  S    
C42   I3    S    
N17   Ni4   S    
C78   C101  S    
C21   C92   S    
C97   C106  S    
