data_mof_unit_59946.cif
_audit_creation_date              2012-12-11T17:17:09-0500
_audit_creation_method            fapswitch 2.2
_symmetry_space_group_name_H-M    P1
_symmetry_Int_Tables_number       1
_space_group_crystal_system       triclinic
_cell_length_a                    6.940543
_cell_length_b                    13.365709
_cell_length_c                    14.678519
_cell_angle_alpha                 98.878799
_cell_angle_beta                  89.85036
_cell_angle_gamma                 90.215258
_cell_volume                      1345.3278838

loop_
_atom_site_label
_atom_site_type_symbol
_atom_type_description
_atom_site_fract_x
_atom_site_fract_y
_atom_site_fract_z
_atom_type_partial_charge
O1    O     O_R   0.354890 0.151580 0.148210 -0.520095
O2    O     O_R   0.645110 0.848420 0.851790 -0.521317
O3    O     O_R   0.682370 0.152980 0.336770 -0.546951
O4    O     O_R   0.317630 0.847020 0.663230 -0.548712
O5    O     O_R   0.854980 0.348430 0.351800 -0.543807
O6    O     O_R   0.145020 0.651570 0.648200 -0.542194
C1    C     C_R   0.513407 0.131281 0.366441 0.669604
C2    C     C_R   0.486595 0.868754 0.633590 0.660948
O7    O     O_R   0.684450 0.139580 0.148000 -0.532818
O8    O     O_R   0.315550 0.860420 0.852000 -0.534818
O9    O     O_R   0.857080 0.334940 0.161680 -0.539381
O10   O     O_R   0.142920 0.665060 0.838320 -0.536193
C3    C     C_R   0.515538 0.112695 0.114003 0.801337
C4    C     C_R   0.484464 0.887321 0.885985 0.794208
O11   O     O_R   0.352790 0.165070 0.338330 -0.546253
O12   O     O_R   0.647210 0.834930 0.661670 -0.547529
O13   O     O_3   0.522170 0.314120 0.254710 -0.376384
O14   O     O_3   0.477830 0.685880 0.745290 -0.369979
V1    V     V_3+5 0.796120 0.238110 0.249130 1.499060
V2    V     V_3+5 0.203880 0.761890 0.750870 1.503187
O15   O     O_R   0.186930 0.347040 0.163240 -0.524739
O16   O     O_R   0.813070 0.652960 0.836760 -0.523079
C5    C     C_R   0.018264 0.368704 0.133729 0.798191
C6    C     C_R   0.981746 0.631239 0.866228 0.802574
O17   O     O_R   0.184850 0.360440 0.352010 -0.546509
O18   O     O_R   0.815150 0.639560 0.647990 -0.546054
C7    C     C_R   0.015825 0.387338 0.385975 0.706696
C8    C     C_R   0.984174 0.612665 0.614021 0.710808
V3    V     V_3+5 0.296410 0.261900 0.250880 1.511575
V4    V     V_3+5 0.703590 0.738100 0.749120 1.522999
O19   O     O_3   0.020490 0.185890 0.245290 -0.370034
O20   O     O_3   0.979510 0.814110 0.754710 -0.374308
C9    C     C_1   0.005139 0.466912 0.466335 -0.173995
C10   C     C_1   0.994859 0.533093 0.533660 -0.170659
C11   C     C_3   0.180262 0.526048 0.977939 -0.206223
C12   C     C_3   0.819816 0.473775 0.021935 -0.242456
C13   C     C_3   0.089675 0.547647 0.076103 -0.250671
C14   C     C_3   0.910378 0.452191 0.923778 -0.219515
H1    H     H_    0.161643 0.587345 0.138989 0.169640
H2    H     H_    0.838413 0.412488 0.860894 0.172620
H3    H     H_    0.329003 0.545888 0.959045 0.192943
H4    H     H_    0.671093 0.453952 0.040860 0.186974
C15   C     C_3   0.008371 0.438647 0.063118 -0.200471
C16   C     C_3   0.991674 0.561203 0.936770 -0.186481
C17   C     C_3   0.097250 0.417645 0.966324 0.536262
C18   C     C_3   0.902801 0.582175 0.033561 0.478082
C19   C     C_3   0.319312 0.026320 0.481481 -0.113622
C20   C     C_3   0.680680 0.973760 0.518591 -0.119898
C21   C     C_3   0.398050 0.916689 0.467663 -0.131366
C22   C     C_3   0.601939 0.083392 0.532410 -0.140255
H5    H     H_    0.313949 0.847459 0.441416 0.119157
H6    H     H_    0.686026 0.152624 0.558665 0.114813
H7    H     H_    0.170130 0.048107 0.465928 0.115811
H8    H     H_    0.829862 0.951975 0.534146 0.116287
C23   C     C_3   0.495658 0.938804 0.562759 -0.011351
C24   C     C_3   0.504336 0.061272 0.437309 -0.014291
C25   C     C_3   0.416897 0.047614 0.577383 -0.135693
C26   C     C_3   0.583093 0.952463 0.422691 -0.126004
C27   C     C_1   0.504945 0.033119 0.033646 -0.084216
C28   C     C_1   0.495055 0.966906 0.966334 -0.088098
S1    S     S_3+6 0.228936 0.307105 0.920209 -0.031256
O21   O     O_2   0.407934 0.300551 0.976318 -0.361020
O22   O     O_2   0.105547 0.215056 0.923314 -0.343479
O23   O     O_3   0.289955 0.313970 0.810441 -0.518812
H9    H     H_    0.363549 0.251236 0.789483 0.353760
S2    S     S_3+6 0.770648 0.692578 0.079781 -0.003501
O24   O     O_2   0.894592 0.784593 0.077697 -0.314251
O25   O     O_2   0.592703 0.700516 0.023287 -0.355153
O26   O     O_3   0.707547 0.686048 0.189347 -0.496123
H10   H     H_    0.627636 0.623980 0.185615 0.317834
H11   H     H_    0.348605 0.086451 0.641655 0.121295
H12   H     H_    0.651358 0.913604 0.358418 0.153350

loop_
_geom_bond_atom_site_label_1
_geom_bond_atom_site_label_2
_ccdc_geom_bond_type
C20   C23   S    
S2    O25   D    
O13   V3    S    
C12   H4    S    
O4    C2    A    
V1    O19   S    
C19   C21   S    
C7    C9    S    
C20   H8    S    
O9    V1    S    
C11   C13   S    
C18   S2    S    
O3    C1    A    
S2    O26   S    
O12   V4    S    
C5    C15   S    
O9    C5    A    
S1    O22   D    
O7    C3    A    
C14   C17   S    
O5    C7    A    
O7    V1    S    
O6    C8    A    
O8    V2    S    
C21   H5    S    
C22   H6    S    
O3    V1    S    
O14   V4    S    
V4    O20   S    
C19   H7    S    
C17   S1    S    
C1    O11   A    
S2    O24   D    
C8    C10   S    
C27   C28   T    
C2    O12   A    
O26   H10   S    
C1    C24   S    
O2    C4    A    
C2    C23   S    
C16   C18   S    
O11   V3    S    
O17   V3    S    
O8    C4    A    
C21   C23   S    
O15   V3    S    
C22   C24   S    
C21   C26   S    
C13   C15   S    
S1    O23   S    
C14   C16   S    
C19   C25   S    
O10   V2    S    
O1    V3    S    
C9    C10   T    
C25   H11   S    
C12   C18   S    
C11   C16   S    
C15   C17   S    
O5    V1    S    
O18   V4    S    
C23   C25   S    
C6    C16   S    
O16   C6    A    
O1    C3    A    
C12   C14   S    
C11   C17   S    
C4    C28   S    
V2    O20   S    
O16   V4    S    
C22   C25   S    
C20   C26   S    
C3    C27   S    
O17   C7    A    
O6    V2    S    
O10   C6    A    
O18   C8    A    
O2    V4    S    
O23   H9    S    
O15   C5    A    
V3    O19   S    
C14   H2    S    
C26   H12   S    
C20   C22   S    
O13   V1    S    
C24   C26   S    
O14   V2    S    
S1    O21   D    
C11   H3    S    
O4    V2    S    
C13   H1    S    
C12   C15   S    
C13   C18   S    
C19   C24   S    
