data_mof_unit_52038.cif
_audit_creation_date              2012-12-11T14:17:45-0500
_audit_creation_method            fapswitch 2.2
_symmetry_space_group_name_H-M    P1
_symmetry_Int_Tables_number       1
_space_group_crystal_system       triclinic
_cell_length_a                    6.941337
_cell_length_b                    13.625278
_cell_length_c                    20.472582
_cell_angle_alpha                 102.070343
_cell_angle_beta                  90.398769
_cell_angle_gamma                 90.565892
_cell_volume                      1893.26827916

loop_
_atom_site_label
_atom_site_type_symbol
_atom_type_description
_atom_site_fract_x
_atom_site_fract_y
_atom_site_fract_z
_atom_type_partial_charge
O1    O     O_R   0.506860 0.599390 0.449240 -0.547213
O2    O     O_R   0.180220 0.594600 0.586780 -0.539445
O3    O     O_R   0.004500 0.400610 0.550760 -0.534705
C1    C     C_R   0.348451 0.615020 0.613983 0.772450
O4    O     O_R   0.177490 0.611290 0.451970 -0.539051
O5    O     O_R   0.001750 0.417420 0.414990 -0.542813
C2    C     C_R   0.345802 0.636077 0.433770 0.684511
O6    O     O_R   0.509610 0.582580 0.585010 -0.525358
O7    O     O_3   0.337420 0.436370 0.488020 -0.375317
V1    V     V_3+5 0.064680 0.511800 0.502220 1.511616
O8    O     O_R   0.671710 0.405400 0.413220 -0.551103
C3    C     C_R   0.838588 0.386806 0.385907 0.733182
O9    O     O_R   0.674440 0.388710 0.548030 -0.542649
C4    C     C_R   0.843061 0.362880 0.565569 0.706327
V2    V     V_3+5 0.564010 0.488200 0.497780 1.494498
O10   O     O_3   0.841140 0.563630 0.511980 -0.360964
C5    C     C_R   0.922591 0.108388 0.607308 -0.061356
C6    C     C_R   0.854156 0.281499 0.602801 -0.194865
C7    C     C_R   0.873172 0.313079 0.923832 0.183020
C8    C     C_R   0.923490 0.386507 0.887124 0.240173
C9    C     C_R   0.938731 0.358874 0.816884 0.346542
C10   C     C_R   0.890381 0.259505 0.782842 -0.069023
C11   C     C_R   0.877012 0.183223 0.820597 -0.131025
C12   C     C_R   0.873613 0.232705 0.711465 0.023808
C13   C     C_R   0.906715 0.131666 0.678376 -0.067280
C14   C     C_R   0.921455 0.057242 0.717244 0.264353
C15   C     C_R   0.880931 0.081302 0.786342 0.257835
C16   C     C_R   0.820632 0.302857 0.672003 -0.065933
C17   C     C_R   0.907893 0.183899 0.570295 0.279315
C18   C     C_R   0.866082 0.211586 0.891622 -0.144482
C19   C     C_2   0.995810 0.303359 0.280387 -0.129968
C20   C     C_2   0.836267 0.327252 0.316843 -0.274251
H1    H     H_    0.135077 0.330617 0.301656 0.151477
H2    H     H_    0.695675 0.307756 0.293986 0.148435
C21   C     C_2   0.989489 0.250155 0.208753 -0.062458
C22   C     C_2   0.869581 0.170643 0.184143 -0.217617
C23   C     C_2   0.205045 0.765216 0.790655 -0.082991
C24   C     C_2   0.357515 0.822017 0.817970 -0.326854
H3    H     H_    0.483335 0.827247 0.787602 0.144589
C25   C     C_2   0.197205 0.716847 0.718119 -0.079753
C26   C     C_2   0.354727 0.675122 0.683864 -0.305628
H4    H     H_    0.492385 0.678836 0.709760 0.172123
C27   C     C_R   0.275311 0.881195 0.384398 -0.128968
H5    H     H_    0.271307 0.828735 0.475593 0.156803
H6    H     H_    0.238857 0.956293 0.410291 0.161411
C28   C     C_R   0.350530 0.711816 0.392606 -0.120814
C29   C     C_R   0.365895 0.683841 0.070017 -0.158150
C30   C     C_R   0.347840 0.607195 0.104870 -0.134034
C31   C     C_R   0.331567 0.629588 0.174167 -0.079979
C32   C     C_R   0.339387 0.730136 0.210867 0.088631
C33   C     C_R   0.336062 0.807922 0.174184 0.034129
C34   C     C_R   0.339312 0.755865 0.282374 0.043007
C35   C     C_R   0.296844 0.856669 0.314592 0.019530
C36   C     C_R   0.278201 0.931296 0.276570 -0.032143
C37   C     C_R   0.307013 0.907510 0.207932 -0.210440
C38   C     C_R   0.384434 0.685740 0.322946 0.280542
C39   C     C_R   0.295882 0.808794 0.422300 -0.173363
C40   C     C_R   0.356588 0.783916 0.103856 -0.065051
H7    H     H_    0.379810 0.665123 0.016153 0.128071
H8    H     H_    0.302584 0.566856 0.197244 0.177858
H9    H     H_    0.344146 0.529791 0.077966 0.150598
H10   H     H_    0.299219 0.967564 0.180690 0.123761
O11   O     O_R   0.203230 0.917310 0.915020 -0.531492
O12   O     O_R   0.535500 0.888690 0.048040 -0.542993
O13   O     O_R   0.711080 0.082610 0.085000 -0.542069
C41   C     C_R   0.366536 0.861898 0.064563 0.678119
O14   O     O_R   0.532630 0.905370 0.913230 -0.529036
O15   O     O_R   0.708190 0.099410 0.949230 -0.534224
C42   C     C_R   0.363408 0.883726 0.886790 0.758091
O16   O     O_R   0.206120 0.900510 0.050790 -0.547048
O17   O     O_3   0.375360 0.063570 0.011990 -0.374717
V3    V     V_3+5 0.648170 0.988200 0.997780 1.533085
O18   O     O_R   0.038240 0.111390 0.951940 -0.543209
C43   C     C_R   0.869977 0.137122 0.934359 0.918584
O19   O     O_R   0.041120 0.094710 0.086750 -0.545070
C44   C     C_R   0.873886 0.114965 0.113661 0.702273
V4    V     V_3+5 0.148810 0.011930 0.002180 1.517996
O20   O     O_3   0.871750 0.936430 0.988010 -0.364378
O21   O     O_3   0.938452 0.157507 0.501964 -0.638333
H11   H     H_    0.908775 0.213894 0.480194 0.291577
C45   C     C_1   0.123481 0.287446 0.165500 0.340374
N1    N     N_1   0.230598 0.317397 0.131011 -0.346378
C46   C     C_1   0.748308 0.126743 0.227955 0.323879
N2    N     N_1   0.652408 0.091262 0.263030 -0.348649
C47   C     C_1   0.038551 0.752071 0.830709 0.353593
N3    N     N_1   0.905610 0.741281 0.862404 -0.317226
C48   C     C_1   0.009648 0.716036 0.686107 0.372192
N4    N     N_1   0.859965 0.715960 0.660846 -0.330671
C49   C     C_1   0.232912 0.034152 0.306846 0.354921
N5    N     N_1   0.196786 0.116336 0.331184 -0.334684
O22   O     O_3   0.974780 0.960955 0.687627 -0.648117
H12   H     H_    0.045008 0.931455 0.721080 0.297046
O23   O     O_3   0.471378 0.596234 0.294208 -0.664498
H13   H     H_    0.505209 0.557137 0.328043 0.286631
C50   C     C_1   0.947447 0.006862 0.569554 0.505480
N6    N     N_1   0.965932 0.925843 0.539145 -0.349341
C51   C     C_1   0.709175 0.391181 0.700123 0.381694
N7    N     N_1   0.619900 0.461419 0.722321 -0.341025
O24   O     O_3   0.841543 0.337334 0.991881 -0.650381
H14   H     H_    0.790187 0.406313 0.003552 0.307225
O25   O     O_3   0.022378 0.423580 0.780978 -0.637718
H15   H     H_    0.052111 0.489440 0.810371 0.342444
O26   O     O_3   0.967155 0.484290 0.918527 -0.647382
H16   H     H_    0.016730 0.485090 0.964121 0.303469
O27   O     O_3   0.850592 0.005406 0.820721 -0.656027
H17   H     H_    0.799666 0.945005 0.789457 0.292442

loop_
_geom_bond_atom_site_label_1
_geom_bond_atom_site_label_2
_ccdc_geom_bond_type
C16   C51   S    
C48   N4    T    
O23   H13   S    
C50   N6    T    
C5    C17   A    
O18   C43   A    
C4    C6    S    
C7    C8    A    
C1    O6    A    
C51   N7    T    
C21   C45   S    
C8    O26   S    
V4    O20   S    
C14   C15   A    
O25   H15   S    
C31   H8    S    
C25   C48   S    
C23   C47   S    
C23   C25   S    
O5    C3    A    
C24   H3    S    
C18   C43   S    
C1    C26   S    
C15   O27   S    
C22   C46   S    
O15   C43   A    
V2    O10   S    
C37   H10   S    
O14   V3    S    
C26   H4    S    
V3    O20   S    
C22   C44   S    
O8    V2    S    
C40   C41   S    
C46   N2    T    
C32   C34   A    
C19   H1    S    
C5    C50   S    
C11   C15   A    
O7    V1    S    
C33   C37   A    
O13   C44   A    
C9    O25   S    
C24   C42   S    
O9    C4    A    
C3    C20   S    
O16   V4    S    
C27   C35   A    
C45   N1    T    
C38   O23   S    
C2    C28   S    
O11   C42   A    
C6    C16   A    
C12   C13   A    
C36   C49   S    
O22   H12   S    
C6    C17   A    
C7    O24   S    
C14   O22   S    
C47   N3    T    
O14   C42   A    
C21   C22   D    
O12   C41   A    
O2    C1    A    
O19   C44   A    
C11   C18   A    
C23   C24   D    
O19   V4    S    
C29   C30   A    
C17   O21   S    
H5    C39   S    
O15   V3    S    
C32   C33   A    
C33   C40   A    
C27   H6    S    
O3    C4    A    
O1    V2    S    
C30   C31   A    
O6    V2    S    
O9    V2    S    
C28   C39   A    
C10   C12   A    
O2    V1    S    
O17   V4    S    
C34   C35   A    
O4    C2    A    
O11   V4    S    
C36   C37   A    
C25   C26   D    
O1    C2    A    
C19   C20   D    
C12   C16   A    
O5    V1    S    
O8    C3    A    
C35   C36   A    
O13   V3    S    
O27   H17   S    
O24   H14   S    
C5    C13   A    
C13   C14   A    
O17   V3    S    
O3    V1    S    
V1    O10   S    
C29   C40   A    
C30   H9    S    
C41   O16   A    
C19   C21   S    
O12   V3    S    
O7    V2    S    
C27   C39   A    
C29   H7    S    
O21   H11   S    
O4    V1    S    
C8    C9    A    
C31   C32   A    
C28   C38   A    
O26   H16   S    
O18   V4    S    
C10   C11   A    
C49   N5    T    
C9    C10   A    
C7    C18   A    
C34   C38   A    
C20   H2    S    
