data_mof_unit_33952.cif
_audit_creation_date              2012-12-10T21:25:09-0500
_audit_creation_method            fapswitch 2.2
_symmetry_space_group_name_H-M    P1
_symmetry_Int_Tables_number       1
_space_group_crystal_system       triclinic
_cell_length_a                    10.814833
_cell_length_b                    17.588382
_cell_length_c                    16.721559
_cell_angle_alpha                 89.578705
_cell_angle_beta                  90.99357
_cell_angle_gamma                 90.813186
_cell_volume                      3179.81940005

loop_
_atom_site_label
_atom_site_type_symbol
_atom_type_description
_atom_site_fract_x
_atom_site_fract_y
_atom_site_fract_z
_atom_type_partial_charge
C1    C     C_R   0.500768 0.353295 0.500246 0.945124
C2    C     C_R   0.499457 0.646730 0.499767 0.942994
C3    C     C_R   0.873484 0.506757 0.504121 -0.297932
C4    C     C_R   0.126581 0.493460 0.495872 -0.297883
C5    C     C_R   0.936986 0.463845 0.563338 -0.172403
C6    C     C_R   0.063187 0.536602 0.436790 -0.172698
C7    C     C_R   0.471530 0.847291 0.567137 -0.127947
C8    C     C_R   0.541784 0.153250 0.434591 -0.128598
C9    C     C_R   0.467270 0.768631 0.567313 -0.172753
C10   C     C_R   0.540760 0.231910 0.433688 -0.173331
C11   C     C_R   0.504002 0.729081 0.499618 -0.136596
C12   C     C_R   0.499577 0.270962 0.500572 -0.134867
C13   C     C_R   0.547686 0.768502 0.432475 -0.094673
C14   C     C_R   0.456705 0.231028 0.567589 -0.106593
C15   C     C_R   0.554555 0.847469 0.432334 0.477707
C16   C     C_R   0.455485 0.152001 0.568529 0.478503
C17   C     C_R   0.514068 0.886361 0.499907 -0.047732
C18   C     C_R   0.500279 0.113676 0.501776 -0.044252
C19   C     C_1   0.510696 0.966399 0.500644 0.135848
C20   C     C_1   0.506151 0.033710 0.501174 0.134198
C21   C     C_R   0.452565 0.438971 0.832694 -0.250498
C22   C     C_R   0.547954 0.560777 0.167262 -0.293448
C23   C     C_R   0.259414 0.497118 0.498920 0.985535
C24   C     C_R   0.740609 0.502924 0.501080 0.985642
C25   C     C_R   0.452726 0.439530 0.748572 0.096050
C26   C     C_R   0.547590 0.560349 0.251383 0.084882
C27   C     C_R   0.550776 0.560400 0.747386 -0.092396
C28   C     C_R   0.448904 0.439670 0.252656 -0.088420
C29   C     C_R   0.553409 0.562411 0.831847 0.374688
C30   C     C_R   0.446269 0.437597 0.168198 0.371240
C31   C     C_R   0.502533 0.500795 0.875591 -0.061250
C32   C     C_R   0.497586 0.499045 0.124411 -0.042861
C33   C     C_1   0.500786 0.500041 0.963463 0.149635
C34   C     C_1   0.499343 0.499748 0.036539 0.144842
C35   C     C_R   0.237599 0.655658 0.283466 0.416701
C36   C     C_R   0.762427 0.347138 0.718523 0.384973
C37   C     C_R   0.189589 0.631028 0.356873 -0.106786
C38   C     C_R   0.810237 0.370721 0.644716 -0.117916
C39   C     C_R   0.123843 0.561699 0.361653 0.158042
C40   C     C_R   0.876886 0.439658 0.638972 0.165283
C41   C     C_R   0.114298 0.514967 0.294077 -0.070148
C42   C     C_R   0.887865 0.486932 0.706070 -0.069521
C43   C     C_R   0.167193 0.537933 0.222121 -0.168110
C44   C     C_R   0.835426 0.464910 0.778480 -0.183602
C45   C     C_R   0.227565 0.608384 0.216548 -0.222966
C46   C     C_R   0.773940 0.394897 0.784956 -0.204368
C47   C     C_R   0.936986 0.547830 0.444324 0.432632
C48   C     C_R   0.063059 0.452367 0.555610 0.435269
H1    H     H_    0.265022 0.626544 0.159785 0.176243
H2    H     H_    0.736559 0.377462 0.841987 0.200359
H3    H     H_    0.413778 0.390340 0.864056 0.226165
H4    H     H_    0.587169 0.609248 0.135853 0.214651
H5    H     H_    0.415115 0.391219 0.716322 0.210672
H6    H     H_    0.585332 0.608650 0.283589 0.212988
H7    H     H_    0.590077 0.607036 0.713427 0.197889
H8    H     H_    0.409322 0.393147 0.286651 0.197012
H9    H     H_    0.197651 0.666896 0.409120 0.169830
H10   H     H_    0.800953 0.334419 0.592864 0.172588
H11   H     H_    0.065412 0.460879 0.297216 0.162111
H12   H     H_    0.937513 0.540716 0.702205 0.161618
H13   H     H_    0.159605 0.501641 0.170233 0.205619
H14   H     H_    0.844124 0.501617 0.829986 0.208218
H15   H     H_    0.440623 0.877733 0.619115 0.208558
H16   H     H_    0.575641 0.123227 0.383148 0.208058
H17   H     H_    0.433571 0.738846 0.619713 0.187418
H18   H     H_    0.574021 0.262135 0.381439 0.187214
H19   H     H_    0.576467 0.737759 0.380398 0.243083
H20   H     H_    0.424344 0.261434 0.618961 0.236522
N1    N     N_R   0.500030 0.500030 0.707230 -0.139416
N2    N     N_R   0.499970 0.499970 0.292770 -0.134757
O1    O     O_R   0.500000 0.389130 0.566570 -0.612474
O2    O     O_R   0.500000 0.610870 0.433430 -0.612326
O3    O     O_R   0.499990 0.389100 0.433480 -0.636264
O4    O     O_R   0.500010 0.610900 0.566520 -0.636373
O5    O     O_R   0.316760 0.500020 0.566540 -0.559645
O6    O     O_R   0.683240 0.499980 0.433460 -0.558895
O7    O     O_R   0.316760 0.499990 0.433460 -0.643108
O8    O     O_R   0.683240 0.500010 0.566540 -0.642009
Zn1   Zn    Zn3+2 0.500010 0.500020 0.588860 1.007813
Zn2   Zn    Zn3+2 0.499990 0.499980 0.411140 1.006978
S1    S     S_3+6 0.611322 0.895817 0.347036 0.088593
O9    O     O_2   0.505326 0.933924 0.304380 -0.218286
O10   O     O_2   0.705145 0.955091 0.372498 -0.289921
O11   O     O_3   0.677823 0.834436 0.284824 -0.505875
H21   H     H_    0.700323 0.865254 0.237302 0.406917
S2    S     S_3+6 0.399942 0.102839 0.653672 0.085229
O12   O     O_2   0.305741 0.043887 0.627923 -0.293368
O13   O     O_2   0.506424 0.064184 0.695240 -0.220664
O14   O     O_3   0.334385 0.163507 0.717097 -0.507521
H22   H     H_    0.311043 0.131941 0.763901 0.406494
S3    S     S_3+6 0.621074 0.641696 0.880911 0.021784
O15   O     O_2   0.525107 0.678968 0.930749 -0.268583
O16   O     O_2   0.725009 0.615195 0.934547 -0.298705
O17   O     O_3   0.676309 0.704865 0.814010 -0.550481
H23   H     H_    0.712412 0.746721 0.846568 0.409899
S4    S     S_3+6 0.378039 0.358457 0.119191 0.024783
O18   O     O_2   0.274130 0.385201 0.065662 -0.300523
O19   O     O_2   0.473675 0.320978 0.069247 -0.254329
O20   O     O_3   0.322595 0.295390 0.186142 -0.549911
H24   H     H_    0.286166 0.253617 0.153612 0.410492
S5    S     S_3+6 0.301503 0.747605 0.272603 0.066526
O21   O     O_2   0.229333 0.790086 0.209442 -0.216345
O22   O     O_2   0.296070 0.790331 0.349905 -0.259835
O23   O     O_3   0.449230 0.741578 0.244053 -0.534204
H25   H     H_    0.444583 0.725806 0.187338 0.362964
S6    S     S_3+6 0.696620 0.255865 0.730509 0.064985
O24   O     O_2   0.562860 0.263226 0.751277 -0.259411
O25   O     O_2   0.707224 0.210235 0.655383 -0.289178
O26   O     O_3   0.769860 0.210766 0.806142 -0.452851
H26   H     H_    0.857681 0.209764 0.790368 0.367007
S7    S     S_3+6 0.862095 0.617905 0.382889 0.030009
O27   O     O_2   0.823898 0.581912 0.304928 -0.310680
O28   O     O_2   0.750780 0.647695 0.423779 -0.340099
O29   O     O_3   0.955406 0.692903 0.364308 -0.525730
H27   H     H_    0.909680 0.723998 0.324331 0.416971
S8    S     S_3+6 0.137657 0.381967 0.616776 0.026349
O30   O     O_2   0.248742 0.351929 0.575777 -0.336485
O31   O     O_2   0.176202 0.417666 0.694821 -0.315999
O32   O     O_3   0.043616 0.307263 0.635168 -0.541030
H28   H     H_    0.088432 0.276325 0.675711 0.405438

loop_
_geom_bond_atom_site_label_1
_geom_bond_atom_site_label_2
_ccdc_geom_bond_type
C38   C40   A    
S5    O21   D    
C27   C29   A    
C19   C20   T    
C21   H3    S    
O1    Zn1   S    
O29   H27   S    
C28   H8    S    
C39   C41   A    
C21   C31   A    
C1    O1    A    
C22   C32   A    
C35   C37   A    
C25   H5    S    
C4    C48   A    
S2    O13   D    
S6    O24   D    
S4    O20   S    
S8    O30   D    
C15   C17   A    
C30   S4    S    
C38   H10   S    
S7    O27   D    
C7    C17   A    
S4    O19   D    
C31   C33   S    
C36   C46   A    
C18   C20   S    
C27   N1    A    
C48   S8    S    
C40   C42   A    
S5    O22   D    
C16   S2    S    
C41   C43   A    
C3    C24   S    
C1    C12   S    
C42   C44   A    
C2    O2    A    
C2    C11   S    
C26   H6    S    
O23   H25   S    
S1    O10   D    
C44   C46   A    
S1    O9    D    
C10   H18   S    
C37   C39   A    
C5    C48   A    
C6    C47   A    
N2    Zn2   S    
O11   H21   S    
C41   H11   S    
C15   S1    S    
C42   H12   S    
S3    O15   D    
C4    C23   S    
S2    O12   D    
C24   O6    A    
C44   H14   S    
C36   S6    S    
C8    C18   A    
C32   C34   S    
S3    O16   D    
C9    C11   A    
O20   H24   S    
C45   H1    S    
S4    O18   D    
C33   C34   T    
S7    O28   D    
C16   C18   A    
C23   O7    A    
C43   C45   A    
C7    H15   S    
C10   C12   A    
C8    H16   S    
C24   O8    A    
C12   C14   A    
S5    O23   S    
O4    Zn1   S    
C13   C15   A    
C26   N2    A    
C14   C16   A    
N1    Zn1   S    
C4    C6    A    
C25   N1    A    
C36   C38   A    
C35   C45   A    
C29   S3    S    
S1    O11   S    
C43   H13   S    
C22   H4    S    
C13   H19   S    
O7    Zn2   S    
C7    C9    A    
C21   C25   A    
O8    Zn1   S    
C8    C10   A    
C28   N2    A    
O6    Zn2   S    
C23   O5    A    
C3    C5    A    
S2    O14   S    
C2    O4    A    
C35   S5    S    
O32   H28   S    
C46   H2    S    
S8    O32   S    
C1    O3    A    
C28   C30   A    
C29   C31   A    
O26   H26   S    
S3    O17   S    
C30   C32   A    
C11   C13   A    
S6    O25   D    
C47   S7    S    
C3    C47   A    
C17   C19   S    
O3    Zn2   S    
S8    O31   D    
S7    O29   S    
C27   H7    S    
O17   H23   S    
C9    H17   S    
O2    Zn2   S    
C22   C26   A    
C5    C40   S    
C14   H20   S    
C6    C39   S    
O14   H22   S    
O5    Zn1   S    
C37   H9    S    
S6    O26   S    
