data_mof_unit_17973.cif
_audit_creation_date              2012-12-10T17:36:38-0500
_audit_creation_method            fapswitch 2.2
_symmetry_space_group_name_H-M    P1
_symmetry_Int_Tables_number       1
_space_group_crystal_system       triclinic
_cell_length_a                    12.12446
_cell_length_b                    12.719034
_cell_length_c                    15.734382
_cell_angle_alpha                 91.569574
_cell_angle_beta                  84.603264
_cell_angle_gamma                 93.915137
_cell_volume                      2409.49119613

loop_
_atom_site_label
_atom_site_type_symbol
_atom_type_description
_atom_site_fract_x
_atom_site_fract_y
_atom_site_fract_z
_atom_type_partial_charge
C1    C     C_R   0.522740 0.700078 0.503853 1.009173
C2    C     C_R   0.519488 0.025712 0.536995 0.005530
C3    C     C_R   0.959684 0.401514 0.416884 0.099400
C4    C     C_R   0.040316 0.598486 0.583117 0.099401
C5    C     C_R   0.841434 0.407198 0.427991 0.266835
C6    C     C_R   0.158566 0.592802 0.572009 0.266836
C7    C     C_R   0.856526 0.542807 0.533657 -0.090118
C8    C     C_R   0.143473 0.457193 0.466343 -0.090118
C9    C     C_R   0.973956 0.535432 0.529705 -0.025019
C10   C     C_R   0.026044 0.464567 0.470295 -0.025017
C11   C     C_R   0.498760 0.500600 0.661929 0.988403
C12   C     C_R   0.477260 0.299922 0.496147 1.009173
C13   C     C_R   0.501239 0.499400 0.338071 0.988404
C14   C     C_3   0.534231 0.596483 0.026260 0.022204
C15   C     C_3   0.465772 0.403521 0.973740 0.022202
C16   C     C_3   0.601549 0.525617 0.963016 0.151203
C17   C     C_3   0.398454 0.474387 0.036984 0.151200
C18   C     C_1   0.495840 0.500522 0.750937 -0.098303
C19   C     C_1   0.504160 0.499480 0.249062 -0.098304
C20   C     C_3   0.428827 0.570967 0.979371 -0.306157
C21   C     C_3   0.571176 0.429037 0.020628 -0.306159
C22   C     C_3   0.496750 0.499167 0.916937 0.087825
C23   C     C_R   0.586463 0.972322 0.588495 0.068412
C24   C     C_3   0.503252 0.500837 0.083062 0.087826
C25   C     C_1   0.495028 0.499989 0.826201 0.002795
C26   C     C_1   0.504974 0.500014 0.173799 0.002795
C27   C     C_R   0.459208 0.187659 0.490267 -0.107924
C28   C     C_R   0.540792 0.812341 0.509733 -0.107924
C29   C     C_3   0.716067 0.553975 0.916956 -0.425977
C30   C     C_3   0.805870 0.565736 0.978880 -0.842838
C31   C     C_3   0.283936 0.446027 0.083042 -0.425973
C32   C     C_3   0.194131 0.434272 0.021119 -0.842842
C33   C     C_2   0.571791 0.705701 0.053895 0.382494
C34   C     C_R   0.413536 0.027678 0.411506 0.068412
C35   C     C_2   0.428212 0.294303 0.946104 0.382496
C36   C     C_2   0.476132 0.167171 0.647811 0.391605
C37   C     C_2   0.523866 0.832829 0.352189 0.391605
C38   C     C_2   0.387833 0.197156 0.342905 0.301513
C39   C     C_2   0.612167 0.802844 0.657095 0.301513
C40   C     C_3   0.674282 0.031211 0.638866 -0.436122
C41   C     C_3   0.791600 0.002479 0.606343 -0.820574
C42   C     C_3   0.325718 0.968789 0.361134 -0.436122
C43   C     C_3   0.208400 0.997522 0.393657 -0.820573
C44   C     C_3   0.228400 0.672252 0.621700 -0.371379
C45   C     C_R   0.580242 0.861960 0.583596 -0.035999
C46   C     C_3   0.236900 0.781840 0.581895 -0.872931
C47   C     C_3   0.771600 0.327748 0.378300 -0.371380
C48   C     C_3   0.763099 0.218160 0.418105 -0.872930
C49   C     C_3   0.016189 0.331025 0.347043 -0.425447
C50   C     C_3   0.068750 0.395963 0.271570 -0.847432
C51   C     C_3   0.983811 0.668975 0.652957 -0.425448
C52   C     C_3   0.931250 0.604037 0.728431 -0.847433
C53   C     C_R   0.419758 0.138040 0.416404 -0.035999
C54   C     C_R   0.510208 0.871537 0.443145 -0.135742
C55   C     C_R   0.489792 0.128462 0.556856 -0.135742
C56   C     C_R   0.480511 0.974288 0.463005 0.005530
H1    H     H_    0.629044 0.371364 0.038886 0.150674
H2    H     H_    0.188851 0.509382 0.987832 0.259404
H3    H     H_    0.212056 0.370692 0.973098 0.272480
H4    H     H_    0.112558 0.413740 0.057005 0.246980
H5    H     H_    0.286593 0.370985 0.117043 0.201835
H6    H     H_    0.263117 0.509036 0.130999 0.225184
H7    H     H_    0.591250 0.766128 0.006507 0.045409
H8    H     H_    0.408752 0.233876 0.993492 0.045409
H9    H     H_    0.484542 0.114075 0.699228 0.086200
H10   H     H_    0.515456 0.885924 0.300772 0.086200
H11   H     H_    0.396309 0.162170 0.279193 0.073247
H12   H     H_    0.370959 0.628640 0.961113 0.150674
H13   H     H_    0.603692 0.837829 0.720807 0.073246
H14   H     H_    0.804085 0.918785 0.618340 0.264708
H15   H     H_    0.807176 0.016756 0.536754 0.262820
H16   H     H_    0.853320 0.052319 0.639982 0.244142
H17   H     H_    0.674940 0.117655 0.631710 0.215438
H18   H     H_    0.658130 0.014868 0.708005 0.190544
H19   H     H_    0.192823 0.983246 0.463247 0.262820
H20   H     H_    0.195915 0.081215 0.381659 0.264708
H21   H     H_    0.146679 0.947681 0.360019 0.244142
H22   H     H_    0.341869 0.985131 0.291995 0.190544
H23   H     H_    0.186547 0.403253 0.423463 0.204087
H24   H     H_    0.325059 0.882344 0.368291 0.215438
H25   H     H_    0.266023 0.777065 0.512999 0.284623
H26   H     H_    0.155971 0.818038 0.587206 0.241736
H27   H     H_    0.296760 0.834977 0.614669 0.245243
H28   H     H_    0.196653 0.676018 0.690028 0.170589
H29   H     H_    0.311537 0.649250 0.627016 0.253364
H30   H     H_    0.844029 0.181961 0.412793 0.241735
H31   H     H_    0.733977 0.222935 0.487001 0.284623
H32   H     H_    0.703239 0.165023 0.385331 0.245243
H33   H     H_    0.688462 0.350750 0.372984 0.253365
H34   H     H_    0.813453 0.596746 0.576538 0.204087
H35   H     H_    0.803347 0.323982 0.309972 0.170589
H36   H     H_    0.003567 0.435384 0.241692 0.255212
H37   H     H_    0.131559 0.456862 0.291556 0.266926
H38   H     H_    0.110157 0.343083 0.223080 0.254714
H39   H     H_    0.961079 0.268892 0.320347 0.216319
H40   H     H_    0.078402 0.284159 0.373337 0.211654
H41   H     H_    0.868444 0.543135 0.708445 0.266925
H42   H     H_    0.996434 0.564619 0.758311 0.255211
H43   H     H_    0.889839 0.656916 0.776920 0.254715
H44   H     H_    0.038921 0.731107 0.679653 0.216320
H45   H     H_    0.787949 0.629324 0.026893 0.272477
H46   H     H_    0.921598 0.715840 0.626664 0.211655
H47   H     H_    0.811144 0.490630 0.012175 0.259406
H48   H     H_    0.887446 0.586257 0.942994 0.246979
H49   H     H_    0.736888 0.490964 0.869002 0.225185
H50   H     H_    0.713410 0.629015 0.882951 0.201835
N1    N     N_R   0.207800 0.519340 0.515560 -0.133358
N2    N     N_R   0.792200 0.480660 0.484440 -0.133358
O1    O     O_R   0.421700 0.658830 0.504150 -0.650603
O2    O     O_2   0.419151 0.272744 0.870958 -0.538420
O3    O     O_2   0.450514 0.256406 0.667060 -0.545585
O4    O     O_2   0.549484 0.743593 0.332940 -0.545586
O5    O     O_2   0.348772 0.282913 0.352153 -0.603013
O6    O     O_2   0.651229 0.717087 0.647846 -0.603013
O7    O     O_R   0.578300 0.341170 0.495850 -0.650603
O8    O     O_R   0.609310 0.646410 0.494170 -0.556164
O9    O     O_R   0.390690 0.353590 0.505830 -0.556164
O10   O     O_R   0.406210 0.506220 0.628210 -0.652212
O11   O     O_R   0.593790 0.493780 0.371790 -0.652213
O12   O     O_R   0.593830 0.493800 0.618230 -0.586988
O13   O     O_R   0.406170 0.506200 0.381770 -0.586988
O14   O     O_2   0.580852 0.727260 0.129041 -0.538419
Zn1   Zn    Zn3+2 0.374730 0.508290 0.506660 0.987385
Zn2   Zn    Zn3+2 0.625270 0.491710 0.493340 0.987385

loop_
_geom_bond_atom_site_label_1
_geom_bond_atom_site_label_2
_ccdc_geom_bond_type
C11   C18   S    
C42   H24   S    
C16   C21   S    
C23   C45   A    
C31   H5    S    
C34   C42   S    
C32   H2    S    
C14   C33   S    
C3    C49   S    
O11   Zn2   S    
C51   H46   S    
C34   C56   A    
C5    C47   S    
C24   C26   S    
C2    C55   A    
C27   C55   A    
C23   C40   S    
C52   H41   S    
C43   H20   S    
C17   C20   S    
C40   H17   S    
C15   C17   S    
C14   C24   S    
C19   C26   T    
C37   O4    D    
C1    O1    A    
C46   H26   S    
C15   C22   S    
C47   C48   S    
C22   C25   S    
C30   H47   S    
C1    C28   S    
C6    N1    A    
C48   H32   S    
C35   H8    S    
C1    O8    A    
N1    Zn1   S    
C9    C10   A    
C41   H15   S    
C12   O7    A    
C6    C44   S    
C47   H33   S    
C31   H6    S    
C29   H49   S    
C18   C25   T    
N2    Zn2   S    
C11   O12   A    
C15   C35   S    
C13   O11   A    
C44   C46   S    
C43   H19   S    
C54   C56   A    
C28   C45   A    
C17   C24   S    
C13   C19   S    
C12   C27   S    
C51   C52   S    
C14   C20   S    
C4    C6    A    
C38   O5    D    
C28   C54   A    
C36   H9    S    
O1    Zn1   S    
C4    C51   S    
C3    C5    A    
C16   C29   S    
C7    H34   S    
C46   H27   S    
C21   H1    S    
C29   C30   S    
C8    H23   S    
C46   H25   S    
C13   O13   A    
C31   C32   S    
C33   H7    S    
C39   O6    D    
C37   H10   S    
C36   O3    D    
C39   H13   S    
C48   H31   S    
C49   H39   S    
C35   O2    D    
C41   H16   S    
C37   C54   S    
C50   H36   S    
C40   C41   S    
C20   C22   S    
C42   H22   S    
C33   O14   D    
C17   C31   S    
C48   H30   S    
C29   H50   S    
C42   C43   S    
C32   H4    S    
C44   H29   S    
C8    N1    A    
C51   H44   S    
C7    C9    A    
C16   C22   S    
O7    Zn2   S    
O8    Zn2   S    
C47   H35   S    
C20   H12   S    
C50   H38   S    
C44   H28   S    
C27   C53   A    
C50   H37   S    
C43   H21   S    
C52   H43   S    
C39   C45   S    
O9    Zn1   S    
C36   C55   S    
C2    C56   A    
C38   C53   S    
C30   H45   S    
C52   H42   S    
C40   H18   S    
C14   C16   S    
O10   Zn1   S    
C49   H40   S    
O13   Zn1   S    
C12   O9    A    
C15   C21   S    
C38   H11   S    
C34   C53   A    
C8    C10   A    
C49   C50   S    
C21   C24   S    
C30   H48   S    
C2    C23   A    
C3    C10   A    
C7    N2    A    
C32   H3    S    
C4    C9    A    
C11   O10   A    
O12   Zn2   S    
C41   H14   S    
C5    N2    A    
