data_mof_unit_24930.cif
_audit_creation_date              2013-03-05T16:01:06-0500
_audit_creation_method            fapswitch 2.2
_symmetry_space_group_name_H-M    P1
_symmetry_Int_Tables_number       1
_space_group_crystal_system       triclinic
_cell_length_a                    8.372481
_cell_length_b                    12.767212
_cell_length_c                    18.879693
_cell_angle_alpha                 101.143927
_cell_angle_beta                  91.869259
_cell_angle_gamma                 98.428698
_cell_volume                      1954.80709963

loop_
_atom_site_label
_atom_site_type_symbol
_atom_site_description
_atom_site_fract_x
_atom_site_fract_y
_atom_site_fract_z
_atom_type_partial_charge
P1    P     P_3+3 0.041040 0.394770 0.336330 0.585226
O1    O     O_2   0.873090 0.425890 0.325140 -0.384284
O2    O     O_3   0.122420 0.434370 0.414380 -0.271965
O3    O     O_3   0.659500 0.627100 0.368810 -0.340091
O4    O     O_2   0.768212 0.542820 0.244130 -0.416568
O5    O     O_3   0.995933 0.254076 0.317616 -0.444041
O6    O     O_3   0.684821 0.731971 0.252303 -0.531196
H1    H     H_    0.687475 0.843856 0.347233 0.103907
C1    C     C_3   0.576687 0.895874 0.257800 -1.016891
H2    H     H_    0.516002 0.956169 0.293101 0.264382
H3    H     H_    0.692634 0.936772 0.242219 0.270840
P2    P     P_3+3 0.672880 0.754030 0.556100 0.504092
P3    P     P_3+3 0.124623 0.825288 0.409293 0.506924
O7    O     O_2   0.848200 0.768190 0.534530 -0.361519
O8    O     O_3   0.081160 0.685950 0.404810 -0.346716
O9    O     O_2   0.995259 0.878850 0.453438 -0.361369
O10   O     O_3   0.714018 0.790872 0.650211 -0.604322
O11   O     O_3   0.096499 0.853238 0.322890 -0.541961
C2    C     C_3   0.106473 0.759886 0.270888 0.468232
H4    H     H_    0.005863 0.694854 0.274838 0.167835
H5    H     H_    0.223436 0.730693 0.277623 0.030993
C3    C     C_3   0.092389 0.785610 0.195813 -0.963505
H6    H     H_    0.975778 0.814647 0.187510 0.283430
H7    H     H_    0.193558 0.849117 0.189470 0.255536
C4    C     C_3   0.071782 0.797896 0.689174 0.155902
H8    H     H_    0.026895 0.807752 0.635948 0.123888
H9    H     H_    0.973708 0.752110 0.713723 0.075182
C5    C     C_3   0.121196 0.911678 0.735246 0.209735
H10   H     H_    0.249868 0.940366 0.728956 0.178775
H11   H     H_    0.048548 0.967804 0.715818 0.071411
Ba1   Ba    Ba6+2 0.852780 0.548340 0.465070 1.662274
C6    C     C_3   0.105508 0.211766 0.269453 0.345142
H12   H     H_    0.231434 0.243536 0.290969 0.066392
H13   H     H_    0.084790 0.231738 0.215496 0.023897
C7    C     C_3   0.080719 0.089295 0.259894 -0.749302
H14   H     H_    0.107050 0.065736 0.312111 0.295487
H15   H     H_    0.163550 0.055300 0.220022 0.192291
H16   H     H_    0.954151 0.054958 0.239796 0.234001
C8    C     C_3   0.611649 0.721325 0.683196 0.284434
H17   H     H_    0.633002 0.636557 0.665016 0.077928
H18   H     H_    0.486883 0.730710 0.669266 0.184928
C9    C     C_3   0.641611 0.749766 0.765027 -0.151691
H19   H     H_    0.771680 0.769700 0.781676 0.194186
H20   H     H_    0.593177 0.678171 0.786938 0.093820
P4    P     P_3+3 0.148670 0.605320 0.663680 0.519559
O12   O     O_2   0.316610 0.574140 0.674900 -0.381133
O13   O     O_3   0.067290 0.565720 0.585630 -0.339606
O14   O     O_3   0.530210 0.372990 0.631200 -0.350460
O15   O     O_3   0.207344 0.745596 0.677827 -0.561349
P5    P     P_3+3 0.065092 0.177152 0.602455 0.576350
O16   O     O_3   0.611340 0.366290 0.463630 -0.364332
O17   O     O_3   0.108550 0.314140 0.595200 -0.313692
O18   O     O_2   0.193162 0.121519 0.558764 -0.295743
O19   O     O_3   0.123814 0.171880 0.691210 -0.468829
Ba2   Ba    Ba6+2 0.337060 0.451750 0.534940 1.695768
P6    P     P_3+3 0.633872 0.605234 0.275095 0.439755
C10   C     C_3   0.607764 0.807553 0.297718 0.446151
H21   H     H_    0.489121 0.771839 0.314114 0.046713
H22   H     H_    0.497304 0.860227 0.208161 0.266689
O20   O     O_3   0.578370 0.633800 0.536380 -0.350795
C11   C     C_3   0.560162 0.251555 0.313296 0.536883
H23   H     H_    0.498284 0.323605 0.321523 0.007380
H24   H     H_    0.688287 0.275886 0.331662 0.194747
C12   C     C_3   0.552357 0.201410 0.233247 -1.053596
H25   H     H_    0.425447 0.171435 0.212173 0.250119
H26   H     H_    0.604827 0.263193 0.203407 0.213585
H27   H     H_    0.622676 0.133200 0.224135 0.288765
P7    P     P_3+3 0.519982 0.227119 0.443979 0.535881
O21   O     O_2   0.341510 0.231850 0.465510 -0.296090
O22   O     O_3   0.487806 0.174855 0.350921 -0.565148
H28   H     H_    0.097144 0.711955 0.154188 0.229887
C13   C     C_3   0.012733 0.215111 0.737724 0.356501
H29   H     H_    0.975616 0.289074 0.723432 0.055525
H30   H     H_    0.906677 0.151661 0.735950 0.071815
C14   C     C_3   0.089427 0.245990 0.814524 -0.801099
H31   H     H_    0.191828 0.313248 0.818462 0.264535
H32   H     H_    0.998740 0.272865 0.852723 0.193753
H33   H     H_    0.134563 0.175599 0.830092 0.294578
P8    P     P_3+3 0.553745 0.398225 0.725625 0.457293
C15   C     C_3   0.577340 0.201221 0.737908 0.886459
H34   H     H_    0.689649 0.228967 0.712851 -0.137649
O23   O     O_2   0.433078 0.473478 0.754610 -0.409142
O24   O     O_3   0.475827 0.279798 0.754699 -0.513636
H35   H     H_    0.702000 0.224395 0.843923 0.213822
C16   C     C_3   0.619245 0.161162 0.806184 -0.931007
H36   H     H_    0.680927 0.089407 0.792490 0.287399
H37   H     H_    0.507725 0.138746 0.833687 0.303455
C17   C     C_R   0.988529 0.460599 0.048327 0.005463
C18   C     C_R   0.885792 0.411242 0.094292 0.133906
C19   C     C_R   0.723060 0.373301 0.070669 -0.171089
C20   C     C_R   0.663529 0.383164 0.002540 -0.180922
C21   C     C_R   0.766123 0.429115 0.955610 0.121349
C22   C     C_R   0.929331 0.467792 0.978131 0.022378
C23   C     C_R   0.708069 0.434674 0.886113 -0.278312
C24   C     C_R   0.812823 0.471261 0.835736 -0.011128
C25   C     C_R   0.975752 0.515097 0.858755 0.020471
C26   C     C_R   0.032712 0.513711 0.930624 -0.016300
C27   C     C_R   0.760185 0.463002 0.762673 0.141172
C28   C     C_R   0.866940 0.501626 0.714417 -0.511008
C29   C     C_R   0.025935 0.551890 0.736135 0.211264
C30   C     C_R   0.081585 0.559706 0.810324 -0.021018
C31   C     C_R   0.150214 0.501821 0.072154 -0.026890
C32   C     C_R   0.208758 0.496866 0.143163 0.010347
C33   C     C_R   0.104033 0.449430 0.190928 -0.043269
C34   C     C_R   0.945801 0.401799 0.163278 -0.162965
H38   H     H_    0.640417 0.337220 0.105096 0.130270
H39   H     H_    0.537148 0.353446 0.986166 0.147369
H40   H     H_    0.823982 0.494025 0.658690 0.174188
H41   H     H_    0.581110 0.406611 0.871354 0.189076
H42   H     H_    0.866656 0.358586 0.195504 0.152699
C35   C     C_R   0.238352 0.610067 0.838321 -0.033045
C36   C     C_R   0.296153 0.605981 0.908818 0.097243
C37   C     C_R   0.193785 0.556192 0.954746 0.004269
C38   C     C_R   0.252481 0.550247 0.025295 0.026161
C39   C     C_R   0.456074 0.650053 0.934223 -0.127486
C40   C     C_R   0.514978 0.642200 0.002838 -0.185514
C41   C     C_R   0.414171 0.592572 0.048732 0.112402
C42   C     C_R   0.372162 0.539947 0.166011 -0.033639
C43   C     C_R   0.473267 0.585487 0.117678 -0.221555
C44   C     C_R   0.430159 0.536198 0.236485 0.197308
C45   C     C_R   0.327487 0.487977 0.282214 -0.450415
C46   C     C_R   0.163206 0.450148 0.263729 0.115537
H43   H     H_    0.317128 0.651836 0.805311 0.175641
H44   H     H_    0.537030 0.690342 0.901265 0.157537
H45   H     H_    0.639776 0.675726 0.020206 0.148075
H46   H     H_    0.599828 0.614993 0.132457 0.191817
H47   H     H_    0.377120 0.479422 0.333797 0.187558
C47   C     C_R   0.778311 0.162105 0.515616 0.172149
C48   C     C_R   0.426663 0.808309 0.473380 -0.030950
C49   C     C_R   0.388504 0.986977 0.461244 -0.183578
C50   C     C_R   0.329155 0.877898 0.451904 0.135188
C51   C     C_R   0.571407 0.849279 0.515859 0.202957
C52   C     C_R   0.631448 0.961489 0.528339 -0.038158
C53   C     C_R   0.541520 0.029569 0.496299 -0.072728
C54   C     C_R   0.612725 0.136393 0.496118 0.136501
C55   C     C_R   0.854238 0.112572 0.563864 0.010335
C56   C     C_R   0.781319 0.008131 0.568576 -0.181905
H48   H     H_    0.315548 0.036043 0.437977 0.210343
H49   H     H_    0.846971 0.962824 0.598867 0.173182
S1    S     S_3+6 0.092465 0.919940 0.829585 -0.027952
O25   O     O_2   0.083078 0.810892 0.849343 -0.312506
O26   O     O_2   0.231576 0.995548 0.872804 -0.251333
O27   O     O_3   0.920273 0.969393 0.848991 -0.529379
H50   H     H_    0.912398 0.973409 0.901650 0.384199
Br1   Br    Br    0.535153 0.869611 0.806846 -0.442483
Br2   Br    Br    0.459930 0.081066 0.669807 -0.524821
S2    S     S_3+6 0.888650 0.189206 0.444604 0.000956
O28   O     O_2   0.902199 0.308520 0.453063 -0.230223
O29   O     O_2   0.051442 0.155302 0.444002 -0.253955
O30   O     O_3   0.787438 0.121595 0.367048 -0.567957
H51   H     H_    0.791034 0.044559 0.367457 0.336010
Br3   Br    Br    0.372660 0.657054 0.435374 -0.438545

loop_
_geom_bond_atom_site_label_1
_geom_bond_atom_site_label_2
_geom_bond_distance
_ccdc_geom_bond_type
C11   O22   1.397707 S    
O14   Ba2   2.814329 S    
O5    C6    1.403611 S    
C34   H42   1.078205 S    
C52   C56   1.431817 A    
P8    C27   1.854481 S    
C24   C25   1.416476 A    
C5    S1    1.789996 S    
S1    O27   1.680226 S    
O7    Ba1   2.865609 S    
C19   C20   1.399266 A    
C24   C27   1.413728 A    
C8    H18   1.098027 S    
P4    O12   1.535461 D    
C4    C5    1.532941 S    
C28   H40   1.082275 S    
C56   H49   1.079056 S    
P5    O19   1.747473 S    
P3    O11   1.751675 S    
O14   P8    1.748472 S    
C21   C22   1.405338 A    
C5    H10   1.103773 S    
C2    H5    1.109609 S    
S1    O26   1.502680 D    
C45   H47   1.077528 S    
C47   C55   1.391602 A    
C15   H34   1.108869 S    
C33   C46   1.443611 A    
C39   C40   1.398000 A    
P1    Ba1   3.398540 S    
C40   C41   1.402762 A    
P1    O1    1.535129 D    
O10   C8    1.391501 S    
P4    O13   1.561013 S    
C11   H24   1.097220 S    
C42   C43   1.413687 A    
C36   C37   1.411502 A    
O4    P6    1.538635 D    
S2    O28   1.487609 D    
P1    C46   1.918055 S    
O2    Ba2   2.807226 S    
C2    H4    1.107915 S    
C51   C52   1.418182 A    
O12   Ba2   2.822260 S    
P5    O17   1.766147 S    
C1    H2    1.110564 S    
O16   Ba2   2.940220 S    
C11   H23   1.108340 S    
O17   Ba2   2.823224 S    
C48   C51   1.405002 A    
C15   Br2   1.919829 S    
Ba1   O13   2.806571 S    
Ba2   O20   2.842570 S    
O3    P6    1.738163 S    
P6    C44   1.856622 S    
C49   C53   1.405823 A    
C9    H20   1.104321 S    
O6    P6    1.750446 S    
C15   O24   1.404956 S    
C33   C34   1.411871 A    
C8    C9    1.520804 S    
C42   C44   1.413390 A    
C16   H37   1.110874 S    
P5    O18   1.545689 D    
C35   H43   1.077024 S    
P1    O5    1.743883 S    
O3    Ba1   2.814987 S    
C6    C7    1.521147 S    
C20   H39   1.083866 S    
C2    C3    1.520268 S    
S1    O25   1.501416 D    
C19   H38   1.079373 S    
C48   Br3   1.906756 S    
C13   H30   1.105669 S    
C47   C54   1.397093 A    
C20   C21   1.403522 A    
O11   C2    1.404839 S    
C4    H8    1.097708 S    
C16   H36   1.108457 S    
O1    Ba1   2.821879 S    
P1    O2    1.561013 S    
C7    H14   1.109415 S    
C6    H13   1.111158 S    
Ba1   O20   2.941146 S    
P2    O10   1.756808 S    
C11   C12   1.518371 S    
C14   H31   1.110533 S    
C12   H27   1.110667 S    
C15   C16   1.524530 S    
C31   C38   1.415520 A    
H1    C10   1.111412 S    
C1    H3    1.109496 S    
C28   C29   1.401514 A    
P4    O15   1.751781 S    
C25   C26   1.427721 A    
S2    O30   1.680247 S    
C21   C23   1.402625 A    
P3    C50   1.842520 S    
C23   C24   1.413525 A    
H35   C16   1.104965 S    
O2    Ba1   2.948789 S    
C14   H32   1.109402 S    
C45   C46   1.398457 A    
Ba2   O21   2.865841 S    
P2    O7    1.530622 D    
C40   H45   1.083865 S    
P3    O8    1.747650 S    
P2    Ba1   3.420892 S    
C52   C53   1.433069 A    
C3    H7    1.109973 S    
C32   C42   1.417565 A    
C4    H9    1.104358 S    
C9    H19   1.102271 S    
C26   C37   1.403663 A    
C49   H48   1.076822 S    
C22   C26   1.415089 A    
C3    H28   1.109412 S    
C8    H17   1.112726 S    
C44   C45   1.400733 A    
C7    H15   1.109952 S    
O13   Ba2   2.949712 S    
C37   C38   1.424304 A    
C17   C22   1.424073 A    
C39   H44   1.077129 S    
P2    C51   1.842740 S    
C35   C36   1.414427 A    
S2    O29   1.489048 D    
C3    H6    1.110767 S    
P7    O21   1.567889 D    
P7    C54   1.888961 S    
Ba1   O16   2.843214 S    
C13   H29   1.113611 S    
P4    C29   1.907722 S    
P8    O23   1.536414 D    
C17   C31   1.404195 A    
C47   S2    1.713753 S    
O8    Ba1   2.822570 S    
C53   C54   1.406785 A    
C30   C35   1.411207 A    
C23   H41   1.079968 S    
O30   H51   0.989902 S    
C12   H25   1.108207 S    
C41   C43   1.401416 A    
C49   C50   1.383453 A    
P5    C55   1.893240 S    
C6    H12   1.106401 S    
P8    O24   1.751575 S    
C13   C14   1.521261 S    
C10   H21   1.110087 S    
C5    H11   1.110309 S    
C29   C30   1.441771 A    
C1    C10   1.519500 S    
O16   P7    1.791105 S    
C31   C32   1.428466 A    
C14   H33   1.109618 S    
C4    O15   1.400967 S    
C38   C41   1.405158 A    
P2    O20   1.588953 S    
C43   H46   1.079647 S    
O19   C13   1.398990 S    
C17   C18   1.411106 A    
P4    Ba2   3.399162 S    
P7    O22   1.751508 S    
C27   C28   1.403435 A    
P3    O9    1.546309 D    
C18   C34   1.413881 A    
C32   C33   1.433824 A    
C7    H16   1.110135 S    
C55   C56   1.403352 A    
Ba1   Ba2   4.631039 S    
C18   C19   1.404727 A    
C25   C30   1.432401 A    
C9    Br1   1.933314 S    
C1    H22   1.110399 S    
O6    C10   1.407595 S    
C36   C39   1.404396 A    
O27   H50   0.990434 S    
C12   H26   1.104043 S    
C48   C50   1.396602 A    
