data_mof_unit_68349.cif
_audit_creation_date              2013-03-05T15:58:46-0500
_audit_creation_method            fapswitch 2.2
_symmetry_space_group_name_H-M    P1
_symmetry_Int_Tables_number       1
_space_group_crystal_system       triclinic
_cell_length_a                    7.133808
_cell_length_b                    14.594241
_cell_length_c                    16.085794
_cell_angle_alpha                 90.574393
_cell_angle_beta                  89.760844
_cell_angle_gamma                 90.663217
_cell_volume                      1674.52230309

loop_
_atom_site_label
_atom_site_type_symbol
_atom_site_description
_atom_site_fract_x
_atom_site_fract_y
_atom_site_fract_z
_atom_type_partial_charge
O1    O     O_R   0.494320 0.415010 0.412140 -0.545319
O2    O     O_R   0.824010 0.404260 0.587250 -0.581377
O3    O     O_R   0.994320 0.584990 0.587860 -0.608249
C1    C     C_R   0.653605 0.381364 0.614816 1.061812
O4    O     O_R   0.824040 0.403870 0.412760 -0.588299
O5    O     O_R   0.994350 0.584590 0.412130 -0.584008
C2    C     C_R   0.654120 0.375457 0.389233 1.077989
O6    O     O_R   0.494300 0.415410 0.587870 -0.560782
O7    O     O_3   0.660800 0.559290 0.500000 -0.288716
V1    V     V_3+5 0.935650 0.489000 0.500000 1.275884
O8    O     O_R   0.324060 0.595740 0.412750 -0.576885
C3    C     C_R   0.155116 0.620426 0.385617 1.111628
O9    O     O_R   0.324040 0.596130 0.587240 -0.598152
C4    C     C_R   0.155671 0.617755 0.615753 1.065493
V2    V     V_3+5 0.435660 0.511000 0.500000 1.290049
O10   O     O_3   0.160640 0.440710 0.500000 -0.248595
C5    C     C_3   0.959373 0.725832 0.722504 -0.257984
C6    C     C_3   0.032886 0.711364 0.812541 0.105905
H1    H     H_    0.815546 0.709837 0.700079 0.199842
C7    C     C_3   0.120791 0.809427 0.813312 -0.438195
C8    C     C_3   0.050236 0.822304 0.723822 0.594762
C9    C     C_3   0.234454 0.785252 0.685722 -0.380016
C10   C     C_3   0.303149 0.770119 0.775697 0.415058
C11   C     C_3   0.216775 0.673502 0.775339 0.494970
C12   C     C_3   0.145587 0.687438 0.686259 -0.313935
H2    H     H_    0.316140 0.817356 0.634608 0.203382
C13   C     C_3   0.240126 0.859933 0.267524 0.794497
C14   C     C_3   0.282139 0.779799 0.331475 0.692260
C15   C     C_3   0.190766 0.726707 0.155640 0.712250
C16   C     C_3   0.915696 0.801456 0.233985 0.516428
C17   C     C_3   0.113936 0.821007 0.192655 -0.633579
C18   C     C_3   0.141836 0.694635 0.315855 -0.697515
C19   C     C_3   0.191872 0.651899 0.226123 0.266179
C20   C     C_3   0.935935 0.737615 0.312719 0.608711
C21   C     C_3   0.432363 0.279332 0.705240 0.238394
H3    H     H_    0.355472 0.335710 0.736231 0.210652
C22   C     C_3   0.429121 0.196876 0.767910 -0.060060
H4    H     H_    0.319037 0.212299 0.814511 0.188350
C23   C     C_3   0.703351 0.361938 0.772445 0.406312
C24   C     C_3   0.754195 0.223520 0.668582 0.051395
C25   C     C_3   0.640378 0.313553 0.687888 -0.459282
H5    H     H_    0.666941 0.183141 0.625155 0.193779
C26   C     C_3   0.623892 0.190266 0.813938 -0.488574
C27   C     C_3   0.673993 0.291097 0.847496 0.225716
C28   C     C_3   0.775256 0.161529 0.747068 0.879128
C29   C     C_3   0.561524 0.339429 0.240050 0.928740
C30   C     C_3   0.550048 0.267083 0.168320 -0.715843
H6    H     H_    0.622145 0.291671 0.111254 0.244332
H7    H     H_    0.405153 0.256526 0.148032 0.234486
H8    H     H_    0.369187 0.241238 0.346072 0.175210
C31   C     C_3   0.512752 0.214127 0.342363 -0.104819
C32   C     C_3   0.844273 0.260045 0.300228 -0.008593
C33   C     C_3   0.644710 0.298082 0.321529 -0.337291
H9    H     H_    0.937264 0.319346 0.285910 0.170772
C34   C     C_3   0.629679 0.175167 0.194161 -0.227607
C35   C     C_3   0.521844 0.137002 0.272191 0.841405
C36   C     C_3   0.837487 0.193183 0.224097 -0.048144
H10   H     H_    0.901976 0.126913 0.240533 0.224395
O11   O     O_R   0.771990 0.083520 0.910980 -0.534233
O12   O     O_R   0.442180 0.095020 0.086060 -0.564978
O13   O     O_R   0.271950 0.914280 0.086680 -0.549097
C37   C     C_R   0.612199 0.110508 0.118829 1.066795
O14   O     O_R   0.442270 0.094630 0.911580 -0.592580
O15   O     O_R   0.272040 0.913890 0.910940 -0.587288
C38   C     C_R   0.612087 0.118471 0.884510 1.111742
O16   O     O_R   0.771900 0.083910 0.086710 -0.607669
O17   O     O_3   0.605520 0.939610 0.998840 -0.275424
V3    V     V_3+5 0.330640 0.009880 0.998810 1.296669
O18   O     O_R   0.942330 0.902710 0.911540 -0.559038
C39   C     C_R   0.110801 0.880434 0.883316 1.058739
O19   O     O_R   0.942240 0.903100 0.086030 -0.636571
C40   C     C_R   0.108281 0.889249 0.119927 1.099443
V4    V     V_3+5 0.830640 0.987830 0.998780 1.295362
O20   O     O_3   0.105630 0.058150 0.998800 -0.256370
I1    I     I_    0.859063 0.647829 0.904193 -0.119978
O21   O     O_3   0.467655 0.752661 0.319881 -0.681145
H11   H     H_    0.508002 0.723274 0.371922 0.397170
O22   O     O_3   0.367406 0.743066 0.125137 -0.741259
H12   H     H_    0.397079 0.695491 0.082193 0.380843
I2    I     I_    0.444204 0.578050 0.227914 -0.122683
I3    I     I_    0.744341 0.739443 0.141955 -0.161569
O23   O     O_3   0.825417 0.882722 0.259298 -0.630465
H13   H     H_    0.785060 0.917449 0.210347 0.356959
I4    I     I_    0.860649 0.809569 0.429151 -0.183599
O24   O     O_3   0.791429 0.671975 0.312537 -0.685894
H14   H     H_    0.831820 0.613961 0.288779 0.363180
O25   O     O_3   0.089910 0.693670 0.085781 -0.701354
H15   H     H_    0.106997 0.737028 0.039005 0.317576
I5    I     I_    0.046754 0.529315 0.184833 -0.202588
O26   O     O_3   0.329923 0.262535 0.632386 -0.684372
H16   H     H_    0.362790 0.202070 0.610533 0.379370
I6    I     I_    0.323217 0.064820 0.720016 -0.226923
O27   O     O_3   0.586515 0.437648 0.787795 -0.659753
H17   H     H_    0.612709 0.484931 0.745293 0.343392
I7    I     I_    0.458021 0.336783 0.934959 -0.190150
O28   O     O_3   0.923172 0.234745 0.624526 -0.643496
H18   H     H_    0.997324 0.283185 0.652003 0.383387
O29   O     O_3   0.745471 0.069615 0.723388 -0.698311
H19   H     H_    0.836680 0.055891 0.678332 0.390822
O30   O     O_3   0.956312 0.166477 0.781209 -0.687168
H20   H     H_    0.006970 0.229118 0.775485 0.307269
I8    I     I_    0.983458 0.427034 0.763514 -0.278742
O31   O     O_3   0.959091 0.900170 0.696226 -0.694991
H21   H     H_    0.932638 0.888410 0.636595 0.340838
I9    I     I_    0.902200 0.294541 0.933047 -0.191439
O32   O     O_3   0.379268 0.370484 0.257178 -0.736298
H22   H     H_    0.324019 0.389587 0.203810 0.369689
O33   O     O_3   0.672665 0.414158 0.215370 -0.706413
H23   H     H_    0.779689 0.391233 0.182668 0.344071
O34   O     O_3   0.340672 0.105871 0.250353 -0.729661
H24   H     H_    0.260154 0.159619 0.244121 0.317970
I10   I     I_    0.993963 0.199045 0.401894 -0.177799
I11   I     I_    0.025803 0.245219 0.132574 -0.345316
I12   I     I_    0.526724 0.157438 0.463751 -0.273389
O35   O     O_3   0.622956 0.061197 0.301020 -0.689301
H25   H     H_    0.538218 0.022687 0.335345 0.389034
O36   O     O_3   0.484818 0.789253 0.803795 -0.693547
H26   H     H_    0.513368 0.852627 0.785630 0.356028
O37   O     O_3   0.309753 0.595672 0.802618 -0.667685
H27   H     H_    0.335534 0.607008 0.862368 0.366785
O38   O     O_3   0.406697 0.901933 0.238920 -0.708305
H28   H     H_    0.480126 0.857401 0.207523 0.395818
O39   O     O_3   0.140302 0.930050 0.308777 -0.650749
H29   H     H_    0.227327 0.965012 0.345471 0.371925
O40   O     O_3   0.265410 0.812244 0.414212 -0.767250
H30   H     H_    0.369546 0.856613 0.424774 0.345618

loop_
_geom_bond_atom_site_label_1
_geom_bond_atom_site_label_2
_geom_bond_distance
_ccdc_geom_bond_type
O25   H15   0.994195 S    
O14   C38   1.329338 A    
C22   C26   1.581520 S    
O27   H17   0.991922 S    
V4    O20   2.203403 S    
C21   H3    1.107389 S    
C1    O6    1.322039 A    
C13   O38   1.408433 S    
O39   H29   0.991895 S    
C30   H7    1.093981 S    
C27   I9    2.135906 S    
C32   C33   1.569307 S    
C6    I1    2.134604 S    
C6    C11   1.545298 S    
O15   V3    2.021591 S    
C30   C34   1.525034 S    
C21   C22   1.577471 S    
C28   O29   1.404801 S    
O5    C3    1.325612 A    
C16   C17   1.584303 S    
O32   H22   0.990054 S    
C32   I10   2.161733 S    
V3    O20   1.760410 S    
V2    O10   2.203392 S    
C34   C37   1.532983 S    
C15   C19   1.581944 S    
O33   H23   0.985192 S    
O12   C37   1.340382 A    
C31   C35   1.587721 S    
O34   H24   0.983756 S    
C23   O27   1.410917 S    
O14   V3    2.033601 S    
O8    V2    2.049389 S    
C15   O22   1.369621 S    
C9    C12   1.555330 S    
C29   O33   1.400594 S    
C10   C11   1.532235 S    
O18   V4    2.031258 S    
O17   V4    1.745909 S    
O15   C39   1.321302 A    
O7    V1    2.223363 S    
O11   V4    2.044022 S    
C24   H5    1.099811 S    
O9    C4    1.324356 A    
C3    C18   1.571246 S    
C7    C39   1.524689 S    
C20   I4    2.205486 S    
C24   O28   1.404555 S    
C35   O34   1.409690 S    
C32   H9    1.109763 S    
C5    C6    1.559574 S    
C24   C28   1.569279 S    
C31   I12   2.131450 S    
C37   O16   1.310297 A    
C13   C17   1.602182 S    
O17   V3    2.223420 S    
C14   C18   1.605231 S    
C11   C12   1.538461 S    
C23   C25   1.590280 S    
O19   V4    2.049297 S    
C16   C20   1.587834 S    
O22   H12   0.998312 S    
C36   I11   2.128652 S    
O24   H14   0.971693 S    
O16   V4    2.027631 S    
C5    C8    1.543144 S    
C31   C33   1.574369 S    
C20   O24   1.399113 S    
C18   C20   1.605035 S    
C16   O23   1.411746 S    
O2    C1    1.332340 A    
C26   C27   1.599413 S    
C10   O36   1.398510 S    
C22   H4    1.106838 S    
C19   I5    2.156963 S    
C30   H6    1.111007 S    
C7    C10   1.546384 S    
C26   C38   1.553924 S    
O28   H18   0.980805 S    
C34   C35   1.572752 S    
H8    C31   1.103368 S    
O21   H11   0.989750 S    
C26   C28   1.578174 S    
O38   H28   0.975167 S    
O3    C4    1.319908 A    
O1    V2    2.025830 S    
O13   C40   1.330996 A    
C17   C40   1.544937 S    
O23   H13   0.986419 S    
O6    V2    2.043781 S    
C34   C36   1.578958 S    
C9    H2    1.110196 S    
O40   H30   0.993850 S    
C2    C33   1.562030 S    
O26   H16   0.977310 S    
C14   O21   1.397040 S    
O31   H21   0.991274 S    
C14   O40   1.413180 S    
C23   I8    2.207378 S    
O4    C2    1.331762 A    
C29   C30   1.557949 S    
C24   C25   1.580081 S    
C11   O37   1.397331 S    
C13   O39   1.412067 S    
C22   I6    2.195449 S    
O1    C2    1.332670 A    
C28   O30   1.406438 S    
O5    V1    2.034820 S    
O37   H27   0.991244 S    
C19   I2    2.109194 S    
C23   C27   1.608757 S    
C5    C12   1.556535 S    
C18   C19   1.607062 S    
C16   I3    2.113647 S    
O9    V2    2.031150 S    
O7    V2    1.746440 S    
O19   C40   1.324526 A    
C15   C17   1.596017 S    
O3    V1    2.021580 S    
V1    O10   1.760399 S    
O36   H26   0.991401 S    
O11   C38   1.328377 A    
O13   V3    2.034906 S    
C36   H10   1.110573 S    
C29   O32   1.407100 S    
C29   C33   1.569958 S    
O30   H20   0.984163 S    
C5    H1    1.110506 S    
C35   O35   1.410963 S    
C6    C7    1.555801 S    
C4    C12   1.517743 S    
O18   C39   1.325802 A    
C21   C25   1.584801 S    
C15   O25   1.414486 S    
C32   C36   1.558753 S    
C8    O31   1.393134 S    
C21   O26   1.401700 S    
O4    V1    2.024429 S    
C7    C8    1.540950 S    
O12   V3    2.024432 S    
O29   H19   0.992437 S    
C1    C25   1.546012 S    
C13   C14   1.597045 S    
C27   I7    2.187375 S    
C9    C10   1.548713 S    
C8    C9    1.548595 S    
O35   H25   0.990829 S    
O8    C3    1.338072 A    
O2    V1    2.033761 S    
