data_mof_unit_25623.cif
_audit_creation_date              2012-12-10T18:46:17-0500
_audit_creation_method            fapswitch 2.2
_symmetry_space_group_name_H-M    P1
_symmetry_Int_Tables_number       1
_space_group_crystal_system       triclinic
_cell_length_a                    9.919354
_cell_length_b                    10.64856
_cell_length_c                    12.998655
_cell_angle_alpha                 91.017018
_cell_angle_beta                  69.833154
_cell_angle_gamma                 89.881393
_cell_volume                      1288.57933501

loop_
_atom_site_label
_atom_site_type_symbol
_atom_type_description
_atom_site_fract_x
_atom_site_fract_y
_atom_site_fract_z
_atom_type_partial_charge
C1    C     C_R   0.499848 0.739621 0.500290 1.048361
C2    C     C_R   0.425146 0.451538 0.987609 -0.070596
C3    C     C_R   0.454310 0.423102 0.876116 -0.151950
C4    C     C_R   0.540058 0.442234 0.028143 -0.162773
C5    C     C_R   0.665456 0.371673 0.969081 -0.235058
C6    C     C_R   0.672204 0.311621 0.870040 0.566232
C7    C     C_R   0.568484 0.338780 0.821932 0.405692
C8    C     C_R   0.536589 0.507928 0.122801 0.574944
C9    C     C_R   0.754454 0.403442 0.121438 0.341417
C10   C     C_R   0.365783 0.478210 0.823797 -0.175150
C11   C     C_R   0.616291 0.932456 0.423179 0.513068
C12   C     C_R   0.419653 0.494223 0.704718 0.988745
C13   C     C_R   0.617187 0.062790 0.421512 0.310676
C14   C     C_R   0.501437 0.127855 0.497539 -0.423096
C15   C     C_R   0.386021 0.066669 0.573048 0.558659
C16   C     C_R   0.385560 0.937924 0.573817 0.533312
C17   C     C_R   0.500475 0.872015 0.499124 -0.454905
C18   C     C_R   0.954452 0.410340 0.442624 0.575836
C19   C     C_R   0.097719 0.410289 0.442737 0.557949
C20   C     C_R   0.045341 0.589946 0.557570 0.371803
C21   C     C_R   0.903603 0.590949 0.556709 0.368916
C22   C     C_R   0.500606 0.260387 0.498804 1.097660
C23   C     C_R   0.580445 0.498230 0.294900 0.996155
C24   C     C_R   0.777629 0.359713 0.013335 0.408376
C25   C     C_R   0.630745 0.475784 0.176262 -0.296301
C26   C     C_R   0.231746 0.530078 0.887539 0.555428
C27   C     C_R   0.188067 0.528739 0.001169 -0.176856
C28   C     C_R   0.281949 0.488089 0.052665 0.507974
H1    H     H_    0.080698 0.560282 0.049786 0.221009
N1    N     N_R   0.142790 0.500030 0.500030 -0.262435
N2    N     N_R   0.857180 0.499940 0.500010 -0.263196
O1    O     O_R   0.385370 0.683250 0.500010 -0.596567
O2    O     O_R   0.614700 0.683220 0.500010 -0.595363
O3    O     O_R   0.328400 0.499990 0.653620 -0.600761
O4    O     O_R   0.557730 0.499960 0.653620 -0.654008
O5    O     O_R   0.385300 0.316780 0.499990 -0.555305
O6    O     O_R   0.614630 0.316750 0.499990 -0.529021
O7    O     O_R   0.442270 0.500040 0.346380 -0.565563
O8    O     O_R   0.671600 0.500010 0.346380 -0.526684
Zn1   Zn    Zn3+2 0.346870 0.500020 0.500000 1.104124
Zn2   Zn    Zn3+2 0.653130 0.499980 0.500000 1.092957
O9    O     O_3   0.850315 0.378180 0.174634 -0.644330
H2    H     H_    0.927498 0.321234 0.128805 0.403215
O10   O     O_3   0.725746 0.128695 0.345977 -0.634408
H3    H     H_    0.798638 0.069205 0.298540 0.413892
F1    F     F_    0.276496 0.131905 0.647541 -0.547953
F2    F     F_    0.276115 0.877647 0.649338 -0.545683
F3    F     F_    0.914113 0.320658 0.384239 -0.528232
F4    F     F_    0.190778 0.319531 0.385602 -0.586869
O11   O     O_3   0.080206 0.680689 0.620371 -0.563884
H4    H     H_    0.162364 0.649425 0.638437 0.416214
O12   O     O_3   0.815463 0.686448 0.615634 -0.630583
H5    H     H_    0.715620 0.659673 0.635357 0.372728
F5    F     F_    0.775962 0.224431 0.821422 -0.609894
O13   O     O_3   0.908628 0.305689 0.954349 -0.673493
H6    H     H_    0.937649 0.337628 0.878721 0.400424
F6    F     F_    0.440935 0.603466 0.164879 -0.592686
F7    F     F_    0.142082 0.580807 0.840476 -0.616668
O14   O     O_3   0.225789 0.474431 0.164729 -0.660375
H7    H     H_    0.282299 0.408693 0.185074 0.376936
O15   O     O_3   0.568241 0.275647 0.728105 -0.736127
H8    H     H_    0.655067 0.221775 0.698652 0.390248
F8    F     F_    0.724679 0.864521 0.350004 -0.606179

loop_
_geom_bond_atom_site_label_1
_geom_bond_atom_site_label_2
_ccdc_geom_bond_type
C2    C4    A    
O13   H6    S    
C9    C24   A    
C6    C7    A    
C8    F6    S    
C27   H1    S    
C23   O7    A    
C22   O5    A    
C19   F4    S    
C1    C17   S    
C24   O13   S    
C19   N1    A    
O5    Zn1   S    
C4    C8    A    
O2    Zn2   S    
C10   C26   A    
O1    Zn1   S    
C2    C3    A    
C26   C27   A    
C9    C25   A    
O14   H7    S    
O8    Zn2   S    
C3    C10   A    
C20   N1    A    
C13   C14   A    
O10   H3    S    
C12   O4    A    
O7    Zn1   S    
C8    C25   A    
C11   C13   A    
C14   C22   S    
C9    O9    S    
C5    C6    A    
C5    C24   A    
C10   C12   S    
C6    F5    S    
C23   O8    A    
C4    C5    A    
C16   F2    S    
O11   H4    S    
C3    C7    A    
C23   C25   S    
O6    Zn2   S    
O15   H8    S    
O4    Zn2   S    
O3    Zn1   S    
O9    H2    S    
C1    O2    A    
C15   C16   A    
C21   O12   S    
N1    Zn1   S    
C20   C21   A    
C20   O11   S    
C18   C19   A    
C28   O14   S    
C27   C28   A    
C11   F8    S    
C14   C15   A    
C11   C17   A    
C2    C28   A    
C18   N2    A    
N2    Zn2   S    
C15   F1    S    
C13   O10   S    
C22   O6    A    
C12   O3    A    
C26   F7    S    
C1    O1    A    
C7    O15   S    
O12   H5    S    
C16   C17   A    
C21   N2    A    
C18   F3    S    
