data_mof_unit_53160.cif
_audit_creation_date              2012-12-10T18:23:05-0500
_audit_creation_method            fapswitch 2.2
_symmetry_space_group_name_H-M    P1
_symmetry_Int_Tables_number       1
_space_group_crystal_system       triclinic
_cell_length_a                    15.047971
_cell_length_b                    14.023731
_cell_length_c                    10.577245
_cell_angle_alpha                 92.703974
_cell_angle_beta                  91.068474
_cell_angle_gamma                 89.20883
_cell_volume                      2229.04255789

loop_
_atom_site_label
_atom_site_type_symbol
_atom_type_description
_atom_site_fract_x
_atom_site_fract_y
_atom_site_fract_z
_atom_type_partial_charge
C1    C     C_R   0.326686 0.500340 0.497510 0.997168
C2    C     C_R   0.673302 0.499619 0.502154 0.996828
C3    C     C_R   0.953429 0.499027 0.500938 -0.020377
C4    C     C_R   0.046477 0.501218 0.496096 -0.017316
C5    C     C_R   0.906518 0.423278 0.438018 -0.011476
C6    C     C_R   0.093293 0.577009 0.559110 -0.011603
C7    C     C_R   0.953802 0.653247 0.615529 -0.109449
C8    C     C_R   0.046037 0.346586 0.382604 -0.115556
C9    C     C_R   0.045471 0.656877 0.609377 0.314367
C10   C     C_R   0.954283 0.343302 0.387976 0.314859
C11   C     C_R   0.558080 0.794232 0.425913 0.116251
C12   C     C_R   0.441964 0.205783 0.574152 0.082950
C13   C     C_R   0.440990 0.801369 0.572517 0.114727
C14   C     C_R   0.558782 0.198631 0.427119 0.096738
C15   C     C_R   0.440124 0.902396 0.576751 -0.089681
C16   C     C_R   0.559559 0.097610 0.422766 -0.090251
C17   C     C_R   0.559410 0.894945 0.422546 -0.077074
C18   C     C_R   0.440431 0.105069 0.577199 -0.076551
C19   C     C_R   0.499816 0.949406 0.499720 0.008455
C20   C     C_R   0.499957 0.050603 0.499931 0.006459
C21   C     C_R   0.381717 0.957137 0.655577 0.255977
C22   C     C_R   0.617756 0.042880 0.343629 0.261819
C23   C     C_R   0.618181 0.942083 0.344258 0.214848
C24   C     C_R   0.381463 0.057938 0.655177 0.217611
C25   C     C_R   0.496870 0.497815 0.257256 1.043597
C26   C     C_R   0.502827 0.502196 0.742747 1.043870
C27   C     C_3   0.430459 0.552257 0.041950 0.387475
C28   C     C_3   0.568744 0.447792 0.958066 0.387327
C29   C     C_3   0.509884 0.591504 0.973443 0.427283
C30   C     C_3   0.489264 0.408554 0.026471 0.431677
C31   C     C_3   0.424301 0.466820 0.944760 -0.385156
C32   C     C_3   0.574894 0.533343 0.055168 -0.394717
C33   C     C_3   0.504777 0.506322 0.877370 -0.359316
C34   C     C_3   0.494443 0.493721 0.122601 -0.353071
C35   C     C_R   0.814068 0.431781 0.426608 0.213181
C36   C     C_R   0.185654 0.568422 0.571218 0.213668
C37   C     C_R   0.769144 0.498566 0.506089 -0.271834
C38   C     C_R   0.230814 0.501288 0.492582 -0.264289
C39   C     C_R   0.815870 0.565627 0.584588 0.371374
C40   C     C_R   0.184347 0.433875 0.414078 0.367560
C41   C     C_R   0.907489 0.572758 0.568787 -0.043523
C42   C     C_R   0.092504 0.427138 0.428971 -0.052271
H1    H     H_    0.362390 0.440047 0.897400 0.245901
H2    H     H_    0.636786 0.560274 0.102420 0.240847
H3    H     H_    0.918843 0.716353 0.651695 0.229766
H4    H     H_    0.080845 0.283041 0.347662 0.237009
H5    H     H_    0.602620 0.749685 0.369359 0.177332
H6    H     H_    0.397517 0.250346 0.630830 0.187657
H7    H     H_    0.394836 0.762313 0.626468 0.208466
H8    H     H_    0.604784 0.237688 0.372898 0.214163
N1    N     N_R   0.500000 0.750030 0.500000 -0.133485
N2    N     N_R   0.500000 0.249970 0.500000 -0.144093
O1    O     O_R   0.367850 0.580280 0.500030 -0.596023
O2    O     O_R   0.632150 0.419720 0.499970 -0.591875
O3    O     O_R   0.632150 0.580280 0.499970 -0.605171
O4    O     O_R   0.367850 0.419720 0.500030 -0.613024
O5    O     O_R   0.499970 0.580260 0.313950 -0.607238
O6    O     O_R   0.500030 0.419740 0.686050 -0.604012
O7    O     O_R   0.500030 0.580260 0.686050 -0.567772
O8    O     O_R   0.499970 0.419740 0.313950 -0.577963
Zn1   Zn    Zn3+2 0.500000 0.607200 0.500000 1.091283
Zn2   Zn    Zn3+2 0.500000 0.392800 0.500000 1.070751
S1    S     S_3+6 0.333480 0.618606 0.092180 0.132592
O9    O     O_2   0.254766 0.553708 0.087565 -0.214430
O10   O     O_2   0.346579 0.659987 0.224660 -0.261060
O11   O     O_3   0.313576 0.707976 0.994815 -0.427969
H9    H     H_    0.258552 0.739649 0.026444 0.409587
S2    S     S_3+6 0.665880 0.381233 0.908984 0.135192
O12   O     O_2   0.654401 0.341876 0.775248 -0.256838
O13   O     O_2   0.745149 0.445340 0.917679 -0.212889
O14   O     O_3   0.683471 0.290252 0.004529 -0.426358
H10   H     H_    0.738513 0.258250 0.973509 0.410323
S3    S     S_3+6 0.527426 0.715318 0.952316 0.137478
O15   O     O_2   0.622827 0.731644 0.921664 -0.214914
O16   O     O_2   0.468437 0.748675 0.847094 -0.247712
O17   O     O_3   0.502770 0.777165 0.087455 -0.501312
H11   H     H_    0.508540 0.845113 0.067669 0.397213
S4    S     S_3+6 0.470208 0.284789 0.046067 0.126389
O18   O     O_2   0.525388 0.250773 0.154864 -0.268083
O19   O     O_2   0.373586 0.269237 0.070023 -0.203793
O20   O     O_3   0.498685 0.222872 0.912597 -0.494906
H12   H     H_    0.491020 0.154988 0.931435 0.396956
Br1   Br    Br    0.751301 0.375131 0.280672 -0.348609
Br2   Br    Br    0.247805 0.625132 0.717696 -0.346206
S5    S     S_3+6 0.762288 0.636026 0.706706 0.090732
O21   O     O_2   0.732783 0.729668 0.655256 -0.273655
O22   O     O_2   0.683176 0.585127 0.752955 -0.260060
O23   O     O_3   0.832614 0.656207 0.830413 -0.500001
H13   H     H_    0.802779 0.705642 0.885139 0.420739
S6    S     S_3+6 0.239255 0.361218 0.295178 0.099859
O24   O     O_2   0.178149 0.339501 0.183759 -0.197984
O25   O     O_2   0.318297 0.412140 0.248589 -0.283632
O26   O     O_3   0.272259 0.258306 0.358236 -0.531149
H14   H     H_    0.329814 0.241335 0.318494 0.402687
Br3   Br    Br    0.096028 0.780435 0.646753 -0.282569
Br4   Br    Br    0.903486 0.219884 0.350361 -0.275006
Br5   Br    Br    0.303241 0.895726 0.767988 -0.246904
Br6   Br    Br    0.695557 0.104341 0.230333 -0.249770
Br7   Br    Br    0.699693 0.869605 0.236622 -0.336157
Br8   Br    Br    0.299833 0.130446 0.762586 -0.302854

loop_
_geom_bond_atom_site_label_1
_geom_bond_atom_site_label_2
_ccdc_geom_bond_type
O6    Zn2   S    
C23   Br7   S    
S1    O10   D    
O26   H14   S    
C22   Br6   S    
C27   C29   S    
S3    O15   D    
C11   H5    S    
C19   C20   A    
N1    Zn1   S    
C12   H6    S    
C6    C9    A    
O20   H12   S    
C39   C41   A    
S5    O21   D    
C15   C19   A    
C17   C23   A    
C31   H1    S    
C18   C24   A    
C7    H3    S    
C35   C37   A    
C1    O4    A    
C8    C42   A    
C29   C32   S    
C2    O3    A    
C30   C31   S    
S4    O19   D    
C29   S3    S    
C29   C33   S    
O8    Zn2   S    
C1    O1    A    
C13   N1    A    
O1    Zn1   S    
C14   N2    A    
S2    O12   D    
C31   C33   S    
C25   O8    A    
C26   O7    A    
C9    Br3   S    
C18   C20   A    
S4    O20   S    
C25   C34   S    
C40   C42   A    
O11   H9    S    
S1    O11   S    
S3    O16   D    
C25   O5    A    
C12   N2    A    
S5    O22   D    
C27   C34   S    
O7    Zn1   S    
C30   C34   S    
C27   C31   S    
C28   C32   S    
O17   H11   S    
C4    C6    A    
C2    O2    A    
C35   Br1   S    
S4    O18   D    
O2    Zn2   S    
C32   C34   S    
C21   Br5   S    
C26   C33   S    
S6    O25   D    
C10   Br4   S    
C16   C20   A    
C32   H2    S    
C26   O6    A    
C27   S1    S    
C1    C38   S    
C13   H7    S    
S2    O13   D    
C28   C33   S    
C13   C15   A    
S3    O17   S    
O4    Zn2   S    
C39   S5    S    
C3    C4    A    
S6    O26   S    
S5    O23   S    
C7    C9    A    
C3    C41   A    
C16   C22   A    
C28   S2    S    
C24   Br8   S    
C3    C5    A    
C11   C17   A    
O5    Zn1   S    
C5    C35   A    
C36   C38   A    
C5    C10   A    
C37   C39   A    
N2    Zn2   S    
C38   C40   A    
C2    C37   S    
S6    O24   D    
C14   H8    S    
C4    C42   A    
C36   Br2   S    
S2    O14   S    
O3    Zn1   S    
C28   C30   S    
C17   C19   A    
C6    C36   A    
C14   C16   A    
C7    C41   A    
C8    H4    S    
C11   N1    A    
S1    O9    D    
C30   S4    S    
C15   C21   A    
O14   H10   S    
O23   H13   S    
C8    C10   A    
C21   C24   A    
C12   C18   A    
C22   C23   A    
C40   S6    S    
