data_mof_unit_15756.cif
_audit_creation_date              2012-12-10T17:29:17-0500
_audit_creation_method            fapswitch 2.2
_symmetry_space_group_name_H-M    P1
_symmetry_Int_Tables_number       1
_space_group_crystal_system       triclinic
_cell_length_a                    12.079376
_cell_length_b                    12.894736
_cell_length_c                    13.133381
_cell_angle_alpha                 86.480506
_cell_angle_beta                  113.501711
_cell_angle_gamma                 93.250812
_cell_volume                      1871.26989868

loop_
_atom_site_label
_atom_site_type_symbol
_atom_type_description
_atom_site_fract_x
_atom_site_fract_y
_atom_site_fract_z
_atom_type_partial_charge
C1    C     C_R   0.477696 0.299647 0.498444 0.897551
C2    C     C_R   0.561523 0.521733 0.988164 0.090678
C3    C     C_R   0.539354 0.550036 0.876766 0.079993
C4    C     C_R   0.471156 0.539529 0.027068 0.093270
C5    C     C_R   0.371264 0.600962 0.962272 0.165033
C6    C     C_R   0.361466 0.642526 0.858783 -0.234998
C7    C     C_R   0.444467 0.617403 0.816296 -0.189307
C8    C     C_R   0.476071 0.495241 0.127800 -0.218744
C9    C     C_R   0.297053 0.583300 0.108898 -0.156440
C10   C     C_R   0.611917 0.508671 0.828613 -0.128689
C11   C     C_R   0.535877 0.811602 0.504033 -0.064997
C12   C     C_R   0.567290 0.501505 0.708268 0.863423
C13   C     C_R   0.464950 0.188278 0.498432 -0.058165
C14   C     C_R   0.353212 0.029591 0.505561 -0.193353
C15   C     C_R   0.361365 0.137124 0.502653 -0.197688
C16   C     C_R   0.559804 0.132594 0.496281 -0.232736
C17   C     C_R   0.552770 0.025830 0.499772 0.170821
C18   C     C_R   0.448657 0.973970 0.504329 0.174610
C19   C     C_R   0.441274 0.867177 0.506935 -0.241125
C20   C     C_R   0.640015 0.862815 0.501167 -0.164668
C21   C     C_R   0.648385 0.970279 0.498879 -0.197922
C22   C     C_R   0.008512 0.600073 0.395832 -0.293465
C23   C     C_R   0.522498 0.700326 0.502153 0.911503
C24   C     C_R   0.127580 0.590460 0.406008 0.501427
C25   C     C_R   0.158901 0.456959 0.545453 -0.087385
C26   C     C_R   0.038545 0.464238 0.537408 0.000721
C27   C     C_R   0.961894 0.536936 0.461751 -0.029502
C28   C     C_R   0.841303 0.544403 0.454447 0.308012
C29   C     C_R   0.874039 0.409601 0.593817 0.360267
C30   C     C_R   0.993483 0.400803 0.603394 -0.319932
C31   C     C_R   0.433539 0.505060 0.291439 0.904228
C32   C     C_R   0.283626 0.620880 0.002932 -0.185037
C33   C     C_R   0.395870 0.522867 0.172365 -0.068720
C34   C     C_R   0.720821 0.462517 0.896496 -0.159291
C35   C     C_R   0.752898 0.450058 0.010296 -0.131876
C36   C     C_R   0.672935 0.476622 0.055930 -0.167599
H1    H     H_    0.233799 0.605102 0.142596 0.211414
H2    H     H_    0.714025 0.820199 0.499729 0.197777
H3    H     H_    0.273038 0.990108 0.508986 0.151542
H4    H     H_    0.728758 0.009776 0.495905 0.154635
H5    H     H_    0.287607 0.179910 0.504503 0.165959
H6    H     H_    0.639819 0.171966 0.492227 0.184313
H7    H     H_    0.954082 0.657162 0.335695 0.222852
H8    H     H_    0.050897 0.344375 0.662723 0.183847
H9    H     H_    0.288251 0.692648 0.809630 0.153707
H10   H     H_    0.218232 0.401068 0.603737 0.148878
H11   H     H_    0.207490 0.668364 0.954563 0.151298
H12   H     H_    0.544818 0.441212 0.175585 0.150373
H13   H     H_    0.779669 0.433548 0.861421 0.201459
H14   H     H_    0.701839 0.463732 0.144623 0.153749
H15   H     H_    0.837654 0.415521 0.062698 0.158144
H16   H     H_    0.434393 0.652455 0.736251 0.168801
H17   H     H_    0.361039 0.827720 0.510440 0.185225
N1    N     N_R   0.798200 0.480260 0.519790 -0.138542
N2    N     N_R   0.201820 0.519740 0.480210 -0.128662
O1    O     O_R   0.579910 0.341070 0.505280 -0.590079
O2    O     O_R   0.388440 0.353740 0.492580 -0.631773
O3    O     O_R   0.643280 0.490550 0.663120 -0.579344
O4    O     O_R   0.451810 0.503220 0.650420 -0.627403
O5    O     O_R   0.611560 0.646260 0.507420 -0.591434
O6    O     O_R   0.420090 0.658930 0.494720 -0.591723
O7    O     O_R   0.548190 0.496780 0.349580 -0.584248
O8    O     O_R   0.356720 0.509450 0.336880 -0.579606
Zn1   Zn    Zn3+2 0.627850 0.491540 0.508480 1.016354
Zn2   Zn    Zn3+2 0.372150 0.508460 0.491520 0.987249
Br1   Br    Br    0.739363 0.647393 0.353367 -0.528482
Br2   Br    Br    0.823603 0.319890 0.689724 -0.537209
Cl1   Cl    Cl    0.177822 0.671932 0.320171 -0.638970

loop_
_geom_bond_atom_site_label_1
_geom_bond_atom_site_label_2
_ccdc_geom_bond_type
C2    C4    A    
C8    H12   S    
C29   C30   A    
C6    H9    S    
C1    O2    A    
C31   O8    A    
C20   H2    S    
C14   C18   A    
C28   Br1   S    
C22   H7    S    
C9    C32   A    
O5    Zn1   S    
C4    C8    A    
C5    C32   A    
C12   O3    A    
O8    Zn2   S    
C19   H17   S    
O1    Zn1   S    
C2    C3    A    
C14   H3    S    
C10   C34   A    
C3    C10   A    
C16   H6    S    
O4    Zn2   S    
C24   N2    A    
C9    C33   A    
C23   O5    A    
C31   O7    A    
C30   H8    S    
C26   C27   A    
C6    C7    A    
C21   H4    S    
N1    Zn1   S    
C10   C12   S    
C11   C23   S    
N2    Zn2   S    
C1    O1    A    
C7    H16   S    
C26   C30   A    
C3    C7    A    
C8    C33   A    
C13   C15   A    
C35   H15   S    
C5    C6    A    
C32   H11   S    
C22   C24   A    
C11   C20   A    
C1    C13   S    
C31   C33   S    
C24   Cl1   S    
O6    Zn2   S    
C23   O6    A    
C36   H14   S    
C20   C21   A    
C15   H5    S    
C17   C18   A    
C34   C35   A    
C29   N1    A    
C13   C16   A    
C2    C36   A    
C27   C28   A    
C22   C27   A    
C18   C19   A    
C28   N1    A    
C14   C15   A    
C11   C19   A    
C34   H13   S    
O7    Zn1   S    
O3    Zn1   S    
C25   C26   A    
C29   Br2   S    
C12   O4    A    
C25   H10   S    
C17   C21   A    
C9    H1    S    
C25   N2    A    
C16   C17   A    
O2    Zn2   S    
C4    C5    A    
C35   C36   A    
