data_mof_unit_59787.cif
_audit_creation_date              2013-03-05T15:50:48-0500
_audit_creation_method            fapswitch 2.2
_symmetry_space_group_name_H-M    P1
_symmetry_Int_Tables_number       1
_space_group_crystal_system       triclinic
_cell_length_a                    14.276993
_cell_length_b                    14.804819
_cell_length_c                    32.950026
_cell_angle_alpha                 98.171073
_cell_angle_beta                  90.443065
_cell_angle_gamma                 118.488071
_cell_volume                      6036.27621869

loop_
_atom_site_label
_atom_site_type_symbol
_atom_site_description
_atom_site_fract_x
_atom_site_fract_y
_atom_site_fract_z
_atom_type_partial_charge
O1    O     O_R   0.318160 0.824460 0.443680 -0.492205
O2    O     O_R   0.525040 0.857250 0.449830 -0.498659
C1    C     C_R   0.617656 0.908414 0.437337 0.575955
O3    O     O_R   0.684760 0.998800 0.456360 -0.451779
O4    O     O_R   0.647540 0.166310 0.470260 -0.471868
C2    C     C_R   0.595139 0.207561 0.457118 0.550771
O5    O     O_R   0.500960 0.181750 0.467450 -0.450916
O6    O     O_R   0.331100 0.981120 0.457080 -0.457874
C3    C     C_R   0.294038 0.891933 0.434370 0.568124
O7    O     O_R   0.315560 0.821140 0.532010 -0.457930
O8    O     O_R   0.522630 0.854180 0.531710 -0.437150
C4    C     C_R   0.615475 0.904858 0.551328 0.592286
O9    O     O_R   0.682160 0.995480 0.544690 -0.498859
O10   O     O_R   0.645130 0.163230 0.552140 -0.478002
C5    C     C_R   0.589437 0.198691 0.571677 0.561007
O11   O     O_R   0.498360 0.178430 0.555780 -0.473842
O12   O     O_R   0.328690 0.978040 0.538950 -0.502121
C6    C     C_R   0.288375 0.887064 0.548581 0.567140
Cr1   Cr    Cr6+3 0.424820 0.846020 0.489780 1.098790
Cr2   Cr    Cr6+3 0.657880 0.078580 0.505700 1.071861
Cr3   Cr    Cr6+3 0.417280 0.075360 0.504550 1.117777
O13   O     O_3   0.499990 0.999990 0.500010 -0.287217
C7    C     C_R   0.729301 0.433586 0.102988 -0.033538
C8    C     C_R   0.638615 0.410891 0.126010 0.154176
C9    C     C_R   0.632430 0.373672 0.163476 0.262894
C10   C     C_R   0.717358 0.361382 0.178259 0.002561
C11   C     C_R   0.803767 0.378816 0.155080 -0.162070
C12   C     C_R   0.810780 0.414549 0.117583 0.191398
C13   C     C_R   0.673467 0.255476 0.234597 0.301721
C14   C     C_R   0.667316 0.253027 0.277205 0.258736
C15   C     C_R   0.715113 0.347320 0.305859 0.055933
C16   C     C_R   0.771389 0.444372 0.292314 0.200369
C17   C     C_R   0.774923 0.445206 0.250040 -0.144655
C18   C     C_R   0.726026 0.352593 0.221620 0.000734
C19   C     C_R   0.607510 0.339812 0.365766 0.203255
C20   C     C_R   0.578852 0.308644 0.404164 0.140224
C21   C     C_R   0.743908 0.299165 0.412991 0.198041
C22   C     C_R   0.771871 0.328365 0.373924 0.261336
C23   C     C_R   0.698848 0.340757 0.349628 0.034320
C24   C     C_R   0.640793 0.276046 0.425462 -0.087626
H1    H     H_    0.814154 0.518906 0.238831 0.162175
H2    H     H_    0.870337 0.372659 0.167746 0.131819
C25   C     C_R   0.244847 0.878053 0.392337 -0.059419
C26   C     C_R   0.206698 0.946032 0.383246 0.157789
C27   C     C_R   0.194598 0.958466 0.342008 0.185330
C28   C     C_R   0.223144 0.903335 0.310333 -0.071506
C29   C     C_R   0.257417 0.832862 0.319298 0.151378
C30   C     C_R   0.256947 0.812424 0.359745 0.215748
C31   C     C_R   0.176448 0.796245 0.165325 0.100826
C32   C     C_R   0.163667 0.777763 0.122242 0.369913
C33   C     C_R   0.143490 0.932670 0.123052 0.111911
C34   C     C_R   0.169334 0.956534 0.165897 -0.214034
C35   C     C_R   0.180917 0.886710 0.187014 -0.065849
C36   C     C_1   0.197470 0.905631 0.231112 0.102187
C37   C     C_1   0.210057 0.910369 0.267645 0.133025
C38   C     C_R   0.129872 0.836529 0.101387 0.082421
H3    H     H_    0.177952 0.028327 0.182965 0.154266
C39   C     C_R   0.639623 0.868347 0.396699 -0.076113
C40   C     C_R   0.552414 0.791418 0.369768 -0.151864
C41   C     C_R   0.563697 0.768567 0.328038 0.238670
C42   C     C_R   0.661835 0.827658 0.312529 -0.017790
C43   C     C_R   0.753180 0.893528 0.339803 0.163514
C44   C     C_R   0.742824 0.913680 0.382290 0.177711
C45   C     C_R   0.770784 0.915703 0.175681 0.229574
C46   C     C_R   0.783644 0.911462 0.133300 0.215003
C47   C     C_R   0.605811 0.760864 0.118149 0.138381
C48   C     C_R   0.591294 0.767238 0.160640 0.169990
C49   C     C_R   0.677402 0.839324 0.189319 -0.059238
C50   C     C_1   0.671070 0.834664 0.232741 0.111591
C51   C     C_1   0.666705 0.829462 0.268913 0.119701
C52   C     C_R   0.707781 0.824860 0.105214 -0.089419
H4    H     H_    0.473493 0.752085 0.380462 0.204602
C53   C     C_R   0.622337 0.248401 0.615996 -0.075892
C54   C     C_R   0.562127 0.289569 0.638051 0.187763
C55   C     C_R   0.567734 0.302541 0.681617 0.178854
C56   C     C_R   0.638562 0.279923 0.702938 -0.057740
C57   C     C_R   0.710615 0.256004 0.681344 0.258226
C58   C     C_R   0.702445 0.239734 0.638185 0.235449
C59   C     C_R   0.733814 0.290848 0.848716 0.198712
C60   C     C_R   0.753584 0.331900 0.891321 0.222337
C61   C     C_R   0.574645 0.311727 0.891814 0.250413
C62   C     C_R   0.557637 0.279105 0.849120 0.260298
C63   C     C_R   0.640608 0.276301 0.827152 -0.054089
C64   C     C_1   0.636995 0.274435 0.783141 0.157672
C65   C     C_1   0.636743 0.277023 0.746676 0.155906
C66   C     C_R   0.678524 0.354568 0.911677 -0.068625
C67   C     C_R   0.076827 0.762246 0.909520 -0.028495
C68   C     C_R   0.127959 0.868437 0.904373 0.174476
C69   C     C_R   0.145824 0.893757 0.864841 -0.104999
C70   C     C_R   0.118160 0.816030 0.830640 0.020479
C71   C     C_R   0.076976 0.711344 0.835610 0.262255
C72   C     C_R   0.056043 0.684525 0.875072 0.156422
C73   C     C_R   0.222425 0.845151 0.769464 0.181598
C74   C     C_R   0.228435 0.853413 0.727508 0.179909
C75   C     C_R   0.142503 0.852294 0.705301 -0.019590
C76   C     C_R   0.060418 0.858722 0.726048 -0.104799
C77   C     C_R   0.059433 0.860308 0.768728 0.267774
C78   C     C_R   0.135564 0.844466 0.789410 0.008962
C79   C     C_R   0.158896 0.931268 0.642440 0.230011
C80   C     C_R   0.197429 0.939622 0.603557 -0.146638
C81   C     C_R   0.179488 0.766170 0.597166 0.255492
C82   C     C_R   0.142714 0.757974 0.636913 0.269250
C83   C     C_R   0.139976 0.844072 0.660207 0.057778
C84   C     C_R   0.218367 0.862496 0.582756 -0.045093
H5    H     H_    0.181761 0.974502 0.860635 0.147401
H6    H     H_    0.996665 0.860992 0.708981 0.184261
H7    H     H_    0.216362 0.009170 0.590703 0.161765
C85   C     C_R   0.653486 0.752566 0.915697 -0.003433
C86   C     C_R   0.581770 0.665093 0.886972 0.248593
C87   C     C_R   0.565127 0.677327 0.846467 0.319441
C88   C     C_R   0.618847 0.778041 0.835762 -0.033526
C89   C     C_R   0.668960 0.865260 0.866775 -0.157922
C90   C     C_R   0.684583 0.853035 0.907052 0.218970
C91   C     C_R   0.605877 0.860478 0.777615 -0.127785
C92   C     C_R   0.621766 0.880616 0.737363 0.222436
C93   C     C_R   0.665910 0.828229 0.711233 -0.001240
C94   C     C_R   0.703379 0.766199 0.727037 0.228964
C95   C     C_R   0.688965 0.749482 0.768106 0.255247
C96   C     C_R   0.635763 0.793698 0.792719 -0.084790
C97   C     C_R   0.574584 0.755775 0.640017 0.221208
C98   C     C_R   0.564392 0.771940 0.599335 0.202770
C99   C     C_R   0.734377 0.932930 0.612716 -0.123229
C100  C     C_R   0.746625 0.914872 0.652171 -0.101675
C101  C     C_R   0.664334 0.830728 0.666821 0.022172
C102  C     C_R   0.640292 0.866109 0.586919 -0.015887
H8    H     H_    0.816197 0.971485 0.672524 0.147169
H9    H     H_    0.568759 0.896498 0.797607 0.206654
H10   H     H_    0.704737 0.943119 0.859181 0.136238
H11   H     H_    0.795457 0.003917 0.603667 0.173931
O14   O     O_R   0.828710 0.851830 0.052170 -0.477297
O15   O     O_R   0.005980 0.823990 0.047210 -0.495083
C103  C     C_R   0.057031 0.783369 0.062742 0.712893
O16   O     O_R   0.031900 0.688850 0.050170 -0.282561
O17   O     O_R   0.830940 0.518420 0.048680 -0.496240
C104  C     C_R   0.743310 0.485587 0.066233 0.538541
O18   O     O_R   0.668160 0.499860 0.053480 -0.459008
O19   O     O_R   0.689170 0.693840 0.050110 -0.474433
C105  C     C_R   0.741091 0.790421 0.065887 0.553874
O20   O     O_R   0.803860 0.812940 0.962540 -0.457342
O21   O     O_R   0.982950 0.787950 0.964120 -0.470971
C106  C     C_R   0.022969 0.732931 0.947519 0.637310
O22   O     O_R   0.007050 0.649970 0.960540 -0.386747
O23   O     O_R   0.807910 0.482370 0.965590 -0.469855
C107  C     C_R   0.710449 0.433054 0.950199 0.567467
O24   O     O_R   0.643310 0.460980 0.963840 -0.463542
O25   O     O_R   0.666140 0.657800 0.967020 -0.470819
C108  C     C_R   0.708552 0.741389 0.951244 0.593594
Cr4   Cr    Cr6+3 0.903360 0.812540 0.006510 1.149671
Cr5   Cr    Cr6+3 0.914630 0.587050 0.006280 1.227467
Cr6   Cr    Cr6+3 0.673560 0.582680 0.008540 1.115271
O26   O     O_3   0.830520 0.660760 0.007110 -0.336213
N1    N     N_R   0.559449 0.438197 0.114689 0.093771
O27   O     O_R   0.487395 0.380582 0.084258 -0.324139
O28   O     O_R   0.548873 0.509765 0.138789 -0.256577
N2    N     N_R   0.485874 0.307974 0.420757 0.136874
O29   O     O_R   0.395941 0.266092 0.397936 -0.201865
O30   O     O_R   0.493839 0.358346 0.457475 -0.312669
O31   O     O_3   0.812347 0.282439 0.436798 -0.545905
C109  C     C_3   0.858184 0.362966 0.471064 0.002344
H12   H     H_    0.796635 0.373102 0.488708 0.125945
H13   H     H_    0.913306 0.437811 0.460920 0.136647
C110  C     C_3   0.920202 0.334548 0.499684 -0.355489
H14   H     H_    0.987473 0.330976 0.484219 0.169460
H15   H     H_    0.952103 0.393373 0.528137 0.061251
H16   H     H_    0.866397 0.257217 0.508090 0.184301
N3    N     N_R   0.183894 0.697984 0.100951 1.411326
O32   O     O_R   0.231764 0.710065 0.067126 -1.550493
O33   O     O_R   0.231764 0.710065 0.067126 -1.550493
O34   O     O_3   0.186310 0.726604 0.186690 -0.493774
C111  C     C_3   0.085060 0.636417 0.184606 -0.017248
H17   H     H_    0.072436 0.581898 0.155654 0.149094
H18   H     H_    0.017528 0.654606 0.186109 0.105693
C112  C     C_3   0.081085 0.581358 0.220639 -0.294838
H19   H     H_    0.089081 0.632661 0.249990 0.186232
H20   H     H_    0.003314 0.508911 0.218490 0.073251
H21   H     H_    0.146390 0.560770 0.220335 0.213564
N4    N     N_R   0.299691 0.787471 0.287916 0.120058
O35   O     O_R   0.280298 0.691712 0.285612 -0.310674
O36   O     O_R   0.366858 0.845242 0.263979 -0.303984
O37   O     O_3   0.280430 0.735867 0.367910 -0.515447
C113  C     C_3   0.185244 0.638201 0.361868 0.040017
H22   H     H_    0.207238 0.576922 0.350955 0.154363
H23   H     H_    0.125194 0.630827 0.337861 0.156089
C114  C     C_3   0.133381 0.614653 0.402051 -0.362758
H24   H     H_    0.106505 0.671941 0.413557 0.175198
H25   H     H_    0.062704 0.535570 0.396903 0.149322
H26   H     H_    0.191328 0.617306 0.425447 0.156185
N5    N     N_R   0.172255 0.995595 0.415756 0.131567
O38   O     O_R   0.089306 0.938749 0.434320 -0.272724
O39   O     O_R   0.234490 0.092455 0.432027 -0.216433
N6    N     N_R   0.134690 0.007583 0.102146 0.101441
O40   O     O_R   0.167502 0.019295 0.065559 -0.245564
O41   O     O_R   0.114372 0.077515 0.122348 -0.358340
O42   O     O_3   0.906495 0.449799 0.099606 -0.562322
C115  C     C_3   0.915782 0.364067 0.079703 -0.055667
H27   H     H_    0.850503 0.317783 0.054552 0.122016
H28   H     H_    0.913799 0.312995 0.101800 0.121851
C116  C     C_3   0.022613 0.404766 0.060973 -0.242103
H29   H     H_    0.089164 0.446287 0.085720 0.235614
H30   H     H_    0.029712 0.339098 0.043189 0.080068
H31   H     H_    0.029083 0.459783 0.040100 0.261693
N7    N     N_R   0.155935 0.027981 0.332560 0.134238
O43   O     O_R   0.180750 0.114168 0.357373 -0.196641
O44   O     O_R   0.099880 0.008487 0.298055 -0.325395
O45   O     O_3   0.875101 0.987985 0.120179 -0.496869
C117  C     C_3   0.848094 0.054659 0.102249 0.027140
H32   H     H_    0.835566 0.107014 0.126709 0.150405
H33   H     H_    0.774443 0.010674 0.080586 0.120842
C118  C     C_3   0.938854 0.120658 0.077838 -0.304735
H34   H     H_    0.960996 0.070247 0.056425 0.223567
H35   H     H_    0.912851 0.163075 0.059410 0.045547
H36   H     H_    0.009742 0.177906 0.099025 0.190819
O46   O     O_3   0.843587 0.000906 0.203465 -0.542543
C119  C     C_3   0.937285 0.993519 0.210353 0.037637
H37   H     H_    0.962136 0.963081 0.181966 0.167547
H38   H     H_    0.924446 0.941323 0.233260 0.201868
C120  C     C_3   0.028311 0.101768 0.227298 -0.297608
H39   H     H_    0.007518 0.134373 0.256097 0.197783
H40   H     H_    0.102488 0.098058 0.234021 0.136579
H41   H     H_    0.043324 0.154274 0.204325 0.167840
N8    N     N_R   0.856204 0.937128 0.324297 0.127417
O47   O     O_R   0.905262 0.034885 0.320261 -0.323285
O48   O     O_R   0.889002 0.874759 0.306068 -0.268127
N9    N     N_R   0.836072 0.978164 0.410490 0.135211
O49   O     O_R   0.849759 0.945821 0.443617 -0.265883
O50   O     O_R   0.905463 0.070725 0.404124 -0.264870
N10   N     N_R   0.488882 0.702902 0.174528 0.135052
O51   O     O_R   0.404914 0.707289 0.161738 -0.139738
O52   O     O_R   0.479821 0.642577 0.201036 -0.288453
N11   N     N_R   0.518090 0.690334 0.088145 0.183550
O53   O     O_R   0.504770 0.719909 0.054200 -0.137174
O54   O     O_R   0.450842 0.597066 0.094466 -0.137254
O55   O     O_3   0.476365 0.694035 0.301940 -0.469567
C121  C     C_3   0.459815 0.594610 0.307472 0.062321
H42   H     H_    0.451147 0.584138 0.340330 0.160065
H43   H     H_    0.527755 0.583170 0.296635 0.190685
C122  C     C_3   0.357387 0.510118 0.282698 -0.308846
H44   H     H_    0.361947 0.516086 0.249534 0.217860
H45   H     H_    0.345560 0.432255 0.286736 0.129746
H46   H     H_    0.287617 0.517491 0.293564 0.162653
O56   O     O_3   0.851352 0.361089 0.911514 -0.441736
C123  C     C_3   0.843821 0.277124 0.929408 0.005771
H47   H     H_    0.810429 0.203684 0.906563 0.137510
H48   H     H_    0.793007 0.265163 0.955715 0.085374
C124  C     C_3   0.955493 0.302675 0.945250 -0.301838
H49   H     H_    0.992103 0.376476 0.967623 0.182585
H50   H     H_    0.951745 0.239091 0.960553 0.090100
H51   H     H_    0.006549 0.311840 0.919220 0.205731
O57   O     O_3   0.872353 0.356887 0.359388 -0.567009
C125  C     C_3   0.917422 0.294098 0.367798 0.028380
H52   H     H_    0.856063 0.211868 0.368462 0.191033
H53   H     H_    0.967658 0.328456 0.397556 0.192851
C126  C     C_3   0.990849 0.294157 0.334553 -0.363884
H54   H     H_    0.053577 0.375254 0.333313 0.136534
H55   H     H_    0.030241 0.248426 0.341513 0.200287
H56   H     H_    0.944245 0.259028 0.304074 0.152134
N12   N     N_R   0.809680 0.268279 0.827143 0.074327
O58   O     O_R   0.775894 0.187641 0.798092 -0.348204
O59   O     O_R   0.911787 0.323001 0.838004 -0.247331
O60   O     O_3   0.781629 0.234982 0.701647 -0.485443
C127  C     C_3   0.869062 0.329349 0.721580 0.040703
H57   H     H_    0.849651 0.352729 0.752512 0.210727
H58   H     H_    0.891978 0.395084 0.704131 0.103720
C128  C     C_3   0.965419 0.312760 0.727020 -0.323635
H59   H     H_    0.989162 0.292635 0.696480 0.121129
H60   H     H_    0.033763 0.385030 0.743871 0.154089
H61   H     H_    0.945730 0.248515 0.744812 0.204914
O61   O     O_3   0.764390 0.201442 0.618394 -0.488510
C129  C     C_3   0.857913 0.285726 0.608097 0.000934
H62   H     H_    0.899261 0.349195 0.634877 0.115430
H63   H     H_    0.838105 0.318439 0.583055 0.113020
C130  C     C_3   0.935360 0.247136 0.593497 -0.356291
H64   H     H_    0.897504 0.183895 0.566508 0.173885
H65   H     H_    0.008738 0.312277 0.584652 0.098825
H66   H     H_    0.957990 0.216540 0.618561 0.157135
O62   O     O_3   0.484760 0.301229 0.617342 -0.506038
C131  C     C_3   0.534637 0.390151 0.597951 0.022227
H67   H     H_    0.603510 0.394204 0.581053 0.090889
H68   H     H_    0.563566 0.461792 0.621237 0.177698
C132  C     C_3   0.453347 0.387547 0.567020 -0.263231
H69   H     H_    0.426713 0.318848 0.542304 0.190658
H70   H     H_    0.382650 0.382523 0.582545 0.203658
H71   H     H_    0.490094 0.459423 0.552966 0.173125
O63   O     O_3   0.464972 0.264764 0.829030 -0.480903
C133  C     C_3   0.397445 0.157457 0.815037 0.035223
H72   H     H_    0.387903 0.110283 0.839748 0.145248
H73   H     H_    0.429068 0.129337 0.788247 0.183807
C134  C     C_3   0.287582 0.140516 0.801400 -0.354582
H74   H     H_    0.294695 0.194057 0.779808 0.192647
H75   H     H_    0.237906 0.059363 0.785508 0.079471
H76   H     H_    0.247990 0.155132 0.828507 0.151182
O64   O     O_3   0.491149 0.310344 0.913165 -0.515791
C135  C     C_3   0.453929 0.227312 0.935967 -0.020372
H77   H     H_    0.520396 0.225076 0.953051 0.108560
H78   H     H_    0.406646 0.151709 0.915010 0.158489
C136  C     C_3   0.382277 0.239777 0.967646 -0.297220
H79   H     H_    0.313960 0.241506 0.952156 0.178501
H80   H     H_    0.350884 0.173418 0.984917 0.200494
H81   H     H_    0.428691 0.313148 0.989819 0.179898
N13   N     N_R   0.499359 0.335885 0.703564 0.093692
O65   O     O_R   0.472842 0.399106 0.689518 -0.321427
O66   O     O_R   0.461635 0.302504 0.737414 -0.361411
N14   N     N_R   0.159202 0.951068 0.938911 0.082751
O67   O     O_R   0.155183 0.035380 0.934944 -0.379224
O68   O     O_R   0.199631 0.945931 0.973495 -0.237567
N15   N     N_R   0.999731 0.576895 0.878784 0.126552
O69   O     O_R   0.906949 0.517425 0.858340 -0.265430
O70   O     O_R   0.048774 0.535450 0.896023 -0.221530
O71   O     O_3   0.101435 0.665917 0.653309 -0.584250
C137  C     C_3   0.169911 0.621297 0.651242 0.054582
H82   H     H_    0.255664 0.679377 0.650524 0.244642
H83   H     H_    0.144371 0.560162 0.623460 0.176437
C138  C     C_3   0.159440 0.568589 0.688615 -0.325216
H84   H     H_    0.075844 0.505950 0.688671 0.132743
H85   H     H_    0.213447 0.533881 0.687664 0.149820
H86   H     H_    0.180809 0.626041 0.717324 0.239074
O72   O     O_3   0.603167 0.160276 0.290909 -0.569294
C139  C     C_3   0.663857 0.111623 0.299075 -0.005406
H87   H     H_    0.749697 0.167456 0.308157 0.139069
H88   H     H_    0.659474 0.057055 0.271311 0.177731
C140  C     C_3   0.617245 0.050571 0.333906 -0.349339
H89   H     H_    0.539993 0.979657 0.322799 0.195858
H90   H     H_    0.674097 0.027971 0.345815 0.104551
H91   H     H_    0.603739 0.099197 0.359536 0.156159
N16   N     N_R   0.322531 0.866371 0.707739 0.091582
O73   O     O_R   0.365542 0.936307 0.683980 -0.322072
O74   O     O_R   0.367690 0.810956 0.714292 -0.250982
N17   N     N_R   0.305102 0.839686 0.792223 0.108371
O75   O     O_R   0.365290 0.915542 0.821539 -0.382614
O76   O     O_R   0.307491 0.752212 0.788769 -0.319095
O77   O     O_3   0.980592 0.869230 0.790410 -0.486493
C141  C     C_3   0.974021 0.958231 0.783258 -0.008896
H92   H     H_    0.914277 0.936326 0.756866 0.160540
H93   H     H_    0.051937 0.022832 0.776789 0.098325
C142  C     C_3   0.938180 0.000114 0.821290 -0.345703
H94   H     H_    0.999065 0.026446 0.847710 0.176943
H95   H     H_    0.927694 0.066939 0.815433 0.130483
H96   H     H_    0.861166 0.938264 0.829100 0.194800
O78   O     O_3   0.133030 0.004327 0.662201 -0.581325
C143  C     C_3   0.226911 0.097809 0.677560 0.019012
H97   H     H_    0.278539 0.130870 0.652591 0.184145
H98   H     H_    0.273299 0.084774 0.701231 0.171432
C144  C     C_3   0.194728 0.177042 0.697471 -0.359768
H99   H     H_    0.148310 0.191271 0.674369 0.161217
H100  H     H_    0.144582 0.147355 0.723098 0.125804
H101  H     H_    0.266716 0.251904 0.709758 0.179174
N18   N     N_R   0.053329 0.631319 0.800578 0.112099
O79   O     O_R   0.995997 0.623830 0.768104 -0.335126
O80   O     O_R   0.084632 0.562315 0.801889 -0.298632
O81   O     O_3   0.192048 0.686084 0.575633 -0.517258
C145  C     C_3   0.113718 0.633768 0.542017 0.001422
H102  H     H_    0.103178 0.688150 0.524654 0.125406
H103  H     H_    0.035672 0.581449 0.553045 0.119775
C146  C     C_3   0.149075 0.569086 0.512592 -0.317055
H104  H     H_    0.152082 0.508110 0.527806 0.171518
H105  H     H_    0.092768 0.531803 0.484560 0.060987
H106  H     H_    0.229838 0.619439 0.503202 0.208876
O82   O     O_3   0.530792 0.566987 0.897709 -0.486030
C147  C     C_3   0.434827 0.554038 0.914220 0.022520
H107  H     H_    0.380151 0.556375 0.890616 0.139377
H108  H     H_    0.451101 0.615423 0.941373 0.170944
C148  C     C_3   0.377618 0.449108 0.928348 -0.289358
H109  H     H_    0.429365 0.445891 0.952751 0.199098
H110  H     H_    0.301884 0.438415 0.941097 0.133737
H111  H     H_    0.358606 0.385628 0.901968 0.202453
O83   O     O_3   0.641204 0.166071 0.205414 -0.571748
C149  C     C_3   0.531344 0.094215 0.205403 -0.001500
H112  H     H_    0.482313 0.132551 0.214410 0.141435
H113  H     H_    0.519997 0.038574 0.226560 0.211779
C150  C     C_3   0.489865 0.030453 0.162468 -0.298111
H114  H     H_    0.402782 0.976173 0.161464 0.172934
H115  H     H_    0.504064 0.082507 0.139411 0.165272
H116  H     H_    0.531729 0.984316 0.154389 0.201909
O84   O     O_3   0.739798 0.939501 0.937280 -0.530001
C151  C     C_3   0.674856 0.986253 0.947242 0.000300
H117  H     H_    0.589582 0.927408 0.948994 0.168785
H118  H     H_    0.678582 0.035101 0.923965 0.117677
C152  C     C_3   0.715558 0.055235 0.989189 -0.359834
H119  H     H_    0.801209 0.113284 0.989490 0.140106
H120  H     H_    0.668908 0.096904 0.996394 0.106570
H121  H     H_    0.706338 0.006555 0.013114 0.173998
N19   N     N_R   0.593890 0.955071 0.724430 0.153597
O85   O     O_R   0.585515 0.962977 0.685930 -0.262495
O86   O     O_R   0.573554 0.014848 0.751646 -0.274359
O87   O     O_3   0.507463 0.588918 0.817203 -0.483798
C153  C     C_3   0.414860 0.588275 0.801245 0.020611
H122  H     H_    0.435174 0.639528 0.777522 0.198452
H123  H     H_    0.374852 0.613806 0.825696 0.148182
C154  C     C_3   0.335279 0.478043 0.780837 -0.311047
H124  H     H_    0.312523 0.424422 0.803755 0.169224
H125  H     H_    0.262283 0.476512 0.767978 0.121118
H126  H     H_    0.371362 0.451002 0.755472 0.226556
O88   O     O_3   0.773169 0.740792 0.705688 -0.563794
C155  C     C_3   0.716495 0.644315 0.679120 0.029373
H127  H     H_    0.692808 0.656831 0.649155 0.132998
H128  H     H_    0.643622 0.587587 0.691974 0.217533
C156  C     C_3   0.790221 0.597005 0.671115 -0.326944
H129  H     H_    0.816719 0.583777 0.700415 0.229506
H130  H     H_    0.747763 0.521271 0.650026 0.054727
H131  H     H_    0.861820 0.650452 0.656826 0.170825
N20   N     N_R   0.732543 0.691644 0.785138 0.154949
O89   O     O_R   0.787345 0.727094 0.820886 -0.295792
O90   O     O_R   0.712687 0.600432 0.766052 -0.271617
N21   N     N_R   0.494119 0.663846 0.653935 0.081999
O91   O     O_R   0.452997 0.670490 0.688583 -0.324687
O92   O     O_R   0.460888 0.572534 0.631737 -0.345014
N22   N     N_R   0.474874 0.695320 0.571587 0.105967
O93   O     O_R   0.490602 0.656597 0.535954 -0.334151
O94   O     O_R   0.377806 0.661678 0.582258 -0.267704
O95   O     O_3   0.555505 0.369561 0.189885 -0.514718
C157  C     C_3   0.453510 0.286151 0.174399 0.033865
H132  H     H_    0.456186 0.213166 0.163101 0.112193
H133  H     H_    0.418659 0.305337 0.149020 0.225216
C158  C     C_3   0.377905 0.267114 0.208331 -0.335983
H134  H     H_    0.295475 0.208266 0.195687 0.109172
H135  H     H_    0.403038 0.238486 0.233346 0.192960
H136  H     H_    0.377721 0.340547 0.221119 0.187860
N23   N     N_R   0.820205 0.542220 0.320405 0.096733
O96   O     O_R   0.853878 0.548455 0.358020 -0.313648
O97   O     O_R   0.838732 0.627873 0.307484 -0.295111
N24   N     N_R   0.545565 0.373281 0.343741 0.120305
O98   O     O_R   0.528615 0.447851 0.361476 -0.294250
O99   O     O_R   0.505357 0.329313 0.306157 -0.346758

loop_
_geom_bond_atom_site_label_1
_geom_bond_atom_site_label_2
_geom_bond_distance
_ccdc_geom_bond_type
C79   C83   1.402424 A    
C157  H133  1.106101 S    
C135  H77   1.116005 S    
Cr4   O26   1.978622 S    
C91   C92   1.397152 A    
N14   O68   1.301467 A    
C26   C27   1.416971 A    
C81   C82   1.414444 A    
O63   C133  1.410578 S    
C110  H14   1.110515 S    
C156  H130  1.109560 S    
O4    C2    1.275220 A    
C22   O57   1.398554 S    
C125  H53   1.110814 S    
O23   C107  1.281045 A    
C80   C84   1.403288 A    
C85   C86   1.411738 A    
C43   N8    1.428570 S    
C55   N13   1.445237 S    
C87   C88   1.413743 A    
C60   C66   1.414606 A    
C158  H136  1.109959 S    
O25   Cr6   1.913731 S    
C130  H64   1.110285 S    
C57   O60   1.386368 S    
C28   C37   1.442319 S    
C123  H48   1.113471 S    
C109  H13   1.111911 S    
C61   C66   1.414153 A    
C139  C140  1.519824 S    
C115  C116  1.521129 S    
C125  C126  1.521865 S    
C40   C41   1.397911 A    
C124  H49   1.109399 S    
C158  H135  1.107952 S    
C121  H43   1.114414 S    
C110  H15   1.108055 S    
C56   C57   1.406095 A    
C113  H23   1.117293 S    
C137  H83   1.111137 S    
N2    O29   1.300596 A    
C123  C124  1.520908 S    
N7    O43   1.299948 A    
N6    O40   1.301350 A    
C134  H76   1.110718 S    
O21   C106  1.269374 A    
C142  H95   1.110649 S    
C117  H32   1.113211 S    
C100  H8    1.083788 S    
O46   C119  1.412413 S    
O12   Cr3   1.925724 S    
C121  C122  1.521783 S    
C85   C90   1.408231 A    
C153  H123  1.115676 S    
C55   C56   1.416731 A    
C21   C22   1.415917 A    
C110  H16   1.109956 S    
N10   O51   1.301240 A    
N15   O69   1.299490 A    
C6    C84   1.478648 S    
C132  H69   1.110449 S    
N11   O54   1.300767 A    
C92   N19   1.450665 S    
C136  H79   1.110087 S    
C5    C53   1.499629 S    
C129  H63   1.111777 S    
O31   C109  1.409277 S    
C2    C24   1.490484 S    
C153  C154  1.521118 S    
O14   C105  1.279186 A    
N13   O65   1.300783 A    
C126  H55   1.110257 S    
O25   C108  1.281104 A    
O45   C117  1.413288 S    
O9    Cr2   2.033100 S    
O2    Cr1   1.916283 S    
C41   O55   1.383075 S    
C107  O24   1.274233 A    
C151  H117  1.117179 S    
C2    O5    1.274271 A    
O88   C155  1.411484 S    
C9    C10   1.402539 A    
C133  H73   1.112361 S    
C45   C46   1.406346 A    
O62   C131  1.414302 S    
O7    C6    1.270623 A    
C130  H66   1.110600 S    
C31   C35   1.397959 A    
C17   C18   1.398586 A    
C149  C150  1.522299 S    
C50   C51   1.205408 T    
C61   O64   1.382080 S    
C155  H127  1.109121 S    
C142  H94   1.110854 S    
O3    Cr2   2.020304 S    
C13   O83   1.392319 S    
O23   Cr5   1.909461 S    
C68   C69   1.398231 A    
C140  H89   1.110202 S    
C124  H51   1.110729 S    
C147  H107  1.113315 S    
C127  H57   1.109513 S    
C116  H30   1.109855 S    
C152  H119  1.108543 S    
C56   C65   1.447971 S    
C20   N2    1.435738 S    
C59   C63   1.410852 A    
O11   Cr3   2.017535 S    
C145  H102  1.115062 S    
C143  C144  1.522365 S    
C29   N4    1.443656 S    
C62   O63   1.382792 S    
C77   C78   1.406409 A    
C70   C71   1.406723 A    
C145  C146  1.522053 S    
C100  C101  1.395982 A    
O4    Cr2   1.919309 S    
C35   C36   1.435793 S    
O57   C125  1.412794 S    
C13   C14   1.411875 A    
C111  H18   1.117659 S    
C45   C49   1.404867 A    
O22   Cr5   2.034086 S    
Cr3   O13   1.968282 S    
C21   C24   1.421952 A    
Cr5   O26   1.968686 S    
C109  H12   1.114259 S    
C126  H54   1.110845 S    
C119  H38   1.110515 S    
C138  H85   1.110527 S    
C46   O45   1.382797 S    
C111  H17   1.110718 S    
C92   C93   1.422990 A    
C60   O56   1.380687 S    
N5    O39   1.300729 A    
O56   C123  1.409364 S    
N16   O74   1.299296 A    
O84   C151  1.413785 S    
C139  H88   1.110970 S    
C136  H81   1.110447 S    
C94   O88   1.386478 S    
C15   C16   1.412740 A    
C128  H59   1.110302 S    
N4    O36   1.301638 A    
C154  H126  1.110178 S    
C12   O42   1.382284 S    
C7    C8    1.427326 A    
O55   C121  1.414534 S    
O24   Cr6   2.023770 S    
C47   C48   1.413401 A    
C112  H19   1.109961 S    
C122  H44   1.108692 S    
N3    O33   1.301173 A    
O81   C145  1.409996 S    
C19   N24   1.436892 S    
C75   C83   1.472250 S    
O12   C6    1.277048 A    
N23   O97   1.301709 A    
C112  H20   1.108778 S    
O20   Cr4   2.023789 S    
C3    C25   1.489980 S    
C59   N12   1.442139 S    
C45   O46   1.384165 S    
O15   Cr4   1.908349 S    
C141  H92   1.110605 S    
C71   C72   1.406159 A    
C27   N7    1.446081 S    
C120  H39   1.110178 S    
O17   Cr5   1.919128 S    
C32   C38   1.423787 A    
C115  H27   1.114600 S    
C134  H75   1.106005 S    
C98   C102  1.418825 A    
N8    O47   1.300766 A    
C63   C64   1.446540 S    
C48   N10   1.435334 S    
C140  H91   1.109406 S    
C118  H34   1.110668 S    
C7    C12   1.416515 A    
O95   C157  1.414123 S    
C77   O77   1.386477 S    
N10   O52   1.300204 A    
N4    O35   1.298816 A    
C144  H100  1.110619 S    
C71   N18   1.440037 S    
O19   Cr6   1.907567 S    
C1    O3    1.276984 A    
C150  H114  1.109657 S    
C30   O37   1.384613 S    
C33   N6    1.438423 S    
C97   C98   1.413069 A    
C151  C152  1.520263 S    
C36   C37   1.202852 T    
N17   O75   1.300354 A    
C127  C128  1.521836 S    
O17   C104  1.283347 A    
C114  H26   1.109423 S    
C99   C102  1.407548 A    
C131  H68   1.109107 S    
C94   C95   1.409152 A    
C11   H2    1.083103 S    
C72   N15   1.426609 S    
C128  H61   1.110554 S    
C111  C112  1.519661 S    
C147  C148  1.515963 S    
N22   O94   1.300432 A    
C42   C43   1.406749 A    
C4    O9    1.273734 A    
C130  H65   1.110550 S    
C146  H104  1.110562 S    
C122  H46   1.109258 S    
C69   H5    1.083773 S    
Cr6   O26   1.976401 S    
C129  H62   1.112283 S    
C148  H111  1.110524 S    
C115  H28   1.113126 S    
C42   C51   1.442775 S    
C67   C68   1.419921 A    
N19   O85   1.300174 A    
N2    O30   1.301301 A    
C53   C54   1.422008 A    
C19   C20   1.405315 A    
C141  C142  1.519335 S    
N9    O49   1.301324 A    
C66   C107  1.495199 S    
C104  O18   1.267639 A    
C113  H22   1.109836 S    
C34   C35   1.394935 A    
C120  H41   1.110847 S    
O8    Cr1   1.906621 S    
C10   C11   1.392395 A    
N24   O98   1.300978 A    
N7    O44   1.299485 A    
C143  H98   1.113959 S    
C97   N21   1.440960 S    
C135  C136  1.520497 S    
C14   C15   1.418620 A    
C117  H33   1.114586 S    
C39   C44   1.415924 A    
C118  H36   1.110218 S    
O83   C149  1.414199 S    
C8    N1    1.432588 S    
C9    O95   1.390372 S    
C88   C89   1.398514 A    
C49   C50   1.443639 S    
C32   N3    1.436506 S    
N15   O70   1.300833 A    
C99   H11   1.082901 S    
C40   H4    1.082304 S    
C136  H80   1.110291 S    
O42   C115  1.408522 S    
C67   C72   1.413582 A    
C157  C158  1.520728 S    
N13   O66   1.300159 A    
N20   O89   1.301280 A    
C52   C105  1.489380 S    
O1    Cr1   2.022580 S    
C90   O84   1.383812 S    
O10   Cr2   1.903167 S    
O1    C3    1.274434 A    
C64   C65   1.207596 T    
C156  H131  1.111051 S    
N18   O79   1.301302 A    
O60   C127  1.415714 S    
C4    C102  1.486148 S    
C39   C40   1.406321 A    
O5    Cr3   2.043862 S    
C13   C18   1.401316 A    
C33   C34   1.407052 A    
N9    O50   1.301208 A    
C41   C42   1.399458 A    
C19   C23   1.406723 A    
O77   C141  1.416460 S    
N6    O41   1.301048 A    
C43   C44   1.413242 A    
C126  H56   1.110331 S    
O78   C143  1.410276 S    
O7    Cr1   2.033798 S    
C74   N16   1.438427 S    
C123  H47   1.115076 S    
C109  C110  1.518397 S    
C137  H82   1.113906 S    
C149  H113  1.108342 S    
C143  H97   1.113292 S    
C38   C103  1.495397 S    
C155  H128  1.114259 S    
Cr2   O13   1.974778 S    
C81   C84   1.417283 A    
C124  H50   1.109302 S    
C158  H134  1.108488 S    
C121  H42   1.114899 S    
C152  H120  1.110536 S    
O15   C103  1.286342 A    
C73   N17   1.434184 S    
O37   C113  1.420087 S    
C87   O87   1.386267 S    
O87   C153  1.414321 S    
C113  C114  1.524119 S    
C28   C29   1.409835 A    
C93   C101  1.469345 S    
N21   O92   1.299725 A    
C155  C156  1.524200 S    
C142  H96   1.106610 S    
C150  H115  1.109933 S    
C145  H103  1.111993 S    
C86   O82   1.380619 S    
C7    C104  1.490422 S    
C17   H1    1.084176 S    
C16   C17   1.395800 A    
C152  H121  1.109409 S    
C153  H122  1.110440 S    
C125  H52   1.113763 S    
N11   O53   1.301624 A    
C79   O78   1.383764 S    
C86   C87   1.405474 A    
C31   O34   1.386242 S    
C91   H9    1.083619 S    
C138  H84   1.108660 S    
C22   C23   1.404548 A    
C148  H110  1.110529 S    
C114  H25   1.109801 S    
N16   O73   1.301277 A    
C89   H10   1.083748 S    
C150  H116  1.111247 S    
C34   H3    1.079544 S    
C1    C39   1.483696 S    
O61   C129  1.411709 S    
C128  H60   1.109944 S    
C62   C63   1.407313 A    
C148  H109  1.108987 S    
C129  C130  1.520915 S    
C157  H132  1.110340 S    
C154  H125  1.110882 S    
C69   C70   1.393225 A    
C156  H129  1.110077 S    
C137  C138  1.520683 S    
C144  H99   1.110822 S    
C73   C74   1.404752 A    
O34   C111  1.417136 S    
C75   C76   1.396443 A    
C25   C26   1.416096 A    
O21   Cr4   1.910305 S    
C61   C62   1.400315 A    
O71   C137  1.414610 S    
C114  H24   1.109771 S    
O20   C108  1.271713 A    
C133  H72   1.114402 S    
O72   C139  1.410268 S    
C88   C96   1.472690 S    
O64   C135  1.415482 S    
C132  H70   1.110479 S    
N12   O58   1.301102 A    
C133  C134  1.518832 S    
C5    O11   1.275876 A    
C93   C94   1.414546 A    
C33   C38   1.420692 A    
C95   C96   1.412852 A    
C97   C101  1.414487 A    
C10   C18   1.462547 S    
C95   N20   1.440384 S    
C47   C52   1.416796 A    
O6    C3    1.276671 A    
C140  H90   1.102829 S    
C81   O81   1.380941 S    
N22   O93   1.301198 A    
C116  H29   1.110823 S    
C25   C30   1.411939 A    
C57   C58   1.402569 A    
C135  H78   1.112491 S    
C85   C108  1.477241 S    
N24   O99   1.300094 A    
N14   O67   1.301164 A    
C82   C83   1.409003 A    
C68   N14   1.437528 S    
C48   C49   1.409629 A    
C132  H71   1.110539 S    
C89   C90   1.394968 A    
N20   O90   1.300021 A    
C151  H118  1.111597 S    
C54   C55   1.417426 A    
O14   Cr4   2.026126 S    
C29   C30   1.407331 A    
C20   C24   1.414661 A    
Cr1   O13   1.975796 S    
O16   Cr5   2.025309 S    
C8    C9    1.408551 A    
N17   O76   1.300596 A    
C14   O72   1.382452 S    
C127  H58   1.114867 S    
C119  H37   1.114314 S    
C103  O16   1.269825 A    
C138  H86   1.109337 S    
C46   C52   1.412753 A    
C82   O71   1.394506 S    
C67   C106  1.482648 S    
N5    O38   1.300648 A    
N12   O59   1.300932 A    
C58   O61   1.382350 S    
C21   O31   1.380431 S    
C139  H87   1.110139 S    
N18   O80   1.301145 A    
C149  H112  1.111100 S    
C79   C80   1.396590 A    
C53   C58   1.418732 A    
C76   C77   1.403461 A    
C116  H31   1.110607 S    
O6    Cr3   1.902444 S    
C74   C75   1.415676 A    
C147  H108  1.115614 S    
N1    O27   1.301948 A    
C26   N5    1.434109 S    
N1    O28   1.300511 A    
C31   C32   1.400498 A    
C146  H105  1.106508 S    
C122  H45   1.110540 S    
N3    O32   1.301173 A    
C131  C132  1.521508 S    
N23   O96   1.300666 A    
C112  H21   1.110253 S    
N21   O91   1.300497 A    
C76   H6    1.082799 S    
C80   H7    1.082963 S    
N19   O86   1.302010 A    
O10   C5    1.277629 A    
C44   N9    1.436479 S    
C91   C96   1.395061 A    
C119  C120  1.522042 S    
C16   N23   1.444553 S    
O18   Cr6   2.032175 S    
O8    C4    1.279840 A    
C120  H40   1.108585 S    
C146  H106  1.109994 S    
O19   C105  1.279025 A    
C47   N11   1.440868 S    
C134  H74   1.108781 S    
O2    C1    1.277977 A    
N8    O48   1.300695 A    
C106  O22   1.276434 A    
C117  C118  1.520679 S    
C154  H124  1.110937 S    
C54   O62   1.385375 S    
C118  H35   1.108251 S    
C15   C23   1.472001 S    
O82   C147  1.414388 S    
C59   C60   1.416838 A    
C27   C28   1.415421 A    
C141  H93   1.115485 S    
C144  H101  1.108139 S    
C11   C12   1.397702 A    
C99   C100  1.389956 A    
C131  H67   1.114539 S    
C73   C78   1.404439 A    
C70   C78   1.467161 S    
C98   N22   1.435346 S    
