data_mof_unit_31007.cif
_audit_creation_date              2012-12-10T17:43:37-0500
_audit_creation_method            fapswitch 2.2
_symmetry_space_group_name_H-M    P1
_symmetry_Int_Tables_number       1
_space_group_crystal_system       triclinic
_cell_length_a                    14.939098
_cell_length_b                    10.718507
_cell_length_c                    9.892722
_cell_angle_alpha                 89.131841
_cell_angle_beta                  90.084024
_cell_angle_gamma                 91.606652
_cell_volume                      1583.26501439

loop_
_atom_site_label
_atom_site_type_symbol
_atom_type_description
_atom_site_fract_x
_atom_site_fract_y
_atom_site_fract_z
_atom_type_partial_charge
C1    C     C_R   0.502408 0.259239 0.502158 0.852549
C2    C     C_R   0.910142 0.612667 0.502653 0.108031
C3    C     C_R   0.951055 0.269025 0.499090 -0.261147
C4    C     C_R   0.044044 0.267118 0.491195 0.094664
C5    C     C_R   0.093186 0.381333 0.496253 0.100076
C6    C     C_R   0.047994 0.495867 0.502981 0.047387
C7    C     C_R   0.097274 0.610371 0.508773 0.152109
C8    C     C_R   0.053955 0.723144 0.513799 -0.240241
C9    C     C_R   0.961719 0.724867 0.507832 -0.222178
C10   C     C_R   0.186579 0.385057 0.495336 -0.291498
C11   C     C_R   0.232825 0.498729 0.500485 -0.028389
C12   C     C_R   0.327454 0.499975 0.500030 0.864873
C13   C     C_R   0.189756 0.610839 0.508237 -0.260158
C14   C     C_R   0.504169 0.103929 0.762614 -0.168137
C15   C     C_R   0.474841 0.038494 0.877990 -0.153262
C16   C     C_R   0.429084 0.924776 0.865322 -0.155054
C17   C     C_R   0.421134 0.870800 0.738631 -0.155542
C18   C     C_R   0.458682 0.931325 0.622774 0.097684
C19   C     C_R   0.487688 0.056090 0.631352 0.090838
C20   C     C_R   0.500372 0.124671 0.507743 -0.121639
C21   C     C_R   0.498438 0.063893 0.383503 -0.236902
C22   C     C_R   0.487497 0.936905 0.379858 -0.237900
C23   C     C_R   0.488969 0.738234 0.499441 0.871883
C24   C     C_R   0.472607 0.869762 0.499706 -0.132164
C25   C     C_R   0.382143 0.336729 0.142248 -0.158159
C26   C     C_R   0.324348 0.256450 0.072698 -0.219599
C27   C     C_R   0.323793 0.257488 0.932880 -0.177677
C28   C     C_R   0.381865 0.337818 0.861701 -0.151958
C29   C     C_R   0.441818 0.419875 0.928677 0.147158
C30   C     C_R   0.441892 0.419677 0.073402 0.168983
C31   C     C_R   0.555229 0.577294 0.070404 -0.123614
C32   C     C_R   0.555263 0.577187 0.927153 -0.116456
C33   C     C_R   0.672709 0.499391 0.500100 0.891014
C34   C     C_R   0.816128 0.613683 0.497111 -0.001152
C35   C     C_R   0.768357 0.498507 0.500508 -0.114441
C36   C     C_R   0.810704 0.382592 0.505007 0.018115
C37   C     C_R   0.904891 0.381951 0.502852 0.062222
C38   C     C_R   0.954072 0.496704 0.503033 -0.012056
H1    H     H_    0.542947 0.188344 0.780231 0.175110
H2    H     H_    0.486337 0.077288 0.977162 0.145206
H3    H     H_    0.402799 0.876194 0.954077 0.140935
H4    H     H_    0.385930 0.781451 0.732131 0.159555
H5    H     H_    0.494555 0.891223 0.283617 0.177178
H6    H     H_    0.600220 0.640508 0.123356 0.140540
H7    H     H_    0.377830 0.330796 0.249453 0.207179
H8    H     H_    0.279935 0.192698 0.127662 0.155141
H9    H     H_    0.278920 0.194547 0.879044 0.152170
H10   H     H_    0.378769 0.331308 0.754630 0.208219
H11   H     H_    0.600338 0.640285 0.872235 0.153219
H12   H     H_    0.915754 0.179910 0.499496 0.157517
H13   H     H_    0.224937 0.301059 0.491676 0.134153
H14   H     H_    0.228493 0.697978 0.512666 0.124318
H15   H     H_    0.932618 0.815842 0.507575 0.152011
H16   H     H_    0.508242 0.113813 0.288353 0.177156
N1    N     N_R   0.499150 0.498800 0.142780 -0.121566
N2    N     N_R   0.499120 0.498720 0.857170 -0.127979
O1    O     O_R   0.500000 0.316780 0.614690 -0.655388
O2    O     O_R   0.499990 0.316750 0.385360 -0.642394
O3    O     O_R   0.367850 0.499980 0.614680 -0.642122
O4    O     O_R   0.367840 0.499960 0.385350 -0.633355
O5    O     O_R   0.500010 0.683250 0.614640 -0.625512
O6    O     O_R   0.500000 0.683220 0.385310 -0.617584
O7    O     O_R   0.632160 0.500040 0.614650 -0.619724
O8    O     O_R   0.632150 0.500020 0.385320 -0.616854
Zn1   Zn    Zn3+2 0.500010 0.500020 0.653130 0.917350
Zn2   Zn    Zn3+2 0.499990 0.499980 0.346870 0.929548
C39   C     C_3   0.766691 0.736479 0.482705 -0.407757
C40   C     C_3   0.771428 0.785270 0.336029 -0.326319
C41   C     C_3   0.740431 0.919171 0.324121 -0.911583
H17   H     H_    0.673705 0.927927 0.371332 0.280815
H18   H     H_    0.789454 0.982571 0.374641 0.256352
H19   H     H_    0.735981 0.947256 0.215887 0.250664
H20   H     H_    0.840925 0.782195 0.296588 0.226770
H21   H     H_    0.728100 0.724597 0.271670 0.226604
H22   H     H_    0.695140 0.727194 0.511726 0.201355
H23   H     H_    0.793661 0.805842 0.555018 0.192493
C42   C     C_3   0.755350 0.260367 0.513764 -0.402594
C43   C     C_3   0.754929 0.207266 0.659050 -0.331941
C44   C     C_3   0.734281 0.067169 0.662397 -0.909249
H24   H     H_    0.674046 0.044069 0.601165 0.279295
H25   H     H_    0.792218 0.017243 0.621845 0.251860
H26   H     H_    0.722378 0.035068 0.768246 0.255455
H27   H     H_    0.820810 0.224047 0.708926 0.228920
H28   H     H_    0.703726 0.255549 0.718830 0.226779
H29   H     H_    0.685091 0.271396 0.481569 0.187030
H30   H     H_    0.780035 0.193106 0.439578 0.195660
C45   C     C_3   0.087572 0.141923 0.472712 -0.426210
C46   C     C_3   0.118722 0.127953 0.325946 -0.331848
C47   C     C_3   0.163952 0.003865 0.305056 -0.906259
H31   H     H_    0.220499 0.993096 0.377003 0.265001
H32   H     H_    0.114703 0.925421 0.319108 0.266017
H33   H     H_    0.190375 0.000336 0.200399 0.248673
H34   H     H_    0.060054 0.133276 0.256994 0.226873
H35   H     H_    0.166537 0.204909 0.297618 0.220507
H36   H     H_    0.143926 0.131114 0.544888 0.193539
H37   H     H_    0.039365 0.063758 0.496849 0.192321
H38   H     H_    0.091644 0.810635 0.520972 0.148487

loop_
_geom_bond_atom_site_label_1
_geom_bond_atom_site_label_2
_ccdc_geom_bond_type
C45   C46   S    
O7    Zn1   S    
C19   C20   A    
C7    C8    A    
C4    C45   S    
C42   C43   S    
C26   C27   A    
C29   C30   A    
C18   C24   A    
C36   C37   A    
C18   C19   A    
C36   C42   S    
C21   H16   S    
C40   H21   S    
C15   C16   A    
C34   C35   A    
C41   H18   S    
C17   H4    S    
C14   H1    S    
C40   C41   S    
C12   O3    A    
C43   H27   S    
O2    Zn2   S    
C23   O6    A    
C28   H10   S    
C22   H5    S    
C8    C9    A    
C45   H36   S    
C23   C24   S    
C6    C38   A    
C47   H32   S    
C2    C34   A    
C42   H29   S    
C21   C22   A    
C10   H13   S    
C3    H12   S    
C15   H2    S    
C46   H35   S    
C31   H6    S    
O6    Zn2   S    
C39   C40   S    
C44   H25   S    
C43   C44   S    
C16   C17   A    
C25   C26   A    
C43   H28   S    
C35   C36   A    
O8    Zn2   S    
C41   H19   S    
C8    H38   S    
C37   C38   A    
C1    O1    A    
C13   H14   S    
C2    C38   A    
C31   C32   A    
C23   O5    A    
C33   O7    A    
C45   H37   S    
C17   C18   A    
C20   C21   A    
C47   H33   S    
C42   H30   S    
C22   C24   A    
C9    H15   S    
C3    C4    A    
C25   H7    S    
N1    Zn2   S    
C27   H9    S    
C25   C30   A    
C46   H34   S    
C28   C29   A    
C1    C20   S    
C14   C19   A    
O1    Zn1   S    
C4    C5    A    
C34   C39   S    
C44   H26   S    
C11   C12   S    
C6    C7    A    
C29   N2    A    
C30   N1    A    
C40   H20   S    
C5    C10   A    
C1    O2    A    
O3    Zn1   S    
C11   C13   A    
C5    C6    A    
C33   O8    A    
C33   C35   S    
C41   H17   S    
C32   H11   S    
C10   C11   A    
C26   H8    S    
O4    Zn2   S    
C44   H24   S    
C12   O4    A    
O5    Zn1   S    
C7    C13   A    
C39   H22   S    
C46   C47   S    
C3    C37   A    
C27   C28   A    
C14   C15   A    
C39   H23   S    
C31   N1    A    
C47   H31   S    
C2    C9    A    
C16   H3    S    
C32   N2    A    
N2    Zn1   S    
