data_mof_unit_51607.cif
_audit_creation_date              2012-12-11T17:29:50-0500
_audit_creation_method            fapswitch 2.2
_symmetry_space_group_name_H-M    P1
_symmetry_Int_Tables_number       1
_space_group_crystal_system       triclinic
_cell_length_a                    19.294334
_cell_length_b                    19.442097
_cell_length_c                    20.318506
_cell_angle_alpha                 107.248057
_cell_angle_beta                  106.020914
_cell_angle_gamma                 112.857618
_cell_volume                      6008.52557962

loop_
_atom_site_label
_atom_site_type_symbol
_atom_type_description
_atom_site_fract_x
_atom_site_fract_y
_atom_site_fract_z
_atom_type_partial_charge
C1    C     C_R   0.035306 0.087836 0.347266 -0.128669
C2    C     C_R   0.745867 0.988454 0.519782 -0.069693
C3    C     C_R   0.764300 0.732940 0.281923 -0.035823
C4    C     C_R   0.048374 0.282897 0.541647 0.056108
C5    C     C_R   0.236952 0.183555 0.654268 -0.082884
C6    C     C_R   0.959005 0.785602 0.532925 0.519479
C7    C     C_R   0.169348 0.938712 0.429448 -0.105034
C8    C     C_R   0.980993 0.052394 0.709459 0.404908
C9    C     C_R   0.911504 0.913760 0.645628 -0.189618
C10   C     C_R   0.235760 0.077091 0.493257 0.413741
C11   C     C_R   0.160018 0.178242 0.718838 -0.090024
C12   C     C_R   0.755301 0.922425 0.487091 -0.191687
C13   C     C_R   0.031872 0.787283 0.463625 0.482838
C14   C     C_R   0.240050 0.197682 0.726379 0.024690
C15   C     C_R   0.006237 0.754463 0.509680 -0.120387
C16   C     C_R   0.240657 0.011955 0.450562 -0.090482
C17   C     C_R   0.933994 0.979849 0.713048 -0.059994
C18   C     C_R   0.093423 0.701821 0.559679 0.405885
C19   C     C_R   0.013563 0.687145 0.518209 -0.165856
C20   C     C_R   0.940163 0.609560 0.486219 0.502384
C21   C     C_R   0.946219 0.546405 0.501329 -0.072136
C22   C     C_R   0.026490 0.557431 0.536609 -0.031788
C23   C     C_R   0.845011 0.777475 0.289229 0.607914
C24   C     C_R   0.100567 0.635428 0.566508 -0.035774
C25   C     C_R   0.873673 0.471429 0.479145 -0.174552
C26   C     C_R   0.879536 0.403330 0.480344 -0.145909
C27   C     C_R   0.958300 0.410763 0.507021 -0.021662
C28   C     C_R   0.032426 0.489218 0.539414 0.051632
C29   C     C_R   0.112302 0.498475 0.571805 0.132843
C30   C     C_R   0.185233 0.576219 0.603923 -0.195305
C31   C     C_R   0.179530 0.644465 0.601521 -0.063093
C32   C     C_R   0.964483 0.340994 0.501146 0.491153
C33   C     C_R   0.044221 0.352490 0.537361 -0.088282
C34   C     C_R   0.001447 0.234372 0.567057 0.030836
C35   C     C_R   0.117633 0.429524 0.571524 -0.291212
C36   C     C_R   0.388919 0.071490 0.522061 -0.153950
C37   C     C_R   0.317449 0.018607 0.451531 0.146110
C38   C     C_R   0.316395 0.961557 0.390032 -0.144053
C39   C     C_R   0.386717 0.953405 0.400186 -0.031435
C40   C     C_R   0.456666 0.002640 0.473939 -0.005890
C41   C     C_R   0.457703 0.062363 0.534565 0.137871
C42   C     C_R   0.387941 0.895170 0.340186 0.488250
C43   C     C_R   0.458219 0.886555 0.353959 -0.267036
C44   C     C_R   0.526404 0.934229 0.427156 0.054949
C45   C     C_R   0.765487 0.776781 0.350351 -0.193458
C46   C     C_R   0.525161 0.991434 0.487809 0.047964
C47   C     C_R   0.593210 0.038393 0.562331 0.121955
C48   C     C_R   0.592679 0.096252 0.622184 -0.148255
C49   C     C_R   0.525342 0.108919 0.608093 -0.174247
C50   C     C_R   0.597971 0.928969 0.440097 -0.187036
C51   C     C_R   0.666872 0.979965 0.512691 0.119760
C52   C     C_R   0.662645 0.029692 0.574794 -0.159857
C53   C     C_R   0.313189 0.224051 0.796446 0.091902
C54   C     C_R   0.303505 0.216947 0.860643 -0.274211
C55   C     C_R   0.373690 0.254146 0.930803 0.488935
C56   C     C_R   0.076875 0.240198 0.501385 -0.178180
C57   C     C_R   0.454863 0.299926 0.936944 0.110538
C58   C     C_R   0.464023 0.296403 0.870402 -0.236003
C59   C     C_R   0.394033 0.259733 0.800852 -0.154775
C60   C     C_R   0.628886 0.533713 0.093655 -0.456655
C61   C     C_R   0.686472 0.617925 0.146147 0.602718
C62   C     C_R   0.576478 0.479158 0.113927 0.107095
C63   C     C_R   0.698117 0.646445 0.222942 -0.037810
C64   C     C_R   0.645675 0.591474 0.243198 -0.379663
C65   C     C_R   0.584005 0.509023 0.188694 0.488377
C66   C     C_R   0.943827 0.030794 0.206650 -0.140883
C67   C     C_R   0.822745 0.062349 0.553816 0.504449
C68   C     C_R   0.856524 0.981162 0.158219 0.427607
C69   C     C_R   0.823731 0.985199 0.089857 -0.273167
C70   C     C_R   0.877058 0.041916 0.072283 0.157374
C71   C     C_R   0.961365 0.097310 0.124465 -0.370086
C72   C     C_R   0.995808 0.092608 0.191937 0.515629
C73   C     C_R   0.927199 0.039719 0.902748 -0.233558
C74   C     C_R   0.953635 0.040404 0.846290 -0.084093
C75   C     C_R   0.850513 0.972486 0.886635 0.123248
C76   C     C_R   0.903298 0.975499 0.771238 0.114096
C77   C     C_R   0.826738 0.907409 0.754252 -0.288898
C78   C     C_R   0.968785 0.949152 0.280692 0.567194
C79   C     C_R   0.800998 0.905185 0.812170 0.472186
C80   C     C_R   0.981160 0.022234 0.274884 -0.005949
H1    H     H_    0.056816 0.153049 0.363429 0.130300
H2    H     H_    0.149244 0.878170 0.385919 0.198514
H3    H     H_    0.861046 0.850249 0.622119 0.170405
H4    H     H_    0.140065 0.180435 0.763501 0.152699
H5    H     H_    0.811893 0.463852 0.457466 0.163372
H6    H     H_    0.709693 0.856334 0.461527 0.137801
H7    H     H_    0.822229 0.344626 0.458879 0.179368
H8    H     H_    0.178123 0.435420 0.598049 0.168207
H9    H     H_    0.246655 0.583895 0.629754 0.147218
H10   H     H_    0.237402 0.703328 0.625611 0.192265
H11   H     H_    0.388137 0.114167 0.570057 0.137124
H12   H     H_    0.259410 0.921470 0.336411 0.173900
H13   H     H_    0.459637 0.842741 0.307414 0.183204
H14   H     H_    0.602259 0.889627 0.392636 0.139591
H15   H     H_    0.715210 0.065173 0.631593 0.182109
H16   H     H_    0.644883 0.132675 0.679262 0.152700
H17   H     H_    0.525564 0.154204 0.654807 0.139098
H18   H     H_    0.622125 0.511817 0.035366 0.179685
H19   H     H_    0.525909 0.330321 0.874180 0.155686
H20   H     H_    0.404120 0.264805 0.752313 0.138356
H21   H     H_    0.652857 0.611864 0.301548 0.196785
H22   H     H_    0.980294 0.255475 0.608340 0.188087
H23   H     H_    0.241696 0.184907 0.857422 0.162118
H24   H     H_    0.015112 0.091017 0.862303 0.170809
H25   H     H_    0.969374 0.089929 0.960679 0.157568
H26   H     H_    0.002046 0.139375 0.109041 0.155499
H27   H     H_    0.787365 0.855965 0.696693 0.164243
H28   H     H_    0.757781 0.943726 0.050046 0.186959
H29   H     H_    0.718624 0.754542 0.370142 0.139761
H30   H     H_    0.121560 0.264310 0.479882 0.132723
H31   H     H_    0.287010 0.188269 0.638774 0.141091
N1    N     N_R   0.052570 0.055840 0.395080 -0.074902
N2    N     N_R   0.954640 0.834860 0.500130 -0.126492
N3    N     N_R   0.122510 0.958410 0.460270 -0.065459
N4    N     N_R   0.990190 0.031260 0.644790 -0.090386
N5    N     N_R   0.947430 0.944160 0.604920 -0.067192
N6    N     N_R   0.165270 0.045500 0.500140 -0.091137
N7    N     N_R   0.109810 0.150880 0.644800 -0.044412
N8    N     N_R   0.002890 0.838790 0.460260 -0.127128
N9    N     N_2   0.525627 0.364141 0.007238 -0.056694
N10   N     N_2   0.507437 0.400002 0.055736 0.011790
N11   N     N_2   0.854205 0.036184 0.998122 -0.054642
N12   N     N_R   0.834730 0.954500 0.499860 -0.062032
N13   N     N_2   0.833756 0.966490 0.948942 -0.041878
N14   N     N_R   0.890190 0.849120 0.355200 -0.103398
N15   N     N_R   0.997110 0.161210 0.539740 -0.063466
N16   N     N_R   0.841940 0.845190 0.395070 -0.069841
N17   N     N_R   0.045360 0.165140 0.499870 -0.051313
N18   N     N_R   0.877490 0.041590 0.539730 -0.087722
N19   N     N_R   0.009810 0.968740 0.355210 -0.119171
N20   N     N_R   0.158060 0.154810 0.604930 -0.039842
Ni1   Ni    Ni4+2 0.104370 0.104380 0.500010 0.265678
Ni2   Ni    Ni4+2 0.895630 0.895620 0.499990 0.222277
Ni3   Ni    Ni4+2 0.006290 0.904630 0.408560 0.270060
Ni4   Ni    Ni4+2 0.993710 0.095370 0.591440 0.295486
O1    O     O_3   0.907229 0.755269 0.565346 -0.633283
C81   C     C_3   0.956006 0.768726 0.639285 0.182993
H32   H     H_    0.999387 0.837099 0.678246 0.111529
H33   H     H_    0.993921 0.738171 0.637645 0.107702
C82   C     C_3   0.897595 0.731137 0.672661 -0.262020
H34   H     H_    0.855924 0.757519 0.673151 0.204881
H35   H     H_    0.857486 0.662154 0.635903 0.223171
C83   C     C_3   0.947195 0.749092 0.754642 -0.941721
H36   H     H_    0.988442 0.721997 0.755768 0.270832
H37   H     H_    0.903068 0.720442 0.776893 0.280329
H38   H     H_    0.986182 0.817808 0.792741 0.268466
Cl1   Cl    Cl    0.989058 0.149238 0.756241 -0.636458
Cl2   Cl    Cl    0.289318 0.179652 0.504471 -0.675982
Cl3   Cl    Cl    0.071775 0.748611 0.403385 -0.617898
Cl4   Cl    Cl    0.183209 0.803681 0.603123 -0.632706
O2    O     O_3   0.863107 0.598448 0.443565 -0.623854
C84   C     C_3   0.826755 0.538027 0.365735 0.137033
H39   H     H_    0.758745 0.497394 0.347403 0.159121
H40   H     H_    0.852798 0.495830 0.355674 0.095421
C85   C     C_3   0.836357 0.581016 0.314522 -0.263871
H41   H     H_    0.810679 0.623158 0.323732 0.221520
H42   H     H_    0.903842 0.619218 0.330449 0.259565
C86   C     C_3   0.791027 0.516587 0.229865 -0.869224
H43   H     H_    0.818875 0.476375 0.219858 0.261162
H44   H     H_    0.797207 0.548943 0.193310 0.305677
H45   H     H_    0.723295 0.476348 0.212497 0.254747
O3    O     O_3   0.892215 0.262192 0.463601 -0.651883
C87   C     C_3   0.885999 0.213305 0.392312 0.208356
H46   H     H_    0.862613 0.148180 0.384902 0.153914
H47   H     H_    0.946931 0.234116 0.388732 0.069746
C88   C     C_3   0.823471 0.212240 0.326002 -0.340624
H48   H     H_    0.762029 0.189899 0.328136 0.228911
H49   H     H_    0.847127 0.276844 0.331942 0.197449
C89   C     C_3   0.811206 0.154886 0.248377 -0.914115
H50   H     H_    0.871850 0.176436 0.244750 0.248985
H51   H     H_    0.766238 0.155909 0.201376 0.276394
H52   H     H_    0.785589 0.089420 0.240288 0.294300
Cl5   Cl    Cl    0.303635 0.832353 0.246953 -0.618188
Cl6   Cl    Cl    0.894319 0.729285 0.249935 -0.653095
O4    O     O_3   0.734790 0.670763 0.123305 -0.619364
C90   C     C_3   0.684189 0.687391 0.072835 0.231437
H53   H     H_    0.668376 0.730816 0.106109 0.155930
H54   H     H_    0.624752 0.629436 0.026573 0.074669
C91   C     C_3   0.733097 0.728294 0.034190 -0.260952
H55   H     H_    0.792110 0.787137 0.078733 0.261056
H56   H     H_    0.749919 0.685349 0.001919 0.197436
C92   C     C_3   0.681947 0.748093 0.978778 -0.898237
H57   H     H_    0.624885 0.689319 0.931111 0.269157
H58   H     H_    0.720490 0.780515 0.954027 0.287952
H59   H     H_    0.662885 0.789608 0.009396 0.283043
Cl7   Cl    Cl    0.357161 0.243477 0.009192 -0.560351
Cl8   Cl    Cl    0.517797 0.443471 0.215630 -0.559204
O5    O     O_3   0.081955 0.139446 0.238099 -0.640212
C93   C     C_3   0.112907 0.226717 0.266218 0.160065
H60   H     H_    0.142876 0.255903 0.330084 0.130291
H61   H     H_    0.063788 0.243434 0.249201 0.078311
C94   C     C_3   0.179777 0.264663 0.240586 -0.246732
H62   H     H_    0.230748 0.251739 0.261539 0.237589
H63   H     H_    0.151618 0.235269 0.176769 0.202866
C95   C     C_3   0.217263 0.359255 0.271967 -0.904265
H64   H     H_    0.167652 0.373586 0.250392 0.261881
H65   H     H_    0.265737 0.384840 0.252655 0.293781
H66   H     H_    0.247161 0.390247 0.335866 0.265968
Cl9   Cl    Cl    0.707613 0.817397 0.790830 -0.632121
Cl10  Cl    Cl    0.786373 0.917379 0.183715 -0.708643
Cl11  Cl    Cl    0.847105 0.162700 0.613888 -0.635376
O6    O     O_3   0.935006 0.872822 0.218957 -0.626369
C96   C     C_3   0.000325 0.871227 0.200945 0.236023
H67   H     H_    0.040958 0.862265 0.244449 0.136535
H68   H     H_    0.039984 0.930254 0.199697 0.085655
C97   C     C_3   0.962498 0.798777 0.121212 -0.280574
H69   H     H_    0.918681 0.739169 0.118364 0.270612
H70   H     H_    0.926555 0.810675 0.077333 0.186219
C98   C     C_3   0.030675 0.789569 0.102398 -0.879729
H71   H     H_    0.074446 0.847981 0.103443 0.267132
H72   H     H_    0.001328 0.736941 0.044057 0.270241
H73   H     H_    0.066539 0.775995 0.144671 0.291966

loop_
_geom_bond_atom_site_label_1
_geom_bond_atom_site_label_2
_ccdc_geom_bond_type
N14   Ni3   S    
C83   H38   S    
C66   C68   A    
C96   H67   S    
C65   Cl8   S    
C95   H65   S    
C38   H12   S    
C85   H42   S    
C89   H51   S    
C73   C74   A    
C3    C23   A    
C87   H46   S    
C61   O4    S    
C82   C83   S    
C2    C12   A    
C53   C59   A    
C23   Cl6   S    
N19   Ni3   S    
C53   C54   A    
C40   C46   A    
C96   H68   S    
C28   C29   A    
C26   C27   A    
C34   H22   S    
C74   C76   A    
N12   Ni2   S    
C18   C24   A    
C7    N3    A    
C36   C37   A    
C87   H47   S    
C82   H35   S    
C60   H18   S    
C1    N1    A    
C30   C31   A    
C11   C14   A    
C45   H29   S    
C4    C33   S    
C1    H1    S    
N4    N5    A    
N18   Ni4   S    
C98   H73   S    
C52   H15   S    
C60   C62   A    
C18   C19   A    
C89   H50   S    
C55   Cl7   S    
C41   C49   A    
C93   H61   S    
N6    Ni1   S    
C92   H57   S    
C72   O5    S    
C6    O1    S    
N7    N20   A    
C8    N4    A    
C33   C35   A    
C6    C15   A    
N2    N8    A    
C86   H44   S    
C90   C91   S    
C66   C72   A    
O4    C90   S    
C26   H7    S    
C32   O3    S    
C17   C76   S    
O2    C84   S    
C70   C71   A    
C29   C30   A    
C86   H45   S    
C16   C37   S    
C23   N14   A    
C91   C92   S    
C90   H54   S    
C22   C28   A    
C21   C22   A    
C4    C56   A    
C85   C86   S    
C88   H49   S    
C59   H20   S    
C73   C75   A    
C36   C41   A    
C67   N18   A    
C30   H9    S    
N17   Ni1   S    
C56   H30   S    
C13   N8    A    
C69   H28   S    
C44   C46   A    
C98   H71   S    
C39   C42   A    
C77   C79   A    
C64   H21   S    
C96   C97   S    
C4    C34   A    
N8    Ni3   S    
C79   Cl9   S    
O6    C96   S    
C75   N13   S    
C94   C95   S    
C78   O6    S    
C54   H23   S    
C77   H27   S    
C87   C88   S    
C82   H34   S    
C2    C67   A    
C39   C40   A    
C97   H69   S    
C50   H14   S    
N5    Ni2   S    
C5    H31   S    
C58   C59   A    
C3    C45   A    
N1    Ni1   S    
C51   C52   A    
C32   C33   A    
C60   C61   A    
C92   H59   S    
C94   H63   S    
C86   H43   S    
C93   C94   S    
C15   C19   S    
C43   C44   A    
C6    N2    A    
C37   C38   A    
C67   Cl11  S    
C81   H33   S    
C35   H8    S    
C70   N11   S    
C73   H25   S    
C47   C48   A    
C84   C85   S    
C34   N15   A    
C31   H10   S    
C7    H2    S    
C25   H5    S    
C50   C51   A    
N3    Ni3   S    
C46   C47   A    
C76   C77   A    
C5    C14   A    
C91   H55   S    
C9    H3    S    
C57   N9    S    
C36   H11   S    
C9    C17   A    
C90   H53   S    
C84   H40   S    
N15   Ni4   S    
C13   C15   A    
C88   H48   S    
C89   H52   S    
C22   C24   A    
C8    Cl1   S    
C42   C43   A    
N11   N13   D    
N20   Ni1   S    
C27   C28   A    
N9    N10   D    
C74   H24   S    
O3    C87   S    
C44   C50   A    
C93   H60   S    
C83   H37   S    
C21   C25   A    
C54   C55   A    
C40   C41   A    
N15   N17   A    
C48   H16   S    
C62   C65   A    
C27   C32   A    
C9    N5    A    
C68   C69   A    
C61   C63   A    
C7    C16   A    
C58   H19   S    
N16   Ni2   S    
O1    C81   S    
C42   Cl5   S    
C47   C52   A    
C3    C63   S    
C11   H4    S    
C95   H64   S    
C66   C80   S    
C81   H32   S    
C29   C35   A    
C8    C17   A    
C20   O2    S    
C12   H6    S    
C68   Cl10  S    
C94   H62   S    
C95   H66   S    
C19   C20   A    
C55   C57   A    
C25   C26   A    
C24   C31   A    
C13   Cl3   S    
C71   C72   A    
C10   N6    A    
C10   C16   A    
C64   C65   A    
C11   N7    A    
C97   C98   S    
C57   C58   A    
C38   C39   A    
C12   N12   A    
N4    Ni4   S    
C45   N16   A    
C48   C49   A    
C81   C82   S    
C43   H13   S    
C78   C80   A    
C56   N17   A    
C78   N19   A    
C69   C70   A    
C92   H58   S    
N3    N6    A    
C2    C51   S    
C49   H17   S    
C63   C64   A    
C5    N20   A    
C14   C53   S    
C20   C21   A    
C88   C89   S    
C71   H26   S    
C85   H41   S    
N14   N16   A    
C1    C80   A    
C98   H72   S    
O5    C93   S    
N2    Ni2   S    
C84   H39   S    
N1    N19   A    
C18   Cl4   S    
C97   H70   S    
C75   C79   A    
C62   N10   S    
N12   N18   A    
N7    Ni4   S    
C83   H36   S    
C10   Cl2   S    
C91   H56   S    
