data_mof_unit_66651.cif
_audit_creation_date              2012-12-11T18:58:35-0500
_audit_creation_method            fapswitch 2.2
_symmetry_space_group_name_H-M    P1
_symmetry_Int_Tables_number       1
_space_group_crystal_system       triclinic
_cell_length_a                    8.359319
_cell_length_b                    15.039864
_cell_length_c                    17.413831
_cell_angle_alpha                 98.772202
_cell_angle_beta                  97.204433
_cell_angle_gamma                 99.130714
_cell_volume                      2111.03350251

loop_
_atom_site_label
_atom_site_type_symbol
_atom_type_description
_atom_site_fract_x
_atom_site_fract_y
_atom_site_fract_z
_atom_type_partial_charge
Ba1   Ba    Ba6+2 0.844370 0.541120 0.463210 1.681368
Ba2   Ba    Ba6+2 0.345470 0.458960 0.536800 1.699331
C1    C     C_3   0.636823 0.835146 0.221599 0.819635
C2    C     C_3   0.667688 0.748765 0.253194 0.365967
C3    C     C_3   0.563714 0.269786 0.280849 0.226265
C4    C     C_3   0.560633 0.191230 0.213598 0.286743
C5    C     C_3   0.165205 0.262896 0.734422 0.379474
C6    C     C_3   0.217614 0.227365 0.809127 0.270651
C7    C     C_3   0.606363 0.213781 0.698878 0.500437
C8    C     C_3   0.566488 0.115821 0.718681 1.031659
C9    C     C_2   0.288771 0.471550 0.274654 -0.282755
C10   C     C_3   0.411341 0.475921 0.217516 -0.060971
C11   C     C_2   0.330074 0.472114 0.131516 0.360391
C12   C     C_3   0.127191 0.809630 0.267248 0.672172
C13   C     C_2   0.166928 0.475271 0.115688 -0.044915
C14   C     C_2   0.073267 0.482517 0.183764 -0.195115
C15   C     C_1   0.128819 0.460833 0.251189 0.045738
C16   C     C_R   0.901328 0.433753 0.851035 0.370966
C17   C     C_R   0.829853 0.439237 0.774974 0.030173
C18   C     C_R   0.081768 0.528245 0.752232 0.042073
C19   C     C_R   0.149309 0.530360 0.831072 -0.150740
C20   C     C_R   0.058941 0.486917 0.884329 -0.059792
C21   C     C_2   0.070438 0.466879 0.032731 0.358441
C22   C     C_2   0.139234 0.499183 0.971094 0.462199
C23   C     C_3   0.116617 0.889560 0.221928 0.322010
C24   C     C_R   0.921052 0.483371 0.725584 -0.293906
C25   C     C_R   0.336570 0.820898 0.447320 -0.038501
C26   C     C_R   0.588551 0.791682 0.516252 0.068502
C27   C     C_R   0.772888 0.228010 0.500658 -0.257627
C28   C     C_R   0.873060 0.171368 0.529137 0.046168
C29   C     C_R   0.813967 0.077316 0.520994 -0.118693
C30   C     C_R   0.649631 0.038952 0.486995 0.040820
C31   C     C_R   0.550251 0.098343 0.456454 -0.050056
C32   C     C_R   0.578470 0.944748 0.484363 0.043141
C33   C     C_R   0.410456 0.913018 0.450703 -0.007284
C34   C     C_3   0.233390 0.751741 0.643676 0.294027
C35   C     C_R   0.317914 0.974546 0.423021 -0.144057
C36   C     C_R   0.387365 0.063785 0.423390 -0.119994
C37   C     C_R   0.664107 0.882500 0.518522 -0.109117
C38   C     C_R   0.427824 0.760890 0.478166 -0.258408
C39   C     C_R   0.612944 0.192479 0.463459 -0.030183
C40   C     C_3   0.162612 0.837235 0.666921 -0.372100
C41   C     C_3   0.078243 0.249612 0.290446 0.754300
C42   C     C_3   0.063907 0.200024 0.204889 0.745692
C43   C     C_3   0.764221 0.675579 0.710558 0.447790
C44   C     C_3   0.757975 0.702959 0.799437 1.020945
H1    H     H_    0.779954 0.730811 0.232846 0.072729
H2    H     H_    0.045753 0.819378 0.689546 0.149768
H3    H     H_    0.192165 0.300972 0.301352 -0.043846
H4    H     H_    0.687671 0.764141 0.318630 0.024527
H5    H     H_    0.681670 0.282464 0.319457 0.055947
H6    H     H_    0.432283 0.153788 0.194453 0.001887
H7    H     H_    0.074896 0.308417 0.744542 -0.072855
H8    H     H_    0.292068 0.174766 0.794196 0.116425
H9    H     H_    0.109311 0.192827 0.830673 -0.053824
H10   H     H_    0.739841 0.232675 0.697784 -0.244315
H11   H     H_    0.542648 0.214973 0.639228 -0.042623
H12   H     H_    0.864957 0.484179 0.666297 0.071308
H13   H     H_    0.258416 0.815253 0.292463 -0.010120
H14   H     H_    0.898364 0.036469 0.542656 0.061313
H15   H     H_    0.989417 0.886206 0.194104 -0.012916
H16   H     H_    0.148816 0.954936 0.264282 -0.020500
H17   H     H_    0.155303 0.710515 0.590100 0.081389
O1    O     O_2   0.823670 0.438410 0.305690 -0.484369
O2    O     O_3   0.728508 0.747517 0.672498 -0.669236
O3    O     O_3   0.029194 0.816473 0.327183 -0.657032
O4    O     O_2   0.366040 0.561620 0.694360 -0.441815
O5    O     O_3   0.092170 0.555060 0.596100 -0.507541
O6    O     O_3   0.563060 0.391710 0.639940 -0.500938
O7    O     O_3   0.245169 0.707445 0.708805 -0.631091
O8    O     O_3   0.598320 0.387100 0.455790 -0.476797
O9    O     O_3   0.130210 0.342150 0.598540 -0.494350
O10   O     O_2   0.212168 0.181652 0.545253 -0.488608
O11   O     O_3   0.096215 0.187566 0.675305 -0.659791
O12   O     O_3   0.097540 0.445020 0.403910 -0.481492
O13   O     O_3   0.591400 0.612970 0.544220 -0.492178
O14   O     O_2   0.325880 0.273340 0.453540 -0.387970
O15   O     O_3   0.433736 0.247186 0.321251 -0.688606
O16   O     O_2   0.500155 0.445792 0.781573 -0.437968
O17   O     O_3   0.554211 0.276695 0.755015 -0.605016
O18   O     O_3   0.626660 0.608370 0.360070 -0.466718
O19   O     O_2   0.746765 0.567120 0.231662 -0.500697
O20   O     O_3   0.943307 0.292038 0.303545 -0.657996
O21   O     O_3   0.535648 0.676341 0.224417 -0.672094
O22   O     O_2   0.863840 0.726690 0.546510 -0.469188
O23   O     O_3   0.059500 0.657930 0.401470 -0.453041
O24   O     O_2   0.023428 0.820456 0.473252 -0.498298
P1    P     P_3+3 0.993950 0.412000 0.316970 1.012353
P2    P     P_3+3 0.694070 0.714570 0.569730 0.977997
P3    P     P_3+3 0.115613 0.777248 0.410378 0.938825
P4    P     P_3+3 0.195760 0.588070 0.683040 1.001800
P5    P     P_3+3 0.077700 0.222446 0.583938 0.955667
P6    P     P_3+3 0.580272 0.577861 0.258188 0.930275
P7    P     P_3+3 0.495643 0.273398 0.422915 0.956974
P8    P     P_3+3 0.612930 0.389072 0.738986 1.027103
H18   H     H_    0.249813 0.886054 0.713655 0.095065
H19   H     H_    0.137231 0.870090 0.615305 0.094716
O25   O     O_3   0.101706 0.189426 0.344454 -0.664892
C45   C     C_3   0.963728 0.121263 0.342566 0.167159
H20   H     H_    0.985002 0.088483 0.394757 0.046730
H21   H     H_    0.849367 0.149468 0.345359 0.032100
H22   H     H_    0.951230 0.065851 0.291214 0.043804
O26   O     O_3   0.083293 0.265643 0.154998 -0.704425
C46   C     C_3   0.203834 0.249493 0.107339 0.063694
H23   H     H_    0.327147 0.276700 0.141553 0.078998
H24   H     H_    0.190366 0.286692 0.057553 0.103482
H25   H     H_    0.192256 0.176103 0.081359 0.016908
O27   O     O_3   0.907488 0.144168 0.181467 -0.642387
C47   C     C_3   0.913267 0.070241 0.122120 0.124777
H26   H     H_    0.011901 0.032511 0.139085 0.022270
H27   H     H_    0.925856 0.093751 0.065392 0.048126
H28   H     H_    0.796587 0.021121 0.113684 0.045662
H29   H     H_    0.163715 0.158437 0.207240 -0.103540
H30   H     H_    0.887410 0.662458 0.700944 -0.161739
H31   H     H_    0.673592 0.611709 0.687425 0.015250
H32   H     H_    0.757420 0.881735 0.230095 -0.202267
O28   O     O_3   0.872758 0.786418 0.830082 -0.696512
C48   C     C_3   0.034890 0.773136 0.851968 0.125359
H33   H     H_    0.066555 0.713519 0.815361 0.059975
H34   H     H_    0.054128 0.765329 0.914548 0.029364
H35   H     H_    0.121232 0.834848 0.845908 0.051617
O29   O     O_3   0.796106 0.629977 0.837643 -0.729587
C49   C     C_3   0.754522 0.639023 0.914418 0.171203
H36   H     H_    0.620921 0.615111 0.912002 0.110913
H37   H     H_    0.791433 0.710167 0.947488 0.014118
H38   H     H_    0.819883 0.594956 0.947790 0.066738
O30   O     O_3   0.592055 0.712582 0.806090 -0.657924
C50   C     C_3   0.572579 0.803905 0.829053 0.193252
H39   H     H_    0.614210 0.846646 0.786180 0.075045
H40   H     H_    0.638418 0.832646 0.889431 0.025036
H41   H     H_    0.440800 0.805276 0.830449 0.047202
O31   O     O_3   0.531059 0.876953 0.266536 -0.668244
C51   C     C_3   0.552353 0.970893 0.262490 0.263518
H42   H     H_    0.560926 0.983983 0.201745 0.066746
H43   H     H_    0.662130 0.008024 0.303965 -0.040944
H44   H     H_    0.445330 0.998385 0.280477 0.064945
H45   H     H_    0.547562 0.332418 0.256868 0.056577
O32   O     O_3   0.628358 0.224939 0.151062 -0.633662
C52   C     C_3   0.579281 0.159451 0.081252 0.230197
H46   H     H_    0.457414 0.166244 0.052656 -0.030538
H47   H     H_    0.573731 0.087771 0.091134 0.018956
H48   H     H_    0.667849 0.171986 0.040067 0.038073
H49   H     H_    0.634875 0.143429 0.236120 0.028368
O33   O     O_3   0.561765 0.813648 0.141684 -0.641488
C53   C     C_3   0.678033 0.801267 0.090747 0.075914
H50   H     H_    0.739656 0.742951 0.100909 0.037509
H51   H     H_    0.769120 0.864626 0.095431 0.018427
H52   H     H_    0.612906 0.785235 0.029455 0.053895
O34   O     O_3   0.228769 0.891912 0.167264 -0.643199
C54   C     C_3   0.148557 0.860001 0.089195 0.162098
H53   H     H_    0.084491 0.912268 0.067127 0.004869
H54   H     H_    0.060435 0.794760 0.083132 0.030836
H55   H     H_    0.242368 0.847222 0.051145 0.071059
H56   H     H_    0.274728 0.302762 0.718202 0.110188
O35   O     O_3   0.306906 0.299669 0.867421 -0.628678
C55   C     C_3   0.390673 0.261892 0.926171 0.232954
H57   H     H_    0.492412 0.231394 0.904278 0.087146
H58   H     H_    0.306084 0.210352 0.948419 -0.056517
H59   H     H_    0.446702 0.316572 0.975793 0.121587
O36   O     O_3   0.655608 0.056309 0.675658 -0.724611
C56   C     C_3   0.808913 0.050620 0.717313 0.152788
H60   H     H_    0.793283 0.002457 0.759249 0.059490
H61   H     H_    0.876070 0.118248 0.748468 0.066062
H62   H     H_    0.885106 0.022751 0.675273 0.074987
O37   O     O_3   0.393542 0.084507 0.697897 -0.699025
C57   C     C_3   0.347263 0.035997 0.620559 0.177436
H63   H     H_    0.385300 0.968189 0.615139 0.054820
H64   H     H_    0.400557 0.075156 0.578635 0.074030
H65   H     H_    0.211984 0.025235 0.605442 0.082622
O38   O     O_3   0.061595 0.727278 0.215014 -0.675048
C58   C     C_3   0.187048 0.687437 0.186268 0.113869
H66   H     H_    0.238710 0.649366 0.230036 0.055647
H67   H     H_    0.285907 0.737628 0.172249 0.152605
H68   H     H_    0.132395 0.641710 0.130568 0.048420
O39   O     O_3   0.609774 0.122625 0.801648 -0.689633
C59   C     C_3   0.532902 0.045690 0.829651 0.147629
H69   H     H_    0.515275 0.981186 0.786453 0.049743
H70   H     H_    0.412325 0.056964 0.845547 0.043897
H71   H     H_    0.610732 0.037325 0.883608 0.007591
O40   O     O_3   0.296132 0.550539 0.988404 -0.649827
C60   C     C_3   0.289975 0.644980 0.000624 0.060873
H72   H     H_    0.164545 0.661848 0.999656 -0.017503
H73   H     H_    0.349190 0.677535 0.955846 0.056240
H74   H     H_    0.363781 0.676530 0.058064 0.124597
H75   H     H_    0.960222 0.508244 0.177510 0.150296
O41   O     O_3   0.816349 0.371867 0.888430 -0.618616
C61   C     C_3   0.884443 0.291758 0.879715 0.184360
H76   H     H_    0.880640 0.263160 0.817338 0.033861
H77   H     H_    0.810809 0.239093 0.905270 0.080089
H78   H     H_    0.011884 0.304673 0.911498 0.033408
O42   O     O_3   0.900669 0.444350 0.025328 -0.683477
C62   C     C_3   0.849803 0.359527 0.049462 0.233485
H79   H     H_    0.834727 0.367317 0.112063 0.088959
H80   H     H_    0.930311 0.309374 0.036596 0.051313
H81   H     H_    0.726504 0.328864 0.016863 0.061334
O43   O     O_3   0.404444 0.439531 0.068962 -0.671400
C63   C     C_3   0.562621 0.489607 0.072652 0.249891
H82   H     H_    0.649554 0.463270 0.112346 0.050662
H83   H     H_    0.569438 0.564669 0.089503 0.062477
H84   H     H_    0.597871 0.478382 0.013117 0.124987
H85   H     H_    0.274310 0.565463 0.849542 0.144976
H86   H     H_    0.336860 0.474994 0.336103 0.090163
H87   H     H_    0.369490 0.691021 0.477082 0.061191
H88   H     H_    0.188531 0.956134 0.402199 0.093278
H89   H     H_    0.787773 0.903003 0.549217 0.080972
H90   H     H_    0.820746 0.300428 0.507208 0.072831
H91   H     H_    0.308614 0.105777 0.399340 0.156656
H92   H     H_    0.358364 0.772331 0.629857 -0.020600

loop_
_geom_bond_atom_site_label_1
_geom_bond_atom_site_label_2
_ccdc_geom_bond_type
C58   H66   S    
Ba1   O1    S    
O37   C57   S    
C15   P1    S    
C41   O20   S    
C34   C40   S    
O7    P4    S    
C41   O25   S    
C12   O38   S    
C50   H39   S    
C53   H52   S    
C46   H24   S    
C56   H60   S    
C17   P8    S    
C49   H36   S    
O3    P3    S    
O8    P7    S    
C29   C30   A    
C60   H72   S    
O2    P2    S    
C12   H13   S    
C58   H67   S    
Ba1   O8    S    
C40   H18   S    
C3    C4    S    
C55   H57   S    
C33   C35   A    
C16   C17   A    
Ba2   O5    S    
C14   H75   S    
C47   H27   S    
C28   C29   A    
O9    P5    S    
C52   H48   S    
O43   C63   S    
C49   H37   S    
O38   C58   S    
C26   C38   A    
Ba1   O18   S    
C13   C14   S    
C37   H89   S    
O14   P7    D    
Ba1   O23   S    
O5    P4    S    
O27   C47   S    
C25   P3    S    
C23   O34   S    
C32   C33   A    
C34   H92   S    
O11   P5    S    
C6    O35   S    
C17   C24   A    
C48   H33   S    
C61   H78   S    
C56   H61   S    
C43   H30   S    
C59   H71   S    
C39   P7    S    
C14   C15   D    
O1    P1    D    
C54   H55   S    
C22   O40   S    
C51   H44   S    
C21   C22   D    
C26   P2    S    
C62   H79   S    
C34   H17   S    
C7    C8    S    
C7    H11   S    
O13   P2    S    
O21   P6    S    
Ba1   P1    S    
C13   C21   S    
O20   P1    S    
O19   P6    D    
C19   C20   A    
C57   H64   S    
Ba2   P4    S    
Ba2   O9    S    
C6    H9    S    
C21   O42   S    
C46   H23   S    
C53   H51   S    
C42   O26   S    
C34   O7    S    
C53   H50   S    
C5    O11   S    
C42   O27   S    
Ba1   O22   S    
C58   H68   S    
O35   C55   S    
C36   H91   S    
C32   C37   A    
Ba1   O12   S    
C62   H81   S    
C19   H85   S    
C44   O30   S    
C5    C6    S    
C28   P5    S    
Ba2   O4    S    
O23   P3    S    
C40   H19   S    
C6    H8    S    
O22   P2    D    
C41   H3    S    
C49   H38   S    
C40   H2    S    
C26   C37   A    
C25   C33   A    
C43   C44   S    
C11   O43   S    
C27   H90   S    
C1    O31   S    
C44   O28   S    
C2    H4    S    
C48   H35   S    
C62   H80   S    
C29   H14   S    
C4    O32   S    
C63   H84   S    
C41   C42   S    
O16   P8    D    
C35   C36   A    
O18   P6    S    
C43   H31   S    
O39   C59   S    
C2    O21   S    
C38   H87   S    
C25   C38   A    
C52   H46   S    
O4    P4    D    
C12   O3    S    
C7    H10   S    
C23   H15   S    
Ba2   O8    S    
C10   C11   S    
O17   P8    S    
C24   H12   S    
C59   H69   S    
C45   H21   S    
C42   H29   S    
C11   C13   D    
C43   O2    S    
C51   H42   S    
C20   C22   S    
C10   P6    S    
C47   H28   S    
C5    H7    S    
C1    C2    S    
Ba2   O6    S    
C50   H41   S    
C8    O36   S    
C9    H86   S    
C56   H62   S    
Ba2   O13   S    
O40   C60   S    
C60   H74   S    
C8    O39   S    
C9    C15   D    
Ba1   P2    S    
C27   C39   A    
C16   C20   A    
Ba1   O13   S    
C55   H59   S    
C3    H5    S    
C1    O33   S    
O10   P5    D    
O33   C53   S    
O6    P8    S    
C50   H40   S    
C9    C10   S    
C3    H45   S    
O28   C48   S    
C31   C36   A    
C45   H20   S    
C1    H32   S    
C31   C39   A    
C30   C31   A    
C63   H83   S    
O29   C49   S    
C61   H76   S    
C4    H49   S    
Ba2   O14   S    
O34   C54   S    
O36   C56   S    
C52   H47   S    
C57   H63   S    
C5    H56   S    
C18   C24   A    
O15   P7    S    
C8    O37   S    
Ba1   Ba2   S    
C55   H58   S    
C35   H88   S    
C16   O41   S    
O31   C51   S    
C54   H54   S    
C23   H16   S    
C12   C23   S    
C63   H82   S    
O42   C62   S    
C48   H34   S    
C61   H77   S    
O32   C52   S    
Ba1   O5    S    
C27   C28   A    
C3    O15   S    
C18   P4    S    
C60   H73   S    
C45   H22   S    
C18   C19   A    
C57   H65   S    
O25   C45   S    
O24   P3    D    
O26   C46   S    
C51   H43   S    
C54   H53   S    
C44   O29   S    
O12   P1    S    
C4    H6    S    
O41   C61   S    
C47   H26   S    
C7    O17   S    
C46   H25   S    
Ba2   O12   S    
O30   C50   S    
C30   C32   A    
C59   H70   S    
C2    H1    S    
