data_mof_unit_14169.cif
_audit_creation_date              2012-10-26T19:36:42-0400
_audit_creation_method            fapswitch 2.2
_symmetry_space_group_name_H-M    P1
_symmetry_Int_Tables_number       1
_space_group_crystal_system       triclinic
_cell_length_a                    17.721799
_cell_length_b                    16.483011
_cell_length_c                    10.871378
_cell_angle_alpha                 89.348643
_cell_angle_beta                  90.483979
_cell_angle_gamma                 89.670332
_cell_volume                      3175.25026165

loop_
_atom_site_label
_atom_site_type_symbol
_atom_type_description
_atom_site_fract_x
_atom_site_fract_y
_atom_site_fract_z
_atom_type_partial_charge
C1    C     C_R   0.355399 0.500237 0.496258 0.628390
C2    C     C_1   0.033295 0.501420 0.487649 0.190652
C3    C     C_R   0.153970 0.575028 0.499090 0.219696
C4    C     C_R   0.154451 0.427487 0.475511 0.225080
C5    C     C_R   0.232706 0.573943 0.500111 -0.070092
C6    C     C_R   0.233163 0.427944 0.479683 -0.076366
C7    C     C_R   0.272590 0.500731 0.492012 -0.032998
C8    C     C_R   0.502760 0.500439 0.259492 0.572748
C9    C     C_R   0.114324 0.501358 0.486781 0.005661
C10   C     C_R   0.552657 0.834113 0.542284 0.038260
C11   C     C_R   0.542083 0.163592 0.563414 0.091966
C12   C     C_3   0.578700 0.536437 0.921168 0.170957
C13   C     C_R   0.556825 0.747846 0.547810 0.275170
C14   C     C_R   0.548894 0.249298 0.566246 0.271792
C15   C     C_R   0.437784 0.738861 0.450129 0.086819
C16   C     C_R   0.445703 0.263819 0.428334 0.091891
C17   C     C_R   0.430198 0.824040 0.444480 0.207730
C18   C     C_R   0.438345 0.178662 0.419718 0.203789
C19   C     C_R   0.488665 0.873388 0.489964 -0.007005
C20   C     C_R   0.486837 0.127113 0.489245 0.026917
C21   C     C_1   0.483977 0.963086 0.485410 0.097796
C22   C     C_1   0.483123 0.037517 0.484754 0.134540
C23   C     C_R   0.842771 0.557484 0.420013 0.225857
C24   C     C_R   0.644369 0.499903 0.500229 0.535201
C25   C     C_R   0.498303 0.499216 0.739950 0.628929
C26   C     C_3   0.429123 0.540850 0.068520 0.045984
C27   C     C_3   0.504723 0.409905 0.073971 0.072562
C28   C     C_3   0.433791 0.551874 0.927837 0.084258
C29   C     C_3   0.495191 0.407613 0.931985 0.051224
C30   C     C_3   0.578455 0.546642 0.068355 0.190397
C31   C     C_3   0.505712 0.501185 0.121372 -0.050356
C32   C     C_3   0.499668 0.497732 0.876990 -0.069304
C33   C     C_R   0.846542 0.444405 0.568131 0.226736
C34   C     C_R   0.764121 0.557439 0.425648 -0.109480
C35   C     C_R   0.767787 0.444000 0.568724 -0.101175
C36   C     C_R   0.726643 0.500195 0.498053 -0.062077
C37   C     C_R   0.884541 0.500959 0.492319 0.001975
C38   C     C_1   0.965541 0.501278 0.489396 0.186677
Cu1   Cu    Cu3+1 0.499980 0.580420 0.499990 1.075237
Cu2   Cu    Cu3+1 0.499980 0.419580 0.499990 1.067402
H1    H     H_    0.263080 0.630460 0.508055 0.207369
H2    H     H_    0.738347 0.401068 0.626611 0.167608
H3    H     H_    0.358888 0.719298 0.996966 0.371819
H4    H     H_    0.658821 0.253876 0.056414 0.393048
H5    H     H_    0.592780 0.917658 0.660826 0.263395
H6    H     H_    0.634918 0.917743 0.521444 0.261264
H7    H     H_    0.588204 0.128881 0.726733 0.285423
H8    H     H_    0.647962 0.125174 0.606001 0.270159
H9    H     H_    0.668796 0.725879 0.555971 0.248526
H10   H     H_    0.626385 0.732282 0.694061 0.243941
H11   H     H_    0.650850 0.302527 0.573048 0.258222
H12   H     H_    0.263855 0.371174 0.473272 0.195063
H13   H     H_    0.592046 0.328658 0.690742 0.264556
H14   H     H_    0.239654 0.821964 0.312734 0.402927
H15   H     H_    0.286135 0.186967 0.190821 0.405328
H16   H     H_    0.272501 0.634386 0.753580 0.389787
H17   H     H_    0.358637 0.290125 0.738143 0.376080
H18   H     H_    0.625215 0.662023 0.068106 0.228917
H19   H     H_    0.583618 0.639845 0.195968 0.271295
H20   H     H_    0.694874 0.541279 0.087723 0.275326
H21   H     H_    0.649066 0.521045 0.217666 0.235132
H22   H     H_    0.647399 0.633367 0.870401 0.261247
H23   H     H_    0.392829 0.702465 0.414034 0.226453
H24   H     H_    0.556423 0.662207 0.885824 0.244716
H25   H     H_    0.647570 0.431121 0.934317 0.308341
H26   H     H_    0.639184 0.470278 0.790171 0.226984
H27   H     H_    0.851584 0.708633 0.172272 0.391278
H28   H     H_    0.867185 0.292999 0.814295 0.393916
H29   H     H_    0.140420 0.793021 0.551045 0.398758
H30   H     H_    0.140803 0.212285 0.402646 0.399109
H31   H     H_    0.408312 0.302791 0.375086 0.184724
H32   H     H_    0.384356 0.495556 0.086447 0.175002
H33   H     H_    0.452324 0.384589 0.114414 0.178678
H34   H     H_    0.448684 0.615827 0.911257 0.164082
H35   H     H_    0.542374 0.373636 0.891460 0.181161
H36   H     H_    0.731686 0.601258 0.371893 0.166934
N1    N     N_R   0.499970 0.701220 0.499970 -0.252317
N2    N     N_3   0.642717 0.484519 0.883446 -0.580765
N3    N     N_R   0.499970 0.298780 0.499970 -0.243414
N4    N     N_3   0.613860 0.880547 0.591569 -0.624351
N5    N     N_3   0.592858 0.113112 0.634205 -0.619700
N6    N     N_3   0.620708 0.709451 0.605224 -0.520968
N7    N     N_3   0.610517 0.281894 0.634999 -0.588642
N8    N     N_3   0.576909 0.633363 0.101256 -0.567899
N9    N     N_3   0.647788 0.511124 0.122874 -0.527977
N10   N     N_3   0.591445 0.615064 0.857690 -0.572712
O1    O     O_R   0.391240 0.567930 0.499990 -0.489988
O2    O     O_2   0.447983 0.692254 0.176749 -0.275877
O3    O     O_3   0.328381 0.679400 0.043447 -0.386281
O4    O     O_2   0.625505 0.367566 0.229368 -0.241258
O5    O     O_2   0.531938 0.264877 0.183695 -0.230902
O6    O     O_3   0.629078 0.298394 0.017377 -0.530860
O7    O     O_2   0.310228 0.919851 0.475208 -0.217314
O8    O     O_2   0.365633 0.916155 0.269383 -0.182515
O9    O     O_3   0.285783 0.792897 0.341134 -0.466549
O10   O     O_2   0.407284 0.085559 0.227193 -0.189999
O11   O     O_2   0.314070 0.090004 0.392492 -0.199347
O12   O     O_R   0.391240 0.432070 0.499990 -0.498935
O13   O     O_3   0.323150 0.214550 0.244539 -0.482022
O14   O     O_2   0.338500 0.479478 0.758391 -0.228602
O15   O     O_2   0.279884 0.533376 0.942162 -0.162980
O16   O     O_3   0.326797 0.634578 0.775923 -0.518709
O17   O     O_2   0.434218 0.259056 0.947887 -0.200400
O18   O     O_2   0.344727 0.371055 0.955334 -0.211665
O19   O     O_3   0.399900 0.330215 0.743898 -0.458517
O20   O     O_2   0.914632 0.698410 0.401212 -0.190265
O21   O     O_2   0.951389 0.592319 0.256517 -0.210428
O22   O     O_3   0.823607 0.667058 0.219667 -0.540296
O23   O     O_R   0.499970 0.567910 0.317690 -0.466827
O24   O     O_2   0.920691 0.303692 0.581417 -0.189081
O25   O     O_2   0.962222 0.410030 0.722529 -0.215382
O26   O     O_3   0.837076 0.335129 0.770147 -0.506128
O27   O     O_2   0.078683 0.694401 0.384900 -0.178143
O28   O     O_2   0.042492 0.663892 0.597762 -0.223999
O29   O     O_3   0.167936 0.740848 0.560939 -0.492669
O30   O     O_2   0.083872 0.304547 0.584797 -0.178079
O31   O     O_2   0.041382 0.340936 0.375776 -0.223211
O32   O     O_3   0.168960 0.264023 0.401963 -0.481168
O33   O     O_R   0.499970 0.432090 0.317690 -0.477433
O34   O     O_R   0.608730 0.567880 0.500000 -0.487243
O35   O     O_R   0.608730 0.432120 0.500000 -0.508291
O36   O     O_R   0.500000 0.567910 0.682300 -0.446823
O37   O     O_R   0.500000 0.432090 0.682300 -0.479793
O38   O     O_2   0.346184 0.605665 0.250671 -0.253039
S1    S     S_3+6 0.389564 0.631650 0.139155 0.071343
S2    S     S_3+6 0.108848 0.332836 0.459848 0.086973
S3    S     S_3+6 0.574767 0.335197 0.130310 0.046354
S4    S     S_3+6 0.346463 0.866349 0.381260 0.086541
S5    S     S_3+6 0.369358 0.139118 0.319278 0.088205
S6    S     S_3+6 0.342067 0.546009 0.850712 0.077662
S7    S     S_3+6 0.415706 0.341635 0.895377 0.072067
S8    S     S_3+6 0.886351 0.630138 0.323261 0.065573
S9    S     S_3+6 0.894948 0.372037 0.661414 0.074427
S10   S     S_3+6 0.107537 0.669991 0.510364 0.080611

loop_
_geom_bond_atom_site_label_1
_geom_bond_atom_site_label_2
_ccdc_geom_bond_type
C1    O1    A    
H17   O19   S    
C12   N10   S    
C27   C29   S    
C26   H32   S    
C35   C36   A    
Cu1   O1    S    
O26   S9    S    
C28   H34   S    
O19   S7    S    
O3    S1    S    
C11   N5    S    
O20   S8    D    
Cu2   O35   S    
H22   N10   S    
C24   C36   S    
Cu1   O36   S    
O5    S3    D    
Cu1   N1    S    
C19   C21   S    
C29   C32   S    
Cu2   O12   S    
C30   C31   S    
C11   C14   A    
O14   S6    D    
H27   O22   S    
Cu1   O34   S    
H8    N5    S    
H28   O26   S    
C35   H2    S    
C17   C19   A    
C27   S3    S    
O9    S4    S    
O18   S7    D    
C12   N2    S    
O4    S3    D    
O31   S2    D    
C28   S6    S    
H4    O6    S    
O15   S6    D    
C25   C32   S    
C26   C31   S    
O30   S2    D    
C21   C22   T    
C12   C32   S    
C16   H31   S    
C14   N7    S    
H24   N10   S    
H26   N2    S    
C13   N1    A    
C11   C20   A    
C24   O34   A    
O13   S5    S    
C27   C31   S    
C28   C32   S    
H19   N8    S    
C4    C6    A    
Cu1   Cu2   S    
C5    C7    A    
C10   N4    S    
O25   S9    D    
C23   C37   A    
C13   N6    S    
C33   C37   A    
C26   S1    S    
H9    N6    S    
C37   C38   S    
C3    C9    A    
H18   N8    S    
C2    C38   T    
C10   C19   A    
C23   C34   A    
O28   S10   D    
Cu2   N3    S    
H3    O3    S    
C14   N3    A    
C30   N9    S    
C25   O37   A    
H14   O9    S    
H21   N9    S    
C20   C22   S    
O27   S10   D    
O6    S3    S    
H11   N7    S    
H10   N6    S    
C25   O36   A    
C15   C17   A    
Cu2   O37   S    
C5    H1    S    
H29   O29   S    
H25   N2    S    
C12   C30   S    
C1    C7    S    
C8    C31   S    
O16   S6    S    
O21   S8    D    
C3    C5    A    
C10   C13   A    
C1    O12   A    
H20   N9    S    
C17   S4    S    
C6    C7    A    
C29   H35   S    
O29   S10   S    
O8    S4    D    
C26   C28   S    
C4    S2    S    
H13   N7    S    
C3    S10   S    
C16   N3    A    
O7    S4    D    
H16   O16   S    
C27   H33   S    
C8    O23   A    
H6    N4    S    
C15   N1    A    
H30   O32   S    
C24   O35   A    
C33   C35   A    
C34   C36   A    
C23   S8    S    
H5    N4    S    
C18   C20   A    
C29   S7    S    
H7    N5    S    
C30   N8    S    
O22   S8    S    
O2    S1    D    
O11   S5    D    
C33   S9    S    
Cu1   O23   S    
Cu2   O33   S    
C16   C18   A    
H15   O13   S    
C15   H23   S    
O10   S5    D    
C18   S5    S    
O32   S2    S    
C6    H12   S    
C4    C9    A    
O24   S9    D    
C2    C9    S    
O17   S7    D    
C8    O33   A    
C34   H36   S    
O38   S1    D    
