data_mof_unit_10080.cif
_audit_creation_date              2012-12-10T17:02:30-0500
_audit_creation_method            fapswitch 2.2
_symmetry_space_group_name_H-M    P1
_symmetry_Int_Tables_number       1
_space_group_crystal_system       triclinic
_cell_length_a                    10.767278
_cell_length_b                    11.008816
_cell_length_c                    9.883232
_cell_angle_alpha                 111.794394
_cell_angle_beta                  98.091459
_cell_angle_gamma                 91.236425
_cell_volume                      1073.46318876

loop_
_atom_site_label
_atom_site_type_symbol
_atom_type_description
_atom_site_fract_x
_atom_site_fract_y
_atom_site_fract_z
_atom_type_partial_charge
C1    C     C_R   0.489523 0.253196 0.439371 0.808859
C2    C     C_R   0.508018 0.746809 0.560666 0.802918
C3    C     C_2   0.479806 0.111271 0.402904 -0.010632
C4    C     C_2   0.507489 0.888571 0.597170 0.014863
C5    C     C_2   0.465693 0.068672 0.511166 -0.127143
C6    C     C_2   0.463437 0.929778 0.488845 -0.097088
C7    C     C_2   0.511046 0.511470 0.082622 0.379104
C8    C     C_2   0.488514 0.489066 0.917567 0.381097
C9    C     C_R   0.263170 0.500078 0.501259 0.778805
C10   C     C_R   0.736823 0.499933 0.498748 0.782725
C11   C     C_R   0.143674 0.740639 0.570216 -0.150604
C12   C     C_R   0.856302 0.259340 0.429722 -0.149844
C13   C     C_R   0.086423 0.858476 0.601473 0.446224
C14   C     C_R   0.913665 0.141571 0.398835 0.447913
C15   C     C_R   0.955771 0.857236 0.597424 -0.251303
C16   C     C_R   0.044361 0.142911 0.403321 -0.252731
C17   C     C_R   0.884125 0.739572 0.562501 -0.180645
C18   C     C_R   0.115948 0.260574 0.438180 -0.180663
C19   C     C_R   0.941346 0.619606 0.531199 0.068939
C20   C     C_R   0.058657 0.380456 0.469040 0.070689
C21   C     C_R   0.072462 0.620130 0.535038 -0.021664
C22   C     C_R   0.927514 0.379886 0.464992 -0.022899
C23   C     C_R   0.870363 0.499538 0.496369 -0.129151
C24   C     C_R   0.129620 0.500488 0.503670 -0.127409
Cu1   Cu    Cu3+1 0.521920 0.521810 0.644910 0.987891
Cu2   Cu    Cu3+1 0.478080 0.478190 0.355090 0.986556
H1    H     H_    0.091077 0.052869 0.379891 0.160215
H2    H     H_    0.909139 0.947351 0.621247 0.161381
H3    H     H_    0.244614 0.744964 0.574527 0.135258
H4    H     H_    0.755297 0.254928 0.425126 0.140318
H5    H     H_    0.783616 0.743797 0.560326 0.153680
H6    H     H_    0.216479 0.256427 0.440723 0.148904
H7    H     H_    0.428732 0.858781 0.378524 0.170394
H8    H     H_    0.460279 0.138725 0.621287 0.200620
H9    H     H_    0.619162 0.629637 0.932383 0.159763
H10   H     H_    0.381532 0.369760 0.067383 0.160702
N1    N     N_2   0.445130 0.445420 0.137360 -0.285093
N2    N     N_2   0.554870 0.554580 0.862640 -0.282391
O1    O     O_R   0.511700 0.332340 0.577400 -0.539526
O2    O     O_R   0.488300 0.667660 0.422600 -0.538828
O3    O     O_R   0.474680 0.295500 0.332650 -0.581259
O4    O     O_R   0.525320 0.704500 0.667350 -0.580231
O5    O     O_R   0.338170 0.518410 0.622370 -0.527794
O6    O     O_R   0.661830 0.481590 0.377630 -0.528097
O7    O     O_R   0.301150 0.481570 0.377630 -0.581319
O8    O     O_R   0.698850 0.518430 0.622370 -0.579650
O9    O     O_3   0.160767 0.972815 0.635832 -0.746580
H11   H     H_    0.106537 0.047223 0.656356 0.322672
O10   O     O_3   0.839413 0.027195 0.364520 -0.747885
H12   H     H_    0.893709 0.952844 0.344172 0.322789
C25   C     C_3   0.557566 0.983748 0.752612 -0.837017
H13   H     H_    0.596328 0.932720 0.825281 0.244594
H14   H     H_    0.634684 0.051350 0.750465 0.236162
H15   H     H_    0.480744 0.041439 0.802180 0.251604
C26   C     C_3   0.488820 0.017651 0.247709 -0.805689
H16   H     H_    0.508296 0.070264 0.175572 0.244551
H17   H     H_    0.566731 0.953684 0.250502 0.271722
H18   H     H_    0.398840 0.955970 0.197147 0.224931
O11   O     O_3   0.395035 0.398128 0.821182 -0.697431
H19   H     H_    0.321762 0.401660 0.872194 0.290844
O12   O     O_3   0.603850 0.603152 0.179236 -0.687561
H20   H     H_    0.677502 0.599604 0.128821 0.290440

loop_
_geom_bond_atom_site_label_1
_geom_bond_atom_site_label_2
_ccdc_geom_bond_type
Cu1   O4    S    
C10   O8    A    
C19   C23   A    
C26   H16   S    
Cu2   N1    S    
C9    O7    A    
C2    O2    A    
C10   C23   S    
C2    C4    S    
O9    H11   S    
C6    H7    S    
C3    C5    D    
C25   H15   S    
C5    H8    S    
Cu1   O5    S    
C16   H1    S    
C26   H17   S    
C7    N1    D    
Cu2   O6    S    
C7    C8    S    
C9    C24   S    
Cu1   O1    S    
C20   C24   A    
C11   C13   A    
Cu2   O2    S    
C15   H2    S    
O12   H20   S    
C8    N2    D    
C2    O4    A    
C1    O3    A    
H10   N1    S    
C19   C21   A    
C12   C14   A    
O10   H12   S    
C18   C20   A    
C13   C15   A    
C8    O11   S    
C5    C6    S    
C17   H5    S    
C14   C16   A    
C9    O5    A    
C14   O10   S    
C18   H6    S    
C1    O1    A    
C4    C25   S    
C10   O6    A    
C25   H13   S    
C12   C22   A    
O11   H19   S    
H9    N2    S    
C3    C26   S    
C11   H3    S    
C16   C18   A    
C4    C6    D    
C21   C24   A    
C15   C17   A    
C26   H18   S    
C22   C23   A    
C17   C19   A    
Cu2   O7    S    
C12   H4    S    
Cu1   Cu2   S    
C13   O9    S    
Cu1   O8    S    
C11   C21   A    
C7    O12   S    
C25   H14   S    
Cu2   O3    S    
C20   C22   A    
C1    C3    S    
Cu1   N2    S    
