data_mof_unit_43769.cif
_audit_creation_date              2012-12-10T17:32:15-0500
_audit_creation_method            fapswitch 2.2
_symmetry_space_group_name_H-M    P1
_symmetry_Int_Tables_number       1
_space_group_crystal_system       triclinic
_cell_length_a                    12.350486
_cell_length_b                    13.162974
_cell_length_c                    15.071885
_cell_angle_alpha                 76.247967
_cell_angle_beta                  101.500454
_cell_angle_gamma                 117.24091
_cell_volume                      2104.35244373

loop_
_atom_site_label
_atom_site_type_symbol
_atom_type_description
_atom_site_fract_x
_atom_site_fract_y
_atom_site_fract_z
_atom_type_partial_charge
C1    C     C_R   0.855337 0.286384 0.506565 0.815585
C2    C     C_R   0.909312 0.517145 0.074370 0.113932
C3    C     C_R   0.177727 0.454985 0.086168 -0.245962
C4    C     C_R   0.177777 0.450602 0.994282 -0.008239
C5    C     C_R   0.089359 0.473366 0.927088 0.025604
C6    C     C_R   0.999436 0.494972 0.954444 0.052767
C7    C     C_R   0.909972 0.516834 0.888942 0.110256
C8    C     C_R   0.820638 0.536912 0.916621 -0.204489
C9    C     C_R   0.820160 0.536839 0.008887 -0.197413
C10   C     C_R   0.089799 0.478602 0.833180 -0.212416
C11   C     C_R   0.000643 0.499726 0.768383 -0.063910
C12   C     C_R   0.000639 0.500748 0.671149 0.865120
C13   C     C_R   0.911289 0.518911 0.796549 -0.188523
C14   C     C_R   0.285622 0.027014 0.363710 -0.221337
C15   C     C_R   0.229783 0.838352 0.461331 -0.121866
C16   C     C_R   0.815402 0.081588 0.564237 -0.153361
C17   C     C_R   0.736759 0.964271 0.577608 -0.128671
C18   C     C_R   0.615241 0.926447 0.540011 -0.183201
C19   C     C_R   0.571577 0.005877 0.484350 0.072069
C20   C     C_R   0.657172 0.122133 0.459160 0.067924
C21   C     C_R   0.445579 0.974835 0.454657 0.075732
C22   C     C_R   0.409826 0.054507 0.390310 0.141230
C23   C     C_R   0.145502 0.714629 0.484830 0.800136
C24   C     C_R   0.498515 0.162057 0.354624 -0.177919
C25   C     C_R   0.620820 0.195702 0.388575 -0.146059
C26   C     C_R   0.353905 0.868967 0.490610 -0.250825
C27   C     C_R   0.194641 0.920603 0.399870 -0.007767
C28   C     C_R   0.775698 0.162064 0.507442 -0.108019
C29   C     C_R   0.380160 0.395762 0.676890 -0.262586
C30   C     C_R   0.750446 0.629492 0.364670 0.088738
C31   C     C_R   0.650492 0.654952 0.331946 -0.245067
C32   C     C_R   0.552380 0.610621 0.383969 -0.183534
C33   C     C_R   0.554119 0.541695 0.470786 -0.001166
C34   C     C_R   0.000167 0.500250 0.328814 0.792035
C35   C     C_R   0.658427 0.516822 0.502402 0.220385
C36   C     C_R   0.455327 0.494544 0.527161 -0.024632
C37   C     C_R   0.474977 0.447562 0.620143 0.142220
C38   C     C_R   0.585847 0.442949 0.654078 -0.341639
C39   C     C_R   0.660550 0.450525 0.592389 -0.023349
C40   C     C_R   0.337466 0.490810 0.496087 0.028042
C41   C     C_R   0.265315 0.389623 0.641275 0.089611
C42   C     C_R   0.910129 0.518459 0.166667 -0.236858
C43   C     C_R   0.999900 0.499390 0.232052 -0.067184
C44   C     C_R   0.089270 0.478824 0.204861 -0.219232
C45   C     C_R   0.089372 0.476875 0.112872 0.077603
C46   C     C_R   0.999265 0.496032 0.047229 0.070379
Cu1   Cu    Cu3+1 0.098270 0.475420 0.521130 0.946350
Cu2   Cu    Cu3+1 0.901730 0.524580 0.478870 0.973093
H1    H     H_    0.840831 0.534401 0.187371 0.156280
H2    H     H_    0.472815 0.222243 0.302835 0.146957
H3    H     H_    0.259294 0.089883 0.316007 0.158527
H4    H     H_    0.376977 0.808102 0.542728 0.160199
H5    H     H_    0.906819 0.109561 0.600120 0.163705
H6    H     H_    0.558381 0.834476 0.554208 0.134851
H7    H     H_    0.768796 0.902737 0.620452 0.153160
H8    H     H_    0.686184 0.280154 0.359352 0.159540
H9    H     H_    0.192845 0.351461 0.685663 0.149728
H10   H     H_    0.596025 0.401395 0.724790 0.165860
H11   H     H_    0.394085 0.358147 0.747989 0.162423
H12   H     H_    0.158841 0.463983 0.255248 0.154838
H13   H     H_    0.317192 0.530458 0.427587 0.117988
H14   H     H_    0.825664 0.664591 0.323216 0.150494
H15   H     H_    0.477940 0.634350 0.356270 0.137960
H16   H     H_    0.649143 0.709427 0.265836 0.163159
H17   H     H_    0.245379 0.438406 0.137751 0.174292
H18   H     H_    0.160504 0.468528 0.809229 0.185579
H19   H     H_    0.843043 0.536417 0.746561 0.160939
H20   H     H_    0.751373 0.553053 0.866801 0.147211
H21   H     H_    0.750534 0.552803 0.028975 0.153587
N1    N     N_R   0.246280 0.438190 0.553160 -0.190134
N2    N     N_R   0.754320 0.561190 0.447410 -0.211265
O1    O     O_R   0.972510 0.318130 0.526570 -0.577971
O2    O     O_R   0.806530 0.359650 0.490890 -0.575681
O3    O     O_R   0.082980 0.479210 0.647590 -0.602810
O4    O     O_R   0.917000 0.520730 0.611900 -0.577989
O5    O     O_R   0.193470 0.640350 0.509110 -0.586571
O6    O     O_R   0.027490 0.681870 0.473430 -0.550542
O7    O     O_R   0.083000 0.479270 0.388100 -0.592825
O8    O     O_R   0.917020 0.520790 0.352410 -0.611463
C47   C     C_2   0.667514 0.339041 0.608897 0.920696
O9    O     O_2   0.734570 0.315916 0.673544 -0.619554
O10   O     O_R   0.580401 0.252431 0.560520 -0.756707
H22   H     H_    0.577929 0.173530 0.588679 0.329819
C48   C     C_2   0.270212 0.419596 0.972999 0.831144
O11   O     O_2   0.241687 0.351744 0.920121 -0.614464
O12   O     O_R   0.389104 0.463851 0.017550 -0.770420
H23   H     H_    0.443524 0.435476 0.998708 0.329651
C49   C     C_2   0.065559 0.900870 0.372912 0.844853
O13   O     O_2   0.028468 0.916852 0.291675 -0.608672
O14   O     O_R   0.988275 0.870600 0.440533 -0.739162
H24   H     H_    0.903409 0.863192 0.413706 0.329199

loop_
_geom_bond_atom_site_label_1
_geom_bond_atom_site_label_2
_ccdc_geom_bond_type
C16   C28   A    
C21   C26   A    
C12   O3    A    
C19   C20   A    
C25   H8    S    
C23   O5    A    
C30   N2    A    
C7    C8    A    
C45   C46   A    
C2    C46   A    
C40   N1    A    
C5    C6    A    
Cu2   O8    S    
C36   C37   A    
C19   C21   A    
C9    H21   S    
Cu1   O5    S    
C30   C31   A    
C20   C25   A    
C33   C36   A    
C18   C19   A    
C16   H5    S    
C38   H10   S    
C48   O11   D    
Cu1   Cu2   S    
C8    C9    A    
C1    C28   S    
C14   C27   A    
C17   H7    S    
C15   C23   S    
C35   N2    A    
C21   C22   A    
Cu2   O4    S    
C3    H17   S    
Cu2   O2    S    
C10   H18   S    
C24   H2    S    
C44   H12   S    
C1    O1    A    
C29   H11   S    
C36   C40   A    
C24   C25   A    
Cu1   O3    S    
C47   O10   S    
O12   H23   S    
C16   C17   A    
C15   C26   A    
C20   C28   A    
C3    C45   A    
C40   H13   S    
Cu2   O6    S    
C35   C39   A    
C43   C44   A    
Cu1   N1    S    
C37   C38   A    
C26   H4    S    
C34   O8    A    
C15   C27   A    
C14   H3    S    
C4    C48   S    
C7    C13   A    
C17   C18   A    
C23   O6    A    
C49   O14   S    
C8    H20   S    
C30   H14   S    
C22   C24   A    
C42   C43   A    
Cu2   N2    S    
C3    C4    A    
C44   C45   A    
C13   H19   S    
C6    C46   A    
C29   C41   A    
C31   H16   S    
C31   C32   A    
C34   C43   S    
C32   H15   S    
C48   O12   S    
C47   O9    D    
C11   C12   S    
C6    C7    A    
C1    O2    A    
C39   C47   S    
C14   C22   A    
C41   H9    S    
C5    C10   A    
C32   C33   A    
C11   C13   A    
O14   H24   S    
C38   C39   A    
C2    C42   A    
C33   C35   A    
C27   C49   S    
Cu1   O1    S    
C10   C11   A    
C18   H6    S    
C42   H1    S    
C4    C5    A    
C49   O13   D    
O10   H22   S    
C12   O4    A    
C29   C37   A    
Cu1   O7    S    
C2    C9    A    
C34   O7    A    
C41   N1    A    
