data_mof_unit_8436.cif
_audit_creation_date              2012-12-10T18:33:34-0500
_audit_creation_method            fapswitch 2.2
_symmetry_space_group_name_H-M    P1
_symmetry_Int_Tables_number       1
_space_group_crystal_system       triclinic
_cell_length_a                    8.767179
_cell_length_b                    15.092755
_cell_length_c                    13.87951
_cell_angle_alpha                 90.128246
_cell_angle_beta                  96.922488
_cell_angle_gamma                 89.895519
_cell_volume                      1823.15400703

loop_
_atom_site_label
_atom_site_type_symbol
_atom_type_description
_atom_site_fract_x
_atom_site_fract_y
_atom_site_fract_z
_atom_type_partial_charge
C1    C     C_R   0.503836 0.329634 0.500095 0.880669
C2    C     C_R   0.500009 0.669674 0.500149 0.886943
C3    C     C_R   0.546451 0.577793 0.111938 0.008023
C4    C     C_R   0.359623 0.487103 0.881644 0.013072
C5    C     C_R   0.546207 0.574021 0.213833 0.106869
C6    C     C_R   0.365748 0.487971 0.780194 0.073609
C7    C     C_R   0.456268 0.426736 0.204735 0.129828
C8    C     C_R   0.632745 0.512322 0.802231 0.074979
C9    C     C_R   0.458677 0.425950 0.103689 -0.283259
C10   C     C_R   0.633440 0.512090 0.903631 -0.312305
C11   C     C_R   0.500735 0.501983 0.054805 0.072707
C12   C     C_R   0.496789 0.500216 0.945566 0.099956
C13   C     C_R   0.204374 0.500901 0.476026 0.904466
C14   C     C_R   0.795428 0.498303 0.523636 0.889260
C15   C     C_2   0.041538 0.514412 0.465257 0.148141
C16   C     C_2   0.957340 0.482545 0.532615 0.085437
C17   C     C_R   0.456206 0.095387 0.582018 0.428211
C18   C     C_R   0.651070 0.900798 0.513193 0.435190
C19   C     C_R   0.453365 0.187482 0.577794 -0.241644
C20   C     C_R   0.644496 0.808661 0.509386 -0.272797
C21   C     C_R   0.509467 0.232445 0.500890 -0.179173
C22   C     C_R   0.502539 0.765520 0.501032 -0.181268
C23   C     C_R   0.571655 0.183430 0.427926 0.381471
C24   C     C_R   0.365495 0.814243 0.496312 0.374304
C25   C     C_R   0.572164 0.091296 0.431742 -0.171053
C26   C     C_R   0.371658 0.906308 0.498745 -0.155872
C27   C     C_R   0.515128 0.046963 0.508195 -0.006912
C28   C     C_R   0.513636 0.949981 0.507719 -0.027873
Cu1   Cu    Cu3+1 0.500000 0.499990 0.596430 1.009649
Cu2   Cu    Cu3+1 0.500000 0.500010 0.403570 1.038565
H1    H     H_    0.406367 0.223959 0.634792 0.211639
H2    H     H_    0.750057 0.770533 0.514003 0.210239
H3    H     H_    0.617873 0.053831 0.374940 0.201258
H4    H     H_    0.265695 0.944051 0.493697 0.223586
H5    H     H_    0.582206 0.631587 0.257001 0.150670
H6    H     H_    0.260708 0.480007 0.732718 0.191358
H7    H     H_    0.419347 0.367972 0.239602 0.168128
H8    H     H_    0.740063 0.522830 0.773256 0.152941
H9    H     H_    0.427324 0.365835 0.063783 0.162731
H10   H     H_    0.741080 0.521429 0.949399 0.152871
N1    N     N_R   0.500000 0.500020 0.258690 -0.192210
N2    N     N_R   0.500000 0.499980 0.741310 -0.188838
O1    O     O_R   0.500010 0.371450 0.581430 -0.574470
O2    O     O_R   0.499990 0.628550 0.418570 -0.588724
O3    O     O_R   0.500010 0.371460 0.418560 -0.564465
O4    O     O_R   0.499990 0.628540 0.581440 -0.569099
O5    O     O_R   0.274840 0.499990 0.562640 -0.583457
O6    O     O_R   0.725160 0.500010 0.437360 -0.541805
O7    O     O_R   0.274840 0.500000 0.399770 -0.559331
O8    O     O_R   0.725160 0.500000 0.600230 -0.589253
Cl1   Cl    Cl    0.968243 0.586099 0.369200 -0.579708
Cl2   Cl    Cl    0.026158 0.402563 0.620410 -0.660829
Cl3   Cl    Cl    0.388542 0.043097 0.681987 -0.534150
Cl4   Cl    Cl    0.832872 0.952022 0.527967 -0.513429
Cl5   Cl    Cl    0.657714 0.233077 0.333078 -0.581252
Cl6   Cl    Cl    0.185030 0.762012 0.487912 -0.536006
C29   C     C_3   0.590275 0.664431 0.067935 -0.448422
C30   C     C_3   0.762550 0.683214 0.092972 -0.335965
C31   C     C_3   0.809428 0.766715 0.042307 -0.750717
H11   H     H_    0.787341 0.758579 0.962268 0.256407
H12   H     H_    0.744079 0.824846 0.064658 0.265998
H13   H     H_    0.933997 0.779071 0.062570 0.253323
H14   H     H_    0.790532 0.692169 0.172645 0.257826
H15   H     H_    0.831009 0.626458 0.070452 0.227606
H16   H     H_    0.559956 0.664860 0.988022 0.227232
H17   H     H_    0.522892 0.718932 0.096559 0.208775
C32   C     C_3   0.204268 0.474924 0.917077 -0.457623
C33   C     C_3   0.148740 0.378848 0.902176 -0.317707
C34   C     C_3   0.988673 0.366818 0.932509 -0.752726
H18   H     H_    0.986496 0.387959 0.009054 0.250927
H19   H     H_    0.904248 0.406249 0.884408 0.252250
H20   H     H_    0.955274 0.295949 0.925685 0.264873
H21   H     H_    0.145226 0.359682 0.824651 0.269074
H22   H     H_    0.229281 0.333215 0.945364 0.223154
H23   H     H_    0.206965 0.493287 0.994697 0.217257
H24   H     H_    0.120343 0.520474 0.876015 0.210872

loop_
_geom_bond_atom_site_label_1
_geom_bond_atom_site_label_2
_ccdc_geom_bond_type
C1    C21   S    
Cu1   N2    S    
Cu2   O3    S    
C29   H17   S    
C19   H1    S    
C2    O4    A    
Cu1   O5    S    
Cu2   O6    S    
C19   C21   A    
C24   C26   A    
C33   H22   S    
C15   C16   D    
C9    H9    S    
C10   H10   S    
C34   H19   S    
C1    O1    A    
C2    O2    A    
C33   C34   S    
C2    C22   S    
Cu2   N1    S    
C15   Cl1   S    
C4    C12   A    
C18   C20   A    
C23   C25   A    
C31   H11   S    
Cu1   O1    S    
Cu2   O2    S    
C8    H8    S    
C26   H4    S    
Cu1   O8    S    
C30   H15   S    
C31   H12   S    
C32   C33   S    
C17   C27   A    
C18   C28   A    
C4    C6    A    
C29   H16   S    
C13   O5    A    
C14   O6    A    
C33   H21   S    
C34   H20   S    
Cu1   Cu2   S    
C7    H7    S    
C9    C11   A    
C10   C12   A    
C13   O7    A    
C3    C29   S    
Cu2   O7    S    
C20   C22   A    
C13   C15   S    
C22   C24   A    
C32   H23   S    
C17   Cl3   S    
C20   H2    S    
C30   H14   S    
C7    C9    A    
C5    N1    A    
C31   H13   S    
C16   Cl2   S    
C8    N2    A    
C3    C5    A    
C4    C32   S    
C11   C12   S    
C23   Cl5   S    
C25   C27   A    
C26   C28   A    
Cu1   O4    S    
C21   C23   A    
C30   C31   S    
C1    O3    A    
C29   C30   S    
C14   O8    A    
C24   Cl6   S    
C5    H5    S    
C17   C19   A    
C6    H6    S    
C14   C16   S    
C7    N1    A    
C34   H18   S    
C3    C11   A    
C18   Cl4   S    
C8    C10   A    
C6    N2    A    
C27   C28   S    
C32   H24   S    
C25   H3    S    
