data_mof_unit_50230.cif
_audit_creation_date              2012-10-26T20:57:26-0400
_audit_creation_method            fapswitch 2.2
_symmetry_space_group_name_H-M    P1
_symmetry_Int_Tables_number       1
_space_group_crystal_system       triclinic
_cell_length_a                    14.838737
_cell_length_b                    14.833141
_cell_length_c                    15.838023
_cell_angle_alpha                 74.557786
_cell_angle_beta                  102.336795
_cell_angle_gamma                 115.723706
_cell_volume                      3007.8048873

loop_
_atom_site_label
_atom_site_type_symbol
_atom_type_description
_atom_site_fract_x
_atom_site_fract_y
_atom_site_fract_z
_atom_type_partial_charge
C1    C     C_R   0.880509 0.312229 0.514413 0.552965
C2    C     C_R   0.360223 0.924697 0.483493 -0.011012
C3    C     C_R   0.676067 0.997042 0.553048 0.041047
C4    C     C_R   0.324753 0.002397 0.437882 0.050866
C5    C     C_R   0.535944 0.049861 0.480391 0.000434
C6    C     C_R   0.465910 0.948267 0.503574 0.001908
C7    C     C_R   0.503733 0.871863 0.540385 -0.095572
C8    C     C_R   0.498979 0.123363 0.429966 -0.106362
C9    C     C_R   0.606673 0.893991 0.561834 0.156019
C10   C     C_R   0.396459 0.102349 0.410598 0.138962
C11   C     C_R   0.705889 0.645913 0.333612 -0.144803
C12   C     C_R   0.119539 0.687825 0.486072 0.547358
C13   C     C_R   0.295513 0.355322 0.665472 -0.142028
C14   C     C_R   0.793953 0.631073 0.368725 0.020713
C15   C     C_R   0.207615 0.370724 0.632135 0.021875
C16   C     C_R   0.999845 0.499866 0.659734 0.564708
C17   C     C_R   0.000126 0.500062 0.340295 0.557839
C18   C     C_R   0.713027 0.509550 0.490541 0.190456
C19   C     C_R   0.284098 0.487090 0.506045 0.191042
C20   C     C_R   0.627708 0.535324 0.464882 -0.036215
C21   C     C_R   0.370891 0.463189 0.531785 -0.050116
C22   C     C_R   0.620221 0.594508 0.379510 0.034176
C23   C     C_R   0.780040 0.025518 0.587167 0.059310
C24   C     C_R   0.379960 0.406107 0.618156 0.036974
C25   C     C_R   0.546170 0.497167 0.517653 -0.015943
C26   C     C_R   0.452246 0.500597 0.478556 -0.031907
C27   C     C_R   0.441693 0.537670 0.386927 -0.096816
C28   C     C_R   0.557350 0.459338 0.609024 -0.093523
C29   C     C_R   0.525346 0.593001 0.338846 0.149217
C30   C     C_R   0.474506 0.405931 0.657726 0.147502
C31   C     C_3   0.996857 0.409360 0.048653 0.068383
C32   C     C_3   0.004150 0.590310 0.951763 0.070721
C33   C     C_3   0.917904 0.426363 0.973326 0.120316
C34   C     C_R   0.218553 0.975188 0.417403 0.071732
C35   C     C_3   0.083085 0.573262 0.027097 0.123261
C36   C     C_1   0.000170 0.500478 0.749208 0.034622
C37   C     C_1   0.999937 0.499370 0.250896 0.033631
C38   C     C_3   0.082507 0.485465 0.991531 -0.132294
C39   C     C_3   0.918467 0.514169 0.008846 -0.133157
C40   C     C_3   0.001616 0.501856 0.916248 0.001151
C41   C     C_3   0.999333 0.497789 0.084120 0.001621
C42   C     C_1   0.000821 0.501130 0.824674 0.017559
C43   C     C_1   0.999689 0.498610 0.175555 0.017333
C44   C     C_R   0.813049 0.203440 0.524349 -0.023620
C45   C     C_R   0.847088 0.128005 0.570314 -0.132600
C46   C     C_R   0.187126 0.796773 0.475265 -0.022869
C47   C     C_3   0.751355 0.292213 0.999515 -0.293479
C48   C     C_3   0.249965 0.707276 0.001527 -0.295045
C49   C     C_2   0.291779 0.581281 0.439785 0.605432
C50   C     C_2   0.699626 0.410655 0.551679 0.589951
C51   C     C_2   0.992612 0.307610 0.101225 0.576619
C52   C     C_2   0.008536 0.692159 0.899335 0.571094
C53   C     C_3   0.579068 0.711609 0.624759 -0.272968
C54   C     C_3   0.400876 0.273282 0.388313 -0.243502
C55   C     C_2   0.820595 0.954279 0.649698 0.592617
C56   C     C_R   0.152133 0.872367 0.432319 -0.141300
C57   C     C_2   0.171969 0.050017 0.383465 0.616479
C58   C     C_3   0.417763 0.613002 0.196536 -0.289855
C59   C     C_3   0.570530 0.329624 0.781977 -0.277805
C60   C     C_R   0.711934 0.176431 0.492403 -0.138036
C61   C     C_R   0.288494 0.824461 0.506778 -0.108930
C62   C     C_R   0.641002 0.074797 0.507279 -0.017208
Cu1   Cu    Cu3+1 0.081740 0.475690 0.522610 0.998868
Cu2   Cu    Cu3+1 0.918260 0.524310 0.477390 1.002398
H1    H     H_    0.143793 0.333232 0.669831 0.138117
H2    H     H_    0.690699 0.238022 0.457652 0.162946
H3    H     H_    0.072257 0.851533 0.411951 0.155009
H4    H     H_    0.925345 0.149669 0.597853 0.157898
H5    H     H_    0.454833 0.792884 0.548782 0.160923
H6    H     H_    0.547860 0.198433 0.400426 0.130826
H7    H     H_    0.845115 0.298740 0.915316 0.278695
H8    H     H_    0.685954 0.234201 0.967770 0.140422
H9    H     H_    0.725312 0.345838 0.013760 0.148431
H10   H     H_    0.780085 0.252814 0.062113 0.171263
H11   H     H_    0.156077 0.700440 0.085776 0.273637
H12   H     H_    0.858937 0.669730 0.332439 0.139708
H13   H     H_    0.316241 0.763324 0.034482 0.142284
H14   H     H_    0.222194 0.748864 0.939803 0.174601
H15   H     H_    0.274445 0.653445 0.985521 0.146157
H16   H     H_    0.255083 0.647184 0.316242 0.325670
H17   H     H_    0.612421 0.260077 0.580434 0.333931
H18   H     H_    0.988235 0.214350 0.220386 0.357252
H19   H     H_    0.013264 0.785728 0.780319 0.359117
H20   H     H_    0.686583 0.817648 0.539821 0.260408
H21   H     H_    0.626623 0.667960 0.654697 0.157188
H22   H     H_    0.521293 0.671470 0.574917 0.164442
H23   H     H_    0.704846 0.695009 0.269538 0.128610
H24   H     H_    0.542645 0.714314 0.677935 0.164318
H25   H     H_    0.379455 0.193942 0.290529 0.251120
H26   H     H_    0.357574 0.318772 0.349557 0.152747
H27   H     H_    0.481933 0.320268 0.381329 0.157344
H28   H     H_    0.388262 0.255577 0.458657 0.211812
H29   H     H_    0.806326 0.846740 0.761096 0.350822
H30   H     H_    0.152815 0.169294 0.402814 0.344856
H31   H     H_    0.557619 0.720974 0.237333 0.253991
H32   H     H_    0.427661 0.648948 0.126209 0.145814
H33   H     H_    0.368010 0.639053 0.217892 0.172299
H34   H     H_    0.297623 0.305857 0.729261 0.136489
H35   H     H_    0.382480 0.528855 0.201882 0.163725
H36   H     H_    0.467664 0.387914 0.791865 0.246068
H37   H     H_    0.555958 0.276269 0.846453 0.144085
H38   H     H_    0.641060 0.397479 0.792068 0.166154
H39   H     H_    0.579129 0.289680 0.735931 0.186410
H40   H     H_    0.367921 0.522198 0.352185 0.156863
H41   H     H_    0.631493 0.473240 0.643594 0.142007
H42   H     H_    0.851503 0.525232 0.016474 0.125149
H43   H     H_    0.149442 0.474342 0.983920 0.123767
H44   H     H_    0.308980 0.765030 0.549430 0.152745
N1    N     N_R   0.795440 0.560790 0.443380 -0.258234
N2    N     N_R   0.204560 0.439210 0.556620 -0.258054
N3    N     N_2   0.828753 0.346371 0.940750 -0.503678
N4    N     N_2   0.172283 0.652963 0.059993 -0.509047
N5    N     N_2   0.641713 0.813705 0.583386 -0.481109
N6    N     N_2   0.366944 0.180234 0.355220 -0.494137
N7    N     N_2   0.515088 0.643367 0.248805 -0.527329
N8    N     N_2   0.486718 0.359584 0.748672 -0.532535
O1    O     O_R   0.977900 0.338120 0.529810 -0.509153
O2    O     O_R   0.241426 0.577013 0.354761 -0.700442
O3    O     O_2   0.752303 0.406665 0.621971 -0.518979
O4    O     O_R   0.618273 0.322340 0.532139 -0.752986
O5    O     O_2   0.990918 0.244627 0.063796 -0.501803
O6    O     O_R   0.990818 0.285252 0.192437 -0.696553
O7    O     O_2   0.010119 0.755008 0.936863 -0.510560
O8    O     O_R   0.010603 0.714774 0.808151 -0.694808
O9    O     O_2   0.899621 0.953799 0.639055 -0.511769
O10   O     O_R   0.770925 0.891197 0.723023 -0.663883
O11   O     O_2   0.114755 0.044825 0.315054 -0.507778
O12   O     O_R   0.022100 0.661880 0.470190 -0.511442
O13   O     O_R   0.189526 0.123125 0.432171 -0.674694
O14   O     O_R   0.839850 0.379180 0.491620 -0.482759
O15   O     O_R   0.160150 0.620820 0.508380 -0.482212
O16   O     O_R   0.069010 0.479460 0.640020 -0.526104
O17   O     O_R   0.930990 0.520540 0.359980 -0.524602
O18   O     O_R   0.930960 0.520530 0.601820 -0.436452
O19   O     O_R   0.069040 0.479470 0.398180 -0.437389
O20   O     O_2   0.349960 0.663755 0.457853 -0.577824

loop_
_geom_bond_atom_site_label_1
_geom_bond_atom_site_label_2
_ccdc_geom_bond_type
C14   N1    A    
C21   C26   A    
C34   C56   A    
H20   N5    S    
C23   C45   A    
C12   O15   A    
C27   C29   A    
C36   C42   T    
H36   N8    S    
C18   N1    A    
C16   O18   A    
C39   C41   S    
C30   N8    S    
C25   C28   A    
H17   O4    S    
C26   C27   A    
C33   C39   S    
C50   O4    S    
C48   H15   S    
C57   O13   S    
C22   C29   A    
C54   H26   S    
C5    C6    A    
Cu1   O1    S    
C11   C14   A    
C3    C62   A    
C20   C25   A    
C15   H1    S    
C27   H40   S    
C38   H43   S    
C60   C62   A    
C32   C39   S    
C48   H14   S    
C13   H34   S    
C61   H44   S    
C58   H32   S    
H29   O10   S    
C32   C52   S    
Cu2   O17   S    
C3    C23   A    
C55   O9    D    
H31   N7    S    
C59   N8    S    
Cu2   O12   S    
H7    N3    S    
C17   O19   A    
C34   C57   S    
C31   C33   S    
C53   H22   S    
C33   N3    S    
Cu1   O15   S    
H19   O8    S    
C10   N6    S    
C2    C61   A    
C40   C42   S    
C29   N7    S    
C60   H2    S    
C41   C43   S    
C15   N2    A    
C2    C6    A    
C58   H33   S    
C16   O16   A    
C53   N5    S    
Cu2   O18   S    
H16   O2    S    
C33   C40   S    
C46   C61   A    
C50   O3    D    
C59   H37   S    
C32   C35   S    
C35   C38   S    
C47   H9    S    
C12   C46   S    
C1    O14   A    
C11   H23   S    
C1    O1    A    
C25   C26   A    
C13   C24   A    
Cu1   O19   S    
C48   H13   S    
C37   C43   T    
C2    C4    A    
C54   H28   S    
C3    C9    A    
C19   C49   S    
C1    C44   S    
C49   O2    S    
C55   O10   S    
C28   H41   S    
C45   H4    S    
H11   N4    S    
C39   H42   S    
C17   C37   S    
Cu1   O16   S    
C48   N4    S    
C49   O20   D    
Cu2   O14   S    
C13   C15   A    
C17   O17   A    
C58   N7    S    
C51   O5    D    
C20   C22   A    
C4    C10   A    
C44   C45   A    
C18   C50   S    
C19   N2    A    
C7    C9    A    
H25   N6    S    
C31   C41   S    
C19   C21   A    
C59   H38   S    
C58   H35   S    
C47   H10   S    
C31   C51   S    
C57   O11   D    
C5    C8    A    
C23   C55   S    
C6    C7    A    
C12   O12   A    
C56   H3    S    
C11   C22   A    
C8    H6    S    
C31   C38   S    
C59   H39   S    
Cu1   N2    S    
C28   C30   A    
C7    H5    S    
C9    N5    S    
C54   H27   S    
C16   C36   S    
C38   C40   S    
C52   O8    S    
Cu2   N1    S    
C44   C60   A    
C47   N3    S    
C54   N6    S    
C52   O7    D    
C5    C62   A    
C53   H24   S    
C18   C20   A    
C32   C40   S    
C4    C34   A    
C35   C41   S    
C24   C30   A    
C47   H8    S    
Cu1   Cu2   S    
C8    C10   A    
H30   O13   S    
C21   C24   A    
C46   C56   A    
C51   O6    S    
C53   H21   S    
H18   O6    S    
C35   N4    S    
C14   H12   S    
