data_mof_unit_36127.cif
_audit_creation_date              2012-12-11T14:14:57-0500
_audit_creation_method            fapswitch 2.2
_symmetry_space_group_name_H-M    P1
_symmetry_Int_Tables_number       1
_space_group_crystal_system       triclinic
_cell_length_a                    24.461599
_cell_length_b                    17.304464
_cell_length_c                    15.648457
_cell_angle_alpha                 90.000017
_cell_angle_beta                  129.545035
_cell_angle_gamma                 90.0
_cell_volume                      5107.85958667

loop_
_atom_site_label
_atom_site_type_symbol
_atom_type_description
_atom_site_fract_x
_atom_site_fract_y
_atom_site_fract_z
_atom_type_partial_charge
Br1   Br    Br    0.771506 0.457566 0.724564 -0.541671
Br2   Br    Br    0.228494 0.457565 0.275436 -0.541669
Br3   Br    Br    0.271506 0.957565 0.724564 -0.541668
Br4   Br    Br    0.728494 0.957566 0.275436 -0.541671
C1    C     C_R   0.350670 0.360297 0.242314 0.741237
C2    C     C_R   0.644593 0.681322 0.501925 0.114559
C3    C     C_R   0.855407 0.181322 0.498075 0.114559
C4    C     C_R   0.144591 0.181324 0.501924 0.114558
C5    C     C_R   0.351308 0.624996 0.135442 0.132361
C6    C     C_R   0.648692 0.624996 0.864558 0.132361
C7    C     C_R   0.851308 0.124996 0.135442 0.132361
C8    C     C_R   0.148692 0.124996 0.864558 0.132360
C9    C     C_2   0.650049 0.795501 0.417353 -0.131962
C10   C     C_2   0.349953 0.795500 0.582650 -0.131955
C11   C     C_2   0.150048 0.295500 0.417352 -0.131960
C12   C     C_R   0.649330 0.360297 0.757686 0.741238
C13   C     C_2   0.849951 0.295501 0.582646 -0.131962
C14   C     C_2   0.678687 0.751498 0.506880 -0.184108
C15   C     C_2   0.321318 0.751503 0.493120 -0.184104
C16   C     C_2   0.178684 0.251501 0.506879 -0.184107
C17   C     C_2   0.821313 0.251499 0.493120 -0.184109
C18   C     C_2   0.195355 0.344322 0.409628 -0.058370
C19   C     C_2   0.804646 0.344323 0.590372 -0.058371
C20   C     C_2   0.695354 0.844323 0.409628 -0.058371
C21   C     C_2   0.304645 0.844321 0.590373 -0.058370
C22   C     C_2   0.256302 0.374519 0.499109 -0.150749
C23   C     C_R   0.850670 0.860297 0.242314 0.741239
C24   C     C_2   0.743698 0.374519 0.500891 -0.150750
C25   C     C_2   0.756302 0.874520 0.499109 -0.150749
C26   C     C_2   0.243698 0.874518 0.500892 -0.150747
C27   C     C_2   0.641582 0.245487 0.852711 -0.165648
C28   C     C_2   0.358417 0.245487 0.147289 -0.165648
C29   C     C_2   0.141583 0.745488 0.852713 -0.165648
C30   C     C_2   0.858417 0.745487 0.147288 -0.165648
C31   C     C_2   0.691161 0.202073 0.864535 -0.067731
C32   C     C_2   0.308839 0.202073 0.135465 -0.067732
C33   C     C_2   0.191162 0.702074 0.864536 -0.067732
C34   C     C_R   0.149331 0.860297 0.757687 0.741238
C35   C     C_2   0.808838 0.702073 0.135464 -0.067732
C36   C     C_2   0.304169 0.650590 0.019846 -0.182440
C37   C     C_2   0.695831 0.650590 0.980154 -0.182441
C38   C     C_2   0.804169 0.150589 0.019845 -0.182440
C39   C     C_2   0.195831 0.150589 0.980154 -0.182440
C40   C     C_R   0.615678 0.400994 0.409671 -0.198329
C41   C     C_R   0.384322 0.400994 0.590329 -0.198329
C42   C     C_R   0.115678 0.900993 0.409671 -0.198328
C43   C     C_R   0.884322 0.900994 0.590329 -0.198329
C44   C     C_2   0.233821 0.651272 0.960310 -0.141398
C45   C     C_R   0.409237 0.640199 0.591827 -0.113187
C46   C     C_2   0.766179 0.651272 0.039690 -0.141398
C47   C     C_2   0.733821 0.151272 0.960310 -0.141398
C48   C     C_2   0.266179 0.151272 0.039690 -0.141398
C49   C     C_R   0.690649 0.407803 0.592889 0.432735
C50   C     C_R   0.309351 0.407803 0.407110 0.432735
C51   C     C_R   0.190649 0.907803 0.592890 0.432732
C52   C     C_R   0.809350 0.907803 0.407110 0.432735
C53   C     C_R   0.558377 0.359482 0.757338 -0.252543
C54   C     C_R   0.441623 0.359481 0.242662 -0.252544
C55   C     C_R   0.058378 0.859482 0.757339 -0.252543
C56   C     C_R   0.590765 0.640198 0.408173 -0.113189
C57   C     C_R   0.941623 0.859482 0.242661 -0.252543
C58   C     C_R   0.383239 0.317436 0.210714 -0.053968
C59   C     C_R   0.616761 0.317436 0.789286 -0.053968
C60   C     C_R   0.883238 0.817437 0.210713 -0.053969
C61   C     C_R   0.116762 0.817438 0.789288 -0.053968
C62   C     C_R   0.685660 0.390522 0.502131 -0.005453
C63   C     C_R   0.314340 0.390521 0.497869 -0.005454
C64   C     C_R   0.185660 0.890521 0.502131 -0.005454
C65   C     C_R   0.814340 0.890522 0.497869 -0.005454
C66   C     C_R   0.333900 0.639632 0.406405 -0.080533
C67   C     C_R   0.909235 0.140198 0.591827 -0.113189
C68   C     C_R   0.666102 0.639630 0.593595 -0.080533
C69   C     C_R   0.833898 0.139630 0.406405 -0.080533
C70   C     C_R   0.166101 0.139631 0.593595 -0.080533
C71   C     C_R   0.422450 0.607408 0.197479 -0.147022
C72   C     C_R   0.577550 0.607408 0.802521 -0.147022
C73   C     C_R   0.922450 0.107408 0.197479 -0.147023
C74   C     C_R   0.077550 0.107408 0.802521 -0.147022
C75   C     C_R   0.668303 0.605236 0.801674 -0.110470
C76   C     C_R   0.331697 0.605236 0.198325 -0.110473
C77   C     C_R   0.168303 0.105236 0.801674 -0.110472
C78   C     C_R   0.090764 0.140199 0.408173 -0.113188
C79   C     C_R   0.831697 0.105236 0.198326 -0.110470
C80   C     C_R   0.355410 0.681325 0.498076 0.114557
F1    F     F_    0.288584 0.343590 0.219326 -0.714027
F2    F     F_    0.711416 0.343590 0.780673 -0.714027
F3    F     F_    0.788584 0.843591 0.219326 -0.714027
F4    F     F_    0.211416 0.843592 0.780676 -0.714027
H1    H     H_    0.732252 0.761068 0.583098 0.135295
H2    H     H_    0.732044 0.376260 0.421388 0.132470
H3    H     H_    0.767956 0.876261 0.578612 0.132470
H4    H     H_    0.232045 0.876261 0.421390 0.132468
H5    H     H_    0.209290 0.626614 0.992334 0.143469
H6    H     H_    0.790710 0.626613 0.007666 0.143469
H7    H     H_    0.709290 0.126613 0.992334 0.143469
H8    H     H_    0.290710 0.126613 0.007666 0.143469
H9    H     H_    0.708747 0.213528 0.817320 0.196248
H10   H     H_    0.291253 0.213529 0.182680 0.196248
H11   H     H_    0.208747 0.713529 0.817321 0.196247
H12   H     H_    0.267756 0.761077 0.416897 0.135291
H13   H     H_    0.791253 0.713529 0.182679 0.196248
H14   H     H_    0.327928 0.676585 0.987076 0.153569
H15   H     H_    0.672072 0.676585 0.012924 0.153569
H16   H     H_    0.827927 0.176584 0.987076 0.153569
H17   H     H_    0.172072 0.176585 0.012924 0.153569
H18   H     H_    0.624371 0.232636 0.900377 0.139726
H19   H     H_    0.375629 0.232636 0.099623 0.139725
H20   H     H_    0.124372 0.732638 0.900380 0.139726
H21   H     H_    0.875629 0.732637 0.099622 0.139726
H22   H     H_    0.595812 0.405057 0.325202 0.121820
H23   H     H_    0.232248 0.261073 0.583100 0.135294
H24   H     H_    0.404187 0.405057 0.674798 0.121820
H25   H     H_    0.095813 0.905057 0.325202 0.121819
H26   H     H_    0.904187 0.905057 0.674798 0.121819
H27   H     H_    0.521008 0.344219 0.769704 0.150981
H28   H     H_    0.478991 0.344219 0.230297 0.150982
H29   H     H_    0.021009 0.844220 0.769705 0.150981
H30   H     H_    0.978991 0.844219 0.230296 0.150982
H31   H     H_    0.292043 0.654280 0.320553 0.109097
H32   H     H_    0.707960 0.654277 0.679447 0.109099
H33   H     H_    0.792040 0.154277 0.320553 0.109099
H34   H     H_    0.767748 0.261068 0.416902 0.135295
H35   H     H_    0.207959 0.154279 0.679447 0.109098
H36   H     H_    0.451519 0.605217 0.166884 0.099796
H37   H     H_    0.548481 0.605216 0.833116 0.099796
H38   H     H_    0.951519 0.105216 0.166884 0.099796
H39   H     H_    0.048481 0.105217 0.833116 0.099796
H40   H     H_    0.721429 0.601544 0.829209 0.119424
H41   H     H_    0.278570 0.601543 0.170790 0.119425
H42   H     H_    0.221430 0.101544 0.829210 0.119424
H43   H     H_    0.778570 0.101544 0.170790 0.119424
H44   H     H_    0.436648 0.654805 0.677468 0.097977
H45   H     H_    0.183650 0.341752 0.330421 0.180578
H46   H     H_    0.563354 0.654803 0.322532 0.097978
H47   H     H_    0.936645 0.154803 0.677468 0.097978
H48   H     H_    0.063353 0.154804 0.322532 0.097978
H49   H     H_    0.597141 0.783409 0.340916 0.136888
H50   H     H_    0.402858 0.783404 0.659091 0.136884
H51   H     H_    0.097142 0.283407 0.340913 0.136887
H52   H     H_    0.902859 0.283409 0.659084 0.136888
H53   H     H_    0.816351 0.341755 0.669579 0.180579
H54   H     H_    0.683649 0.841755 0.330421 0.180579
H55   H     H_    0.316349 0.841751 0.669579 0.180576
H56   H     H_    0.267956 0.376261 0.578611 0.132469
N1    N     N_R   0.389060 0.424180 0.294540 -0.106484
N2    N     N_R   0.374530 0.423490 0.443400 -0.086974
N3    N     N_R   0.125470 0.923490 0.556600 -0.086974
N4    N     N_R   0.874530 0.923490 0.443400 -0.086974
N5    N     N_R   0.555250 0.423100 0.705420 -0.075426
N6    N     N_R   0.444750 0.423100 0.294580 -0.075426
N7    N     N_R   0.055250 0.923100 0.705420 -0.075426
N8    N     N_R   0.944750 0.923100 0.294580 -0.075426
N9    N     N_R   0.375210 0.577180 0.443400 -0.040949
N10   N     N_R   0.624790 0.577180 0.556600 -0.040950
N11   N     N_R   0.875210 0.077180 0.443400 -0.040950
N12   N     N_R   0.610940 0.424180 0.705460 -0.106484
N13   N     N_R   0.124790 0.077180 0.556600 -0.040949
N14   N     N_R   0.445430 0.577570 0.294580 -0.045035
N15   N     N_R   0.554570 0.577570 0.705420 -0.045035
N16   N     N_R   0.945430 0.077570 0.294580 -0.045035
N17   N     N_R   0.054570 0.077570 0.705420 -0.045035
N18   N     N_R   0.611620 0.576500 0.705460 -0.046826
N19   N     N_R   0.388380 0.576500 0.294540 -0.046826
N20   N     N_R   0.111620 0.076500 0.705460 -0.046826
N21   N     N_R   0.888380 0.076500 0.294540 -0.046826
N22   N     N_R   0.421010 0.576890 0.556640 -0.048264
N23   N     N_R   0.889060 0.924180 0.294540 -0.106484
N24   N     N_R   0.578990 0.576890 0.443360 -0.048264
N25   N     N_R   0.921010 0.076890 0.556640 -0.048264
N26   N     N_R   0.078990 0.076890 0.443360 -0.048264
N27   N     N_R   0.110940 0.924180 0.705460 -0.106484
N28   N     N_R   0.579670 0.423790 0.443360 -0.061448
N29   N     N_R   0.420330 0.423790 0.556640 -0.061448
N30   N     N_R   0.079670 0.923790 0.443360 -0.061448
N31   N     N_R   0.920330 0.923790 0.556640 -0.061448
N32   N     N_R   0.625470 0.423490 0.556600 -0.086974
Ni1   Ni    Ni4+2 0.383200 0.500680 0.370150 0.275089
Ni2   Ni    Ni4+2 0.616800 0.500680 0.629850 0.275088
Ni3   Ni    Ni4+2 0.883200 0.000680 0.370150 0.275088
Ni4   Ni    Ni4+2 0.116800 0.000680 0.629850 0.275089
Ni5   Ni    Ni4+2 0.512440 0.500680 0.370150 0.197698
Ni6   Ni    Ni4+2 0.487560 0.500680 0.629850 0.197698
Ni7   Ni    Ni4+2 0.012440 0.000680 0.370150 0.197698
Ni8   Ni    Ni4+2 0.987560 0.000680 0.629850 0.197698

loop_
_geom_bond_atom_site_label_1
_geom_bond_atom_site_label_2
_ccdc_geom_bond_type
C54   C58   A    
C43   H26   S    
N23   Ni3   S    
C75   H40   S    
C78   N26   A    
C72   N15   A    
N9    N22   A    
C66   N9    A    
C30   C35   D    
C40   C62   A    
N22   Ni6   S    
C33   H11   S    
N17   N20   A    
C51   C64   A    
N3    N30   A    
C29   C61   S    
C34   N27   A    
C3    C69   A    
C2    C68   A    
C79   N21   A    
C56   N24   A    
C9    C14   D    
C4    C16   S    
C4    C78   A    
C22   C63   S    
C28   C32   D    
C45   C80   A    
N5    N12   A    
C8    C39   S    
C3    C67   A    
N26   Ni7   S    
C39   C48   D    
N2    N29   A    
N7    N27   A    
C7    C38   S    
C39   H17   S    
C17   H34   S    
Br1   C49   S    
C20   C25   D    
C43   C65   A    
C7    C73   A    
Br3   C51   S    
N28   Ni5   S    
C11   C18   S    
C10   H50   S    
C20   H54   S    
C28   H19   S    
C53   N5    A    
C12   N12   A    
C42   N30   A    
C53   C59   A    
C12   C59   A    
C66   C80   A    
N16   Ni7   S    
C25   C65   S    
N1    N6    A    
N20   Ni4   S    
C38   C47   D    
C50   N2    A    
C1    F1    S    
N32   Ni2   S    
C70   H35   S    
C55   H29   S    
Br4   C52   S    
C6    C37   S    
C12   F2    S    
C72   H37   S    
N10   N24   A    
C21   H55   S    
C29   H20   S    
C6    C72   A    
C22   H56   S    
C74   H39   S    
N3    Ni4   S    
C4    C70   A    
N14   Ni5   S    
N11   Ni3   S    
C35   H13   S    
N6    Ni5   S    
C11   H51   S    
C11   C16   D    
C2    C14   S    
C45   H44   S    
N9    Ni1   S    
C41   H24   S    
N4    N31   A    
C1    N1    A    
C44   H5    S    
C18   H45   S    
C71   H36   S    
C2    C56   A    
N7    Ni8   S    
C68   N10   A    
C53   H27   S    
Br2   C50   S    
C46   H6    S    
C50   C63   A    
C7    C79   A    
N16   N21   A    
C5    C36   S    
C13   C17   D    
C37   H15   S    
N2    Ni1   S    
C8    C74   A    
C33   C44   S    
C5    C76   A    
C9    H49   S    
C52   N4    A    
C57   C60   A    
C24   C62   S    
C40   N28   A    
N25   Ni8   S    
C42   C64   A    
N19   Ni1   S    
C41   N29   A    
N13   N26   A    
C16   H23   S    
N11   N25   A    
C51   N3    A    
C34   C61   A    
C66   H31   S    
C15   H12   S    
C69   N11   A    
C30   C60   S    
N15   N18   A    
C54   H28   S    
C13   C19   S    
C19   C24   D    
N8    Ni7   S    
C23   F3    S    
C49   C62   A    
N14   N19   A    
C71   N14   A    
C26   H4    S    
N29   Ni6   S    
N24   Ni5   S    
N4    Ni3   S    
C69   H33   S    
C68   H32   S    
N10   Ni2   S    
C31   C47   S    
N5    Ni6   S    
N21   Ni3   S    
C77   N20   A    
C27   C31   D    
N27   Ni4   S    
C67   N25   A    
C75   N18   A    
C15   C80   S    
C56   H46   S    
C37   C46   D    
C25   H3    S    
N8    N23   A    
C21   C26   D    
C36   C44   D    
C76   H41   S    
C42   H25   S    
C23   N23   A    
C57   H30   S    
C14   H1    S    
C10   C15   D    
C34   F4    S    
C38   H16   S    
N30   Ni7   S    
C76   N19   A    
C24   H2    S    
C6    C75   A    
C41   C63   A    
C26   C64   S    
C55   N7    A    
C27   C59   S    
N12   Ni2   S    
C32   C48   S    
N17   Ni8   S    
C79   H43   S    
C28   C58   S    
C45   N22   A    
C3    C17   S    
N15   Ni6   S    
C55   C61   A    
C67   H47   S    
C77   H42   S    
C70   N13   A    
C27   H18   S    
C1    C58   A    
C48   H8    S    
C13   H52   S    
C8    C77   A    
C10   C21   S    
C78   H48   S    
C57   N8    A    
C29   C33   D    
N18   Ni2   S    
C23   C60   A    
C73   N16   A    
C36   H14   S    
N28   N32   A    
C35   C46   S    
C9    C20   S    
C74   N17   A    
C52   C65   A    
C18   C22   D    
N1    Ni1   S    
C30   H21   S    
C19   H53   S    
C32   H10   S    
C5    C71   A    
C31   H9    S    
N13   Ni4   S    
C43   N31   A    
C73   H38   S    
C54   N6    A    
C49   N32   A    
C47   H7    S    
N31   Ni8   S    
C40   H22   S    
