data_mof_unit_25443.cif
_audit_creation_date              2012-10-26T21:26:53-0400
_audit_creation_method            fapswitch 2.2
_symmetry_space_group_name_H-M    P1
_symmetry_Int_Tables_number       1
_space_group_crystal_system       monoclinic
_cell_length_a                    16.513683
_cell_length_b                    16.513683
_cell_length_c                    29.412253
_cell_angle_alpha                 90.0
_cell_angle_beta                  90.0
_cell_angle_gamma                 90.000013
_cell_volume                      8020.77216525

loop_
_atom_site_label
_atom_site_type_symbol
_atom_type_description
_atom_site_fract_x
_atom_site_fract_y
_atom_site_fract_z
_atom_type_partial_charge
C1    C     C_1   0.999379 0.128302 0.194444 -0.008526
C2    C     C_3   1.000000 1.000000 0.749614 0.002784
C3    C     C_R   0.797527 0.632370 0.100923 -0.051710
C4    C     C_R   0.722274 0.622683 0.079758 -0.103276
C5    C     C_R   0.696268 0.678571 0.047220 -0.104655
C6    C     C_R   0.745382 0.744375 0.035784 -0.113423
C7    C     C_R   0.820608 0.754254 0.056790 -0.081186
C8    C     C_R   0.150966 0.340733 0.889673 0.074613
C9    C     C_R   0.207998 0.300267 0.916841 -0.058785
C10   C     C_R   0.285528 0.332618 0.922662 -0.103700
C11   C     C_R   0.306813 0.404805 0.900985 -0.105405
C12   C     C_R   0.250356 0.445093 0.873783 -0.113586
C13   C     C_R   0.000328 0.193895 0.161747 -0.007872
C14   C     C_R   0.172026 0.414276 0.868873 -0.072853
C15   C     C_R   0.301750 0.847155 0.589459 0.070006
C16   C     C_R   0.367630 0.797527 0.600923 -0.051710
C17   C     C_R   0.377317 0.722274 0.579758 -0.103276
C18   C     C_R   0.321428 0.696268 0.547219 -0.104655
C19   C     C_R   0.255624 0.745382 0.535784 -0.113424
C20   C     C_R   0.245746 0.820608 0.556790 -0.081186
C21   C     C_R   0.659267 0.150966 0.389673 0.074613
C22   C     C_R   0.699734 0.207998 0.416841 -0.058785
C23   C     C_R   0.667383 0.285528 0.422662 -0.103701
C24   C     C_R   0.999117 0.804266 0.836554 -0.009789
C25   C     C_R   0.595195 0.306813 0.400985 -0.105405
C26   C     C_R   0.554907 0.250357 0.373783 -0.113586
C27   C     C_R   0.585724 0.172026 0.368874 -0.072853
C28   C     C_R   0.148934 0.709159 0.917557 0.074512
C29   C     C_R   0.203076 0.650470 0.901317 -0.059022
C30   C     C_R   0.281576 0.645746 0.918968 -0.108521
C31   C     C_R   0.306915 0.700749 0.952090 -0.105442
C32   C     C_R   0.253493 0.759817 0.968091 -0.115124
C33   C     C_R   0.174260 0.763257 0.951518 -0.077126
C34   C     C_R   0.848183 0.331901 0.107038 0.068103
C35   C     C_R   0.806105 0.000328 0.661747 -0.007872
C36   C     C_R   0.791977 0.299621 0.076254 -0.050155
C37   C     C_R   0.713819 0.331880 0.073641 -0.102322
C38   C     C_R   0.691517 0.396350 0.101711 -0.114286
C39   C     C_R   0.747389 0.428869 0.132356 -0.129815
C40   C     C_R   0.825790 0.397345 0.134774 -0.091336
C41   C     C_R   0.709159 0.851066 0.417557 0.074512
C42   C     C_R   0.650470 0.796924 0.401317 -0.059022
C43   C     C_R   0.645746 0.718424 0.418968 -0.108521
C44   C     C_R   0.700749 0.693085 0.452090 -0.105442
C45   C     C_R   0.759817 0.746507 0.468091 -0.115123
C46   C     C_R   0.195734 0.999117 0.336554 -0.009789
C47   C     C_R   0.763257 0.825740 0.451518 -0.077126
C48   C     C_R   0.331901 0.151817 0.607038 0.068103
C49   C     C_R   0.299622 0.208023 0.576254 -0.050155
C50   C     C_R   0.331881 0.286181 0.573641 -0.102323
C51   C     C_R   0.396350 0.308483 0.601711 -0.114286
C52   C     C_R   0.428869 0.252611 0.632356 -0.129816
C53   C     C_R   0.397345 0.174210 0.634774 -0.091336
C54   C     C_R   0.851066 0.290841 0.917557 0.074512
C55   C     C_R   0.796924 0.349530 0.901317 -0.059021
C56   C     C_R   0.718424 0.354254 0.918968 -0.108521
C57   C     C_R   0.999672 0.806105 0.161747 -0.007872
C58   C     C_R   0.693085 0.299251 0.952090 -0.105442
C59   C     C_R   0.746507 0.240182 0.968091 -0.115123
C60   C     C_R   0.825740 0.236743 0.951518 -0.077126
C61   C     C_R   0.151817 0.668099 0.107038 0.068103
C62   C     C_R   0.208023 0.700378 0.076254 -0.050155
C63   C     C_R   0.286181 0.668119 0.073641 -0.102322
C64   C     C_R   0.308483 0.603649 0.101711 -0.114286
C65   C     C_R   0.252611 0.571131 0.132356 -0.129815
C66   C     C_R   0.174210 0.602655 0.134774 -0.091336
C67   C     C_R   0.290841 0.148934 0.417557 0.074512
C68   C     C_R   0.000883 0.195734 0.836553 -0.009789
C69   C     C_R   0.349530 0.203076 0.401317 -0.059021
C70   C     C_R   0.354254 0.281576 0.418968 -0.108521
C71   C     C_R   0.299251 0.306915 0.452090 -0.105442
C72   C     C_R   0.240182 0.253493 0.468091 -0.115123
C73   C     C_R   0.236743 0.174260 0.451518 -0.077126
C74   C     C_R   0.668098 0.848183 0.607038 0.068103
C75   C     C_R   0.700378 0.791977 0.576255 -0.050155
C76   C     C_R   0.668119 0.713819 0.573641 -0.102323
C77   C     C_R   0.603649 0.691517 0.601711 -0.114286
C78   C     C_R   0.571131 0.747389 0.632356 -0.129816
C79   C     C_R   0.193895 0.999672 0.661747 -0.007872
C80   C     C_R   0.602655 0.825790 0.634774 -0.091336
C81   C     C_R   0.151043 0.207810 0.172019 0.048362
C82   C     C_R   0.180348 0.127956 0.171646 -0.085883
C83   C     C_R   0.252475 0.108760 0.194143 -0.108061
C84   C     C_R   0.297126 0.169271 0.215807 -0.112061
C85   C     C_R   0.268725 0.248887 0.216072 -0.119320
C86   C     C_R   0.195331 0.267869 0.195010 -0.082642
C87   C     C_R   0.851625 0.780088 0.820588 0.046317
C88   C     C_R   0.814065 0.721379 0.793188 -0.076537
C89   C     C_R   0.736254 0.734568 0.776130 -0.116645
C90   C     C_R   0.804266 0.000883 0.336554 -0.009789
C91   C     C_R   0.697438 0.808415 0.783768 -0.111958
C92   C     C_R   0.736015 0.868670 0.809036 -0.109268
C93   C     C_R   0.812474 0.854385 0.827896 -0.088968
C94   C     C_R   0.792190 0.151043 0.672019 0.048362
C95   C     C_R   0.872046 0.180346 0.671647 -0.085883
C96   C     C_R   0.891242 0.252473 0.694144 -0.108062
C97   C     C_R   0.830731 0.297126 0.715808 -0.112061
C98   C     C_R   0.751114 0.268727 0.716071 -0.119320
C99   C     C_R   0.732132 0.195332 0.695009 -0.082642
C100  C     C_R   0.219912 0.851626 0.320588 0.046317
C101  C     C_R   0.999986 0.612599 0.938901 0.536373
C102  C     C_R   0.278621 0.814065 0.293188 -0.076537
C103  C     C_R   0.265432 0.736254 0.276130 -0.116645
C104  C     C_R   0.191585 0.697438 0.283768 -0.111958
C105  C     C_R   0.131330 0.736015 0.309036 -0.109268
C106  C     C_R   0.145615 0.812474 0.327896 -0.088968
C107  C     C_R   0.848957 0.792190 0.172019 0.048362
C108  C     C_R   0.819652 0.872045 0.171646 -0.085883
C109  C     C_R   0.747525 0.891240 0.194143 -0.108061
C110  C     C_R   0.702874 0.830730 0.215808 -0.112060
C111  C     C_R   0.731274 0.751113 0.216072 -0.119320
C112  C     C_1   0.999130 0.870493 0.804114 -0.008329
C113  C     C_R   0.000152 0.387908 0.061362 0.537228
C114  C     C_R   0.804669 0.732132 0.195010 -0.082642
C115  C     C_R   0.148374 0.219912 0.820588 0.046317
C116  C     C_R   0.185935 0.278621 0.793187 -0.076537
C117  C     C_R   0.263746 0.265432 0.776130 -0.116645
C118  C     C_R   0.302562 0.191585 0.783768 -0.111958
C119  C     C_R   0.263985 0.131330 0.809036 -0.109268
C120  C     C_R   0.187526 0.145615 0.827896 -0.088967
C121  C     C_R   0.207810 0.848957 0.672019 0.048362
C122  C     C_R   0.127955 0.819652 0.671646 -0.085883
C123  C     C_R   0.108759 0.747525 0.694143 -0.108061
C124  C     C_R   0.387401 0.999986 0.438901 0.536373
C125  C     C_R   0.169270 0.702874 0.715807 -0.112061
C126  C     C_R   0.248887 0.731274 0.716072 -0.119320
C127  C     C_R   0.267868 0.804669 0.695010 -0.082642
C128  C     C_R   0.780088 0.148374 0.320588 0.046317
C129  C     C_R   0.721379 0.185935 0.293188 -0.076536
C130  C     C_R   0.734568 0.263746 0.276130 -0.116645
C131  C     C_R   0.808415 0.302562 0.283768 -0.111958
C132  C     C_R   0.868670 0.263985 0.309036 -0.109268
C133  C     C_R   0.854385 0.187526 0.327896 -0.088968
C134  C     C_R   0.145718 0.832201 0.851046 0.050036
C135  C     C_R   0.612092 0.000152 0.561362 0.537228
C136  C     C_R   0.159466 0.906273 0.873080 -0.092694
C137  C     C_R   0.234805 0.944264 0.869395 -0.119997
C138  C     C_R   0.295847 0.909723 0.842769 -0.104958
C139  C     C_R   0.281852 0.836787 0.820056 -0.099522
C140  C     C_R   0.207193 0.797762 0.824458 -0.070169
C141  C     C_R   0.851939 0.173156 0.148248 0.042351
C142  C     C_R   0.786622 0.203411 0.173461 -0.067814
C143  C     C_R   0.711969 0.163507 0.172948 -0.106732
C144  C     C_R   0.702140 0.093239 0.147131 -0.117558
C145  C     C_R   0.767265 0.062128 0.122330 -0.132352
C146  C     C_R   0.000014 0.387401 0.938901 0.536373
C147  C     C_R   0.842143 0.101551 0.123106 -0.106017
C148  C     C_R   0.832201 0.854282 0.351046 0.050036
C149  C     C_R   0.906273 0.840534 0.373080 -0.092694
C150  C     C_R   0.944264 0.765195 0.369395 -0.119997
C151  C     C_R   0.909723 0.704153 0.342769 -0.104958
C152  C     C_R   0.836787 0.718148 0.320056 -0.099522
C153  C     C_R   0.797761 0.792807 0.324458 -0.070169
C154  C     C_R   0.173156 0.148061 0.648247 0.042350
C155  C     C_R   0.203410 0.213378 0.673461 -0.067814
C156  C     C_R   0.163507 0.288031 0.672948 -0.106732
C157  C     C_R   0.999848 0.612092 0.061362 0.537228
C158  C     C_R   0.093238 0.297860 0.647131 -0.117559
C159  C     C_R   0.062128 0.232735 0.622330 -0.132352
C160  C     C_R   0.101551 0.157856 0.623106 -0.106018
C161  C     C_R   0.854282 0.167799 0.851046 0.050036
C162  C     C_R   0.840534 0.093727 0.873080 -0.092694
C163  C     C_R   0.765195 0.055736 0.869395 -0.119997
C164  C     C_R   0.704153 0.090277 0.842769 -0.104958
C165  C     C_R   0.718148 0.163213 0.820055 -0.099522
C166  C     C_R   0.792807 0.202239 0.824458 -0.070170
C167  C     C_R   0.148062 0.826843 0.148247 0.042351
C168  C     C_R   0.612599 0.000014 0.438901 0.536373
C169  C     C_R   0.213378 0.796589 0.173461 -0.067814
C170  C     C_R   0.288031 0.836492 0.172948 -0.106732
C171  C     C_R   0.297860 0.906761 0.147131 -0.117559
C172  C     C_R   0.232735 0.937871 0.122330 -0.132352
C173  C     C_R   0.157857 0.898449 0.123106 -0.106017
C174  C     C_R   0.167799 0.145718 0.351046 0.050036
C175  C     C_R   0.093727 0.159466 0.373080 -0.092694
C176  C     C_R   0.055736 0.234804 0.369395 -0.119997
C177  C     C_R   0.090277 0.295847 0.342770 -0.104958
C178  C     C_R   0.163213 0.281852 0.320056 -0.099522
C179  C     C_R   0.387908 0.999848 0.561362 0.537228
C180  C     C_R   0.202238 0.207193 0.324458 -0.070169
C181  C     C_R   0.826843 0.851938 0.648248 0.042351
C182  C     C_R   0.796589 0.786622 0.673461 -0.067814
C183  C     C_R   0.836492 0.711969 0.672948 -0.106732
C184  C     C_R   0.906761 0.702140 0.647131 -0.117559
C185  C     C_R   0.937871 0.767265 0.622330 -0.132351
C186  C     C_R   0.898449 0.842143 0.623107 -0.106017
C187  C     C_R   0.074029 0.229816 0.148630 -0.027311
C188  C     C_R   0.927788 0.760418 0.845432 -0.028230
C189  C     C_R   0.770184 0.074029 0.648630 -0.027311
C190  C     C_1   0.871698 0.999379 0.694444 -0.008526
C191  C     C_R   0.239582 0.927788 0.345432 -0.028230
C192  C     C_R   0.925971 0.770184 0.148630 -0.027311
C193  C     C_R   0.072212 0.239582 0.845432 -0.028230
C194  C     C_R   0.229816 0.925971 0.648630 -0.027311
C195  C     C_R   0.760418 0.072212 0.345432 -0.028230
C196  C     C_R   0.070503 0.785741 0.860273 -0.027459
C197  C     C_R   0.927333 0.221219 0.142677 -0.023803
C198  C     C_R   0.785741 0.929496 0.360273 -0.027459
C199  C     C_R   0.221219 0.072667 0.642677 -0.023803
C200  C     C_R   0.929496 0.214259 0.860273 -0.027459
C201  C     C_1   0.129507 0.999130 0.304114 -0.008330
C202  C     C_R   0.072667 0.778781 0.142677 -0.023803
C203  C     C_R   0.214259 0.070503 0.360273 -0.027459
C204  C     C_R   0.778780 0.927333 0.642677 -0.023803
C205  C     C_R   0.074715 0.287608 0.113024 -0.052484
C206  C     C_R   0.927545 0.698712 0.879119 -0.051892
C207  C     C_R   0.712392 0.074715 0.613024 -0.052484
C208  C     C_R   0.301288 0.927545 0.379119 -0.051892
C209  C     C_R   0.925285 0.712392 0.113024 -0.052484
C210  C     C_R   0.072455 0.301288 0.879119 -0.051892
C211  C     C_R   0.287608 0.925285 0.613024 -0.052484
C212  C     C_1   0.000621 0.871698 0.194444 -0.008526
C213  C     C_R   0.698712 0.072455 0.379119 -0.051892
C214  C     C_R   0.071459 0.723344 0.893300 -0.052416
C215  C     C_R   0.926846 0.291114 0.114888 -0.048545
C216  C     C_R   0.723344 0.928541 0.393300 -0.052416
C217  C     C_R   0.291114 0.073154 0.614888 -0.048545
C218  C     C_R   0.928541 0.276656 0.893300 -0.052416
C219  C     C_R   0.073154 0.708885 0.114888 -0.048545
C220  C     C_R   0.276656 0.071459 0.393300 -0.052416
C221  C     C_R   0.708885 0.926846 0.614888 -0.048545
C222  C     C_R   0.000702 0.322332 0.097100 -0.039984
C223  C     C_1   0.000870 0.129507 0.804114 -0.008330
C224  C     C_R   0.999832 0.678442 0.903241 -0.041037
C225  C     C_R   0.677668 0.000702 0.597100 -0.039984
C226  C     C_R   0.321558 0.999832 0.403241 -0.041037
C227  C     C_R   0.999297 0.677668 0.097100 -0.039984
C228  C     C_R   0.000168 0.321558 0.903241 -0.041037
C229  C     C_R   0.322332 0.999297 0.597100 -0.039984
C230  C     C_R   0.678442 0.000168 0.403241 -0.041037
C231  C     C_1   0.999567 0.071727 0.220364 -0.003086
C232  C     C_1   0.999748 0.927815 0.778652 0.000436
C233  C     C_1   0.928272 0.999567 0.720364 -0.003086
C234  C     C_1   0.128302 0.000620 0.694444 -0.008526
C235  C     C_1   0.072185 0.999748 0.278652 0.000436
C236  C     C_1   0.000433 0.928272 0.220364 -0.003086
C237  C     C_1   0.000251 0.072185 0.778652 0.000436
C238  C     C_1   0.071727 0.000433 0.720364 -0.003086
C239  C     C_1   0.927815 0.000251 0.278652 0.000436
C240  C     C_R   0.152845 0.301750 0.089459 0.070006
C241  C     C_R   0.202473 0.367630 0.100923 -0.051710
C242  C     C_R   0.277726 0.377317 0.079758 -0.103276
C243  C     C_R   0.303731 0.321429 0.047220 -0.104655
C244  C     C_R   0.254618 0.255624 0.035784 -0.113423
C245  C     C_1   0.870493 0.000870 0.304114 -0.008330
C246  C     C_R   0.179392 0.245746 0.056790 -0.081186
C247  C     C_R   0.849034 0.659267 0.889673 0.074613
C248  C     C_R   0.792002 0.699733 0.916841 -0.058785
C249  C     C_R   0.714472 0.667382 0.922662 -0.103701
C250  C     C_R   0.693187 0.595195 0.900985 -0.105405
C251  C     C_R   0.749643 0.554907 0.873783 -0.113586
C252  C     C_R   0.827974 0.585724 0.868873 -0.072854
C253  C     C_R   0.698250 0.152845 0.589459 0.070005
C254  C     C_R   0.632370 0.202472 0.600922 -0.051710
C255  C     C_R   0.622683 0.277725 0.579757 -0.103276
C256  C     C_3   1.000000 1.000000 0.249614 0.002784
C257  C     C_R   0.678572 0.303731 0.547219 -0.104655
C258  C     C_R   0.744376 0.254618 0.535784 -0.113424
C259  C     C_R   0.754255 0.179392 0.556790 -0.081186
C260  C     C_R   0.340733 0.849034 0.389673 0.074613
C261  C     C_R   0.300266 0.792002 0.416841 -0.058785
C262  C     C_R   0.332617 0.714472 0.422662 -0.103701
C263  C     C_R   0.404805 0.693187 0.400985 -0.105405
C264  C     C_R   0.445093 0.749643 0.373783 -0.113586
C265  C     C_R   0.414276 0.827974 0.368873 -0.072853
C266  C     C_R   0.847155 0.698249 0.089459 0.070006
Cu1   Cu    Cu3+1 0.919200 0.500000 0.000000 0.969466
Cu2   Cu    Cu3+1 0.080800 0.500000 0.000000 0.969466
Cu3   Cu    Cu3+1 0.500000 0.919200 0.500000 0.969466
Cu4   Cu    Cu3+1 0.500000 0.080800 0.500000 0.969466
H1    H     H_    0.182689 0.410912 0.126185 0.090233
H2    H     H_    0.870947 0.554480 0.847281 0.079391
H3    H     H_    0.099808 0.840533 0.348957 0.102772
H4    H     H_    0.852908 0.919239 0.154240 0.107902
H5    H     H_    0.726015 0.952930 0.194909 0.120861
H6    H     H_    0.646768 0.845705 0.232873 0.093645
H7    H     H_    0.697146 0.704361 0.233330 0.088755
H8    H     H_    0.827022 0.670566 0.196604 0.086775
H9    H     H_    0.156027 0.335632 0.786296 0.092045
H10   H     H_    0.293465 0.311988 0.756320 0.093200
H11   H     H_    0.362258 0.180865 0.769814 0.095481
H12   H     H_    0.294272 0.074287 0.814631 0.108086
H13   H     H_    0.589087 0.182688 0.626184 0.090233
H14   H     H_    0.159468 0.099808 0.848957 0.102772
H15   H     H_    0.080761 0.852908 0.654240 0.107902
H16   H     H_    0.047070 0.726015 0.694909 0.120860
H17   H     H_    0.154295 0.646768 0.732873 0.093645
H18   H     H_    0.295639 0.697146 0.733330 0.088754
H19   H     H_    0.329434 0.827022 0.696604 0.086775
H20   H     H_    0.664368 0.156027 0.286296 0.092045
H21   H     H_    0.688012 0.293465 0.256320 0.093200
H22   H     H_    0.819136 0.362258 0.269814 0.095481
H23   H     H_    0.925714 0.294272 0.314631 0.108087
H24   H     H_    0.572291 0.316303 0.588697 0.097079
H25   H     H_    0.900192 0.159467 0.348957 0.102773
H26   H     H_    0.113045 0.932760 0.894425 0.091654
H27   H     H_    0.246251 0.000003 0.887627 0.091961
H28   H     H_    0.354216 0.939123 0.840042 0.092389
H29   H     H_    0.329437 0.809663 0.799860 0.094387
H30   H     H_    0.197982 0.739443 0.808559 0.101529
H31   H     H_    0.792844 0.259896 0.191567 0.118083
H32   H     H_    0.661235 0.187942 0.191745 0.095746
H33   H     H_    0.644085 0.062858 0.146338 0.098613
H34   H     H_    0.759510 0.007800 0.102210 0.102371
H35   H     H_    0.671035 0.362073 0.530997 0.092753
H36   H     H_    0.891602 0.078003 0.102846 0.095817
H37   H     H_    0.932760 0.886955 0.394424 0.091654
H38   H     H_    0.000003 0.753749 0.387627 0.091961
H39   H     H_    0.939123 0.645784 0.340042 0.092389
H40   H     H_    0.809663 0.670563 0.299860 0.094387
H41   H     H_    0.739443 0.802018 0.308559 0.101529
H42   H     H_    0.259896 0.207156 0.691566 0.118083
H43   H     H_    0.187942 0.338765 0.691744 0.095746
H44   H     H_    0.062858 0.355915 0.646338 0.098613
H45   H     H_    0.007799 0.240489 0.602210 0.102372
H46   H     H_    0.787955 0.274980 0.510796 0.088632
H47   H     H_    0.078003 0.108398 0.602846 0.095817
H48   H     H_    0.886954 0.067240 0.894424 0.091654
H49   H     H_    0.753748 0.999997 0.887627 0.091961
H50   H     H_    0.645784 0.060877 0.840042 0.092389
H51   H     H_    0.670563 0.190337 0.799860 0.094387
H52   H     H_    0.802019 0.260557 0.808558 0.101529
H53   H     H_    0.207156 0.740104 0.191567 0.118083
H54   H     H_    0.338765 0.812058 0.191745 0.095746
H55   H     H_    0.355915 0.937141 0.146338 0.098613
H56   H     H_    0.240490 0.992200 0.102210 0.102371
H57   H     H_    0.805854 0.142074 0.547949 0.088750
H58   H     H_    0.108398 0.921997 0.102846 0.095817
H59   H     H_    0.067240 0.113045 0.394424 0.091654
H60   H     H_    0.999997 0.246251 0.387627 0.091961
H61   H     H_    0.060877 0.354216 0.340043 0.092389
H62   H     H_    0.190337 0.329437 0.299860 0.094387
H63   H     H_    0.260557 0.197982 0.308559 0.101529
H64   H     H_    0.740103 0.792844 0.691567 0.118083
H65   H     H_    0.812057 0.661235 0.691744 0.095746
H66   H     H_    0.937141 0.644084 0.646338 0.098613
H67   H     H_    0.992200 0.759510 0.602210 0.102371
H68   H     H_    0.242952 0.807156 0.432594 0.090202
H69   H     H_    0.921996 0.891602 0.602846 0.095817
H70   H     H_    0.300880 0.670298 0.443156 0.091141
H71   H     H_    0.428989 0.632652 0.404791 0.092247
H72   H     H_    0.499276 0.732102 0.355700 0.082424
H73   H     H_    0.316303 0.427708 0.088698 0.097079
H74   H     H_    0.445520 0.870947 0.347281 0.079391
H75   H     H_    0.817311 0.589088 0.126185 0.090233
H76   H     H_    0.683697 0.572292 0.088698 0.097079
H77   H     H_    0.637927 0.671034 0.030998 0.092753
H78   H     H_    0.725020 0.787953 0.010796 0.088631
H79   H     H_    0.857927 0.805853 0.047949 0.088750
H80   H     H_    0.192844 0.242953 0.932594 0.090202
H81   H     H_    0.329701 0.300880 0.943156 0.091141
H82   H     H_    0.367348 0.428989 0.904791 0.092247
H83   H     H_    0.267898 0.499276 0.855700 0.082424
H84   H     H_    0.362073 0.328966 0.030998 0.092753
H85   H     H_    0.129053 0.445520 0.847280 0.079391
H86   H     H_    0.410912 0.817311 0.626185 0.090233
H87   H     H_    0.427708 0.683697 0.588698 0.097079
H88   H     H_    0.328965 0.637927 0.530998 0.092753
H89   H     H_    0.212046 0.725020 0.510796 0.088632
H90   H     H_    0.194147 0.857927 0.547949 0.088750
H91   H     H_    0.757048 0.192844 0.432594 0.090202
H92   H     H_    0.699120 0.329701 0.443156 0.091141
H93   H     H_    0.571011 0.367348 0.404791 0.092247
H94   H     H_    0.500725 0.267898 0.355700 0.082424
H95   H     H_    0.274980 0.212047 0.010796 0.088631
H96   H     H_    0.554480 0.129053 0.347281 0.079391
H97   H     H_    0.184829 0.610495 0.874049 0.086472
H98   H     H_    0.323614 0.600979 0.906215 0.090951
H99   H     H_    0.368215 0.698113 0.965019 0.092519
H100  H     H_    0.273767 0.803459 0.993066 0.093047
H101  H     H_    0.133893 0.810343 0.963495 0.088072
H102  H     H_    0.808158 0.247649 0.055837 0.101917
H103  H     H_    0.669836 0.305800 0.050701 0.096981
H104  H     H_    0.630689 0.420565 0.100047 0.093215
H105  H     H_    0.729583 0.477840 0.154664 0.087631
H106  H     H_    0.142073 0.194147 0.047949 0.088750
H107  H     H_    0.868053 0.421799 0.159366 0.086986
H108  H     H_    0.610495 0.815171 0.374049 0.086472
H109  H     H_    0.600979 0.676386 0.406216 0.090951
H110  H     H_    0.698112 0.631785 0.465019 0.092519
H111  H     H_    0.803459 0.726233 0.493066 0.093047
H112  H     H_    0.810343 0.866107 0.463496 0.088072
H113  H     H_    0.247649 0.191841 0.555837 0.101917
H114  H     H_    0.305801 0.330164 0.550701 0.096981
H115  H     H_    0.420565 0.369311 0.600047 0.093215
H116  H     H_    0.477840 0.270417 0.654664 0.087631
H117  H     H_    0.807156 0.757047 0.932594 0.090202
H118  H     H_    0.421799 0.131947 0.659366 0.086987
H119  H     H_    0.815171 0.389505 0.874049 0.086472
H120  H     H_    0.676386 0.399021 0.906215 0.090951
H121  H     H_    0.631785 0.301887 0.965019 0.092519
H122  H     H_    0.726233 0.196540 0.993066 0.093047
H123  H     H_    0.866107 0.189656 0.963495 0.088072
H124  H     H_    0.191841 0.752350 0.055837 0.101917
H125  H     H_    0.330164 0.694199 0.050701 0.096981
H126  H     H_    0.369311 0.579435 0.100047 0.093215
H127  H     H_    0.270417 0.522160 0.154664 0.087631
H128  H     H_    0.670298 0.699120 0.943156 0.091141
H129  H     H_    0.131947 0.578201 0.159366 0.086987
H130  H     H_    0.389505 0.184829 0.374049 0.086471
H131  H     H_    0.399020 0.323614 0.406216 0.090951
H132  H     H_    0.301887 0.368215 0.465019 0.092519
H133  H     H_    0.196540 0.273767 0.493066 0.093047
H134  H     H_    0.189656 0.133893 0.463496 0.088072
H135  H     H_    0.752350 0.808159 0.555837 0.101917
H136  H     H_    0.694199 0.669836 0.550701 0.096981
H137  H     H_    0.579435 0.630689 0.600047 0.093215
H138  H     H_    0.522160 0.729583 0.654664 0.087631
H139  H     H_    0.632652 0.571011 0.904791 0.092247
H140  H     H_    0.578201 0.868053 0.659366 0.086986
H141  H     H_    0.147092 0.080761 0.154240 0.107902
H142  H     H_    0.273985 0.047070 0.194909 0.120860
H143  H     H_    0.353232 0.154295 0.232873 0.093645
H144  H     H_    0.302853 0.295640 0.233330 0.088755
H145  H     H_    0.172978 0.329434 0.196604 0.086775
H146  H     H_    0.843973 0.664368 0.786296 0.092045
H147  H     H_    0.706535 0.688012 0.756320 0.093200
H148  H     H_    0.637742 0.819135 0.769814 0.095481
H149  H     H_    0.705728 0.925713 0.814631 0.108086
H150  H     H_    0.732102 0.500724 0.855700 0.082424
H151  H     H_    0.840532 0.900192 0.848958 0.102772
H152  H     H_    0.919240 0.147090 0.654241 0.107902
H153  H     H_    0.952932 0.273982 0.694911 0.120862
H154  H     H_    0.845708 0.353231 0.732873 0.093645
H155  H     H_    0.704362 0.302855 0.733329 0.088755
H156  H     H_    0.670566 0.172980 0.696603 0.086775
H157  H     H_    0.335632 0.843973 0.286296 0.092045
H158  H     H_    0.311988 0.706535 0.256320 0.093200
H159  H     H_    0.180864 0.637742 0.269814 0.095481
H160  H     H_    0.074287 0.705728 0.314631 0.108087
O1    O     O_R   0.931980 0.584070 0.954320 -0.492833
O2    O     O_R   0.068020 0.584070 0.954320 -0.497515
O3    O     O_R   0.415930 0.068020 0.545680 -0.493743
O4    O     O_R   0.584070 0.931980 0.454320 -0.497515
O5    O     O_R   0.068020 0.584070 0.045680 -0.493743
O6    O     O_R   0.931980 0.415930 0.954320 -0.497515
O7    O     O_R   0.584070 0.931980 0.545680 -0.493743
O8    O     O_R   0.415930 0.068020 0.454320 -0.497515
O9    O     O_R   0.068020 0.415930 0.045680 -0.496167
O10   O     O_R   0.415930 0.931980 0.454320 -0.492834
O11   O     O_R   0.584070 0.068020 0.545680 -0.496167
O12   O     O_R   0.068020 0.415930 0.954320 -0.492833
O13   O     O_R   0.931980 0.584070 0.045680 -0.496167
O14   O     O_R   0.584070 0.068020 0.454320 -0.492834
O15   O     O_R   0.415930 0.931980 0.545680 -0.496167
O16   O     O_R   0.931980 0.415930 0.045680 -0.493743

loop_
_geom_bond_atom_site_label_1
_geom_bond_atom_site_label_2
_ccdc_geom_bond_type
C255  C257  A    
C126  C127  A    
C208  C260  S    
C65   H127  S    
C19   C20   A    
C179  O15   A    
C55   C56   A    
C198  C216  A    
C127  H19   S    
C247  C252  A    
C44   C45   A    
C5    H77   S    
C79   C194  A    
C82   H141  S    
C67   C220  S    
C235  C256  S    
C34   C215  S    
C5    C6    A    
C258  H46   S    
C50   H114  S    
C135  O7    A    
C143  C144  A    
C221  C225  A    
Cu3   O15   S    
C108  C109  A    
C102  H157  S    
C182  C183  A    
C163  H49   S    
C212  C236  T    
C164  H50   S    
C90   C195  A    
C184  H66   S    
C107  C192  S    
C68   C193  A    
C72   H133  S    
C81   C86   A    
C145  H34   S    
C3    H75   S    
C134  C196  S    
C59   C60   A    
C169  H53   S    
C21   C22   A    
C113  O9    A    
C210  C228  A    
C39   H105  S    
C218  C228  A    
C104  C105  A    
C54   C218  S    
C48   C217  S    
C45   C47   A    
C15   C20   A    
Cu1   O1    S    
C152  H40   S    
C51   C52   A    
C251  C252  A    
C57   C192  A    
C140  H30   S    
C159  H45   S    
C72   C73   A    
C186  H69   S    
C135  O11   A    
C165  H51   S    
C7    C266  A    
C259  H57   S    
C43   C44   A    
C37   C38   A    
C168  O14   A    
C1    C231  T    
C2    C233  S    
C178  C180  A    
C175  C176  A    
C77   H137  S    
C78   H138  S    
C99   H156  S    
C76   C77   A    
C231  C256  S    
C154  C155  A    
C46   C203  A    
C28   C33   A    
C35   C190  S    
C158  C159  A    
C148  C153  A    
C176  H60   S    
C121  C194  S    
C91   C92   A    
C105  C106  A    
C200  C218  A    
C17   H87   S    
C164  C165  A    
C19   H89   S    
C2    C238  S    
C61   C219  S    
C79   C234  S    
C45   H111  S    
C144  C145  A    
C139  C140  A    
C6    C7    A    
C178  H62   S    
C100  C106  A    
C24   C188  A    
C60   H123  S    
C156  C158  A    
C130  C131  A    
C93   H151  S    
C64   C65   A    
C89   H147  S    
C4    H76   S    
C69   C70   A    
Cu4   O3    S    
C141  C147  A    
C149  H37   S    
Cu2   O5    S    
C88   C89   A    
C98   C99   A    
C155  C156  A    
C22   C23   A    
Cu1   O6    S    
C67   C69   A    
C109  C110  A    
C244  H95   S    
C153  H41   S    
C202  C219  A    
C125  H17   S    
C13   C187  A    
C126  H18   S    
C204  C221  A    
C137  H27   S    
C24   C112  S    
C46   C191  A    
C128  C129  A    
C97   C98   A    
C96   H153  S    
C167  C169  A    
C70   H131  S    
C85   C86   A    
C62   H124  S    
C154  C160  A    
C74   C221  S    
C249  C250  A    
C13   C197  A    
Cu1   O13   S    
C111  H7    S    
C36   C37   A    
C38   C39   A    
C246  H106  S    
C170  C171  A    
C115  C116  A    
C90   C245  S    
C184  C185  A    
C42   H108  S    
C257  C258  A    
C167  C202  S    
C174  C175  A    
C136  H26   S    
C208  C226  A    
C110  C111  A    
C146  O12   A    
C46   C201  S    
C31   C32   A    
C206  C224  A    
C264  C265  A    
C130  H21   S    
C107  C108  A    
C80   H140  S    
C104  H159  S    
C179  C229  S    
C9    C10   A    
C264  H72   S    
C2    C232  S    
C52   H116  S    
C3    C266  A    
C106  H3    S    
C255  H24   S    
C8    C210  S    
Cu4   O8    S    
C48   C53   A    
C113  C222  S    
C38   H104  S    
C223  C237  T    
C39   C40   A    
C101  O2    A    
C25   C26   A    
C249  H128  S    
C57   C202  A    
C205  C240  S    
C177  H61   S    
C29   C30   A    
C40   H107  S    
C123  H16   S    
C196  C214  A    
C83   C84   A    
Cu3   O10   S    
C187  C205  A    
C17   C18   A    
C41   C47   A    
C220  C226  A    
C14   H85   S    
C171  H55   S    
C190  C233  T    
C251  H150  S    
C67   C73   A    
C101  C224  S    
C129  H20   S    
C151  H39   S    
C141  C142  A    
C21   C213  S    
C3    C4    A    
C22   H91   S    
C174  C180  A    
C239  C256  S    
C52   C53   A    
C144  H33   S    
C129  C130  A    
C157  O5    A    
C155  H42   S    
C135  C225  S    
C161  C200  S    
C27   H96   S    
C260  C261  A    
Cu1   Cu2   S    
C115  C120  A    
C2    C237  S    
C262  C263  A    
C183  H65   S    
Cu2   O2    S    
C258  C259  A    
C71   C72   A    
C117  C118  A    
C261  H68   S    
C193  C210  A    
C146  C228  S    
C87   C93   A    
C240  C241  A    
C56   C58   A    
C34   C36   A    
C61   C62   A    
C49   H113  S    
C10   C11   A    
C63   C64   A    
C68   C223  S    
C4    C5    A    
C1    C13   S    
C152  C153  A    
C150  H38   S    
C49   C50   A    
C150  C151  A    
C83   H142  S    
C156  H43   S    
C23   H92   S    
C257  H35   S    
C87   C88   A    
C41   C42   A    
C199  C217  A    
C128  C195  S    
C161  C162  A    
C263  C264  A    
C53   H118  S    
C181  C182  A    
C147  H36   S    
C188  C206  A    
C26   C27   A    
C141  C197  S    
C203  C220  A    
C28   C29   A    
C122  H15   S    
C121  C127  A    
C117  H10   S    
C108  H4    S    
C105  H160  S    
C265  H74   S    
C30   C31   A    
C35   C204  A    
C123  C125  A    
Cu2   O9    S    
C85   H144  S    
C24   C196  A    
Cu3   O4    S    
C95   H152  S    
C205  C222  A    
C132  H23   S    
C25   H93   S    
C18   C19   A    
C234  C238  T    
C143  H32   S    
C54   C55   A    
C95   C96   A    
C16   C17   A    
C182  H64   S    
C151  C152  A    
C70   C71   A    
C20   H90   S    
C167  C173  A    
C21   C27   A    
C35   C189  A    
C74   C80   A    
Cu3   Cu4   S    
C240  C246  A    
C209  C266  S    
C168  O4    A    
C145  C147  A    
C250  H139  S    
C79   C199  A    
C162  H48   S    
C71   H132  S    
C84   C85   A    
C118  H11   S    
Cu4   O11   S    
C136  C137  A    
C32   H100  S    
C250  C251  A    
C82   C83   A    
C241  H1    S    
C107  C114  A    
C139  H29   S    
C62   C63   A    
C253  C259  A    
C159  C160  A    
C181  C186  A    
C242  C243  A    
C51   H115  S    
C236  C256  S    
C69   H130  S    
C121  C122  A    
C48   C49   A    
Cu3   O7    S    
C125  C126  A    
C42   C43   A    
C131  C132  A    
C215  C222  A    
C59   H122  S    
C248  C249  A    
C175  H59   S    
C162  C163  A    
C18   H88   S    
C211  C229  A    
C98   H155  S    
C242  H73   S    
C124  C226  S    
C119  C120  A    
C86   H145  S    
C112  C232  T    
C239  C245  T    
Cu1   O16   S    
C32   C33   A    
C138  H28   S    
C58   C59   A    
C94   C189  S    
C149  C150  A    
C154  C199  S    
C185  C186  A    
C261  C262  A    
C189  C207  A    
C92   C93   A    
C31   H99   S    
C111  C114  A    
C78   C80   A    
C94   C95   A    
C7    H79   S    
C192  C209  A    
C195  C213  A    
C101  O1    A    
C138  C139  A    
C157  C227  S    
C73   H134  S    
C166  H52   S    
C120  H14   S    
C243  H84   S    
C177  C178  A    
C26   H94   S    
C103  C104  A    
C142  C143  A    
C16   H86   S    
C66   H129  S    
C209  C227  A    
C219  C227  A    
C260  C265  A    
C55   H119  S    
C213  C230  A    
C8    C9    A    
C171  C172  A    
C124  O8    A    
C165  C166  A    
C169  C170  A    
C163  C164  A    
C76   H136  S    
C75   C76   A    
C81   C82   A    
C146  O6    A    
C54   C60   A    
C12   H83   S    
C254  C255  A    
C131  H22   S    
C34   C40   A    
C158  H44   S    
C92   H149  S    
C241  C242  A    
C134  C140  A    
C201  C235  T    
C15   C16   A    
C36   H102  S    
C43   H109  S    
C116  C117  A    
C47   H112  S    
C64   H126  S    
C118  C119  A    
C15   C211  S    
C217  C229  A    
C194  C211  A    
C63   H125  S    
C61   C66   A    
C29   H97   S    
C243  C244  A    
C157  O13   A    
C244  C246  A    
C132  C133  A    
C56   H120  S    
C58   H121  S    
C161  C166  A    
C197  C215  A    
C77   C78   A    
C254  H13   S    
C23   C25   A    
C115  C193  S    
C57   C212  S    
C97   H154  S    
C102  C103  A    
C10   H81   S    
C75   H135  S    
C6    H78   S    
C207  C225  A    
C160  H47   S    
C50   C51   A    
C119  H12   S    
C88   H146  S    
C28   C214  S    
C262  H70   S    
C74   C75   A    
C103  H158  S    
C37   H103  S    
C148  C149  A    
C41   C216  S    
C252  H2    S    
C134  C136  A    
C9    H80   S    
C173  H58   S    
C11   H82   S    
C183  C184  A    
C172  H56   S    
C253  C254  A    
Cu4   O14   S    
C216  C230  A    
C84   H143  S    
Cu2   O12   S    
C96   C97   A    
C100  C102  A    
C170  H54   S    
C113  O16   A    
C109  H5    S    
C214  C224  A    
C110  H6    S    
C176  C177  A    
C12   C14   A    
C124  O10   A    
C100  C191  S    
C89   C91   A    
C172  C173  A    
C8    C14   A    
C179  O3    A    
C116  H9    S    
C247  C248  A    
C91   H148  S    
C87   C188  S    
C90   C198  A    
C142  H31   S    
C248  H117  S    
C137  C138  A    
C68   C200  A    
C206  C247  S    
C207  C253  S    
C128  C133  A    
C148  C198  S    
C263  H71   S    
C94   C99   A    
C174  C203  S    
C44   H110  S    
C191  C208  A    
C133  H25   S    
C185  H67   S    
C33   H101  S    
C114  H8    S    
C168  C230  S    
C180  H63   S    
C65   C66   A    
C181  C204  S    
C122  C123  A    
C81   C187  S    
C11   C12   A    
C30   H98   S    
