data_mof_unit_38786.cif
_audit_creation_date              2012-12-10T19:04:14-0500
_audit_creation_method            fapswitch 2.2
_symmetry_space_group_name_H-M    P1
_symmetry_Int_Tables_number       1
_space_group_crystal_system       triclinic
_cell_length_a                    10.62427
_cell_length_b                    10.790186
_cell_length_c                    9.554198
_cell_angle_alpha                 89.858114
_cell_angle_beta                  90.434074
_cell_angle_gamma                 90.401465
_cell_volume                      1095.21117736

loop_
_atom_site_label
_atom_site_type_symbol
_atom_type_description
_atom_site_fract_x
_atom_site_fract_y
_atom_site_fract_z
_atom_type_partial_charge
C1    C     C_R   0.500899 0.262484 0.500274 0.790235
C2    C     C_3   0.957997 0.604338 0.440385 -0.156492
C3    C     C_3   0.039342 0.506196 0.366700 -0.134099
C4    C     C_3   0.122442 0.499740 0.498420 0.003111
C5    C     C_R   0.455187 0.063569 0.613667 0.122464
C6    C     C_R   0.507682 0.129296 0.502372 -0.084120
C7    C     C_R   0.570310 0.065265 0.396259 -0.206087
C8    C     C_R   0.569710 0.936067 0.396169 -0.193503
C9    C     C_R   0.505626 0.870903 0.501491 -0.097530
C10   C     C_R   0.453440 0.935499 0.613120 0.091582
C11   C     C_3   0.320448 0.930728 0.664166 -0.229540
C12   C     C_R   0.259318 0.499925 0.499444 0.779051
C13   C     C_3   0.323965 0.071488 0.667948 -0.511584
C14   C     C_R   0.590027 0.564300 0.074211 0.231258
C15   C     C_R   0.418369 0.427691 0.073908 -0.063236
C16   C     C_R   0.418310 0.427719 0.925071 -0.061318
C17   C     C_R   0.590669 0.563841 0.926832 0.239128
C18   C     C_3   0.615776 0.700150 0.921437 -0.054046
C19   C     C_3   0.614271 0.700313 0.080257 -0.523035
C20   C     C_R   0.500015 0.737559 0.499981 0.805304
C21   C     C_R   0.740728 0.499635 0.500542 0.801490
C22   C     C_3   0.042224 0.394532 0.559417 -0.188351
C23   C     C_3   0.956770 0.401015 0.427882 -0.173281
C24   C     C_3   0.877701 0.499188 0.501457 0.017889
C25   C     C_3   0.960881 0.492581 0.633109 -0.099677
C26   C     C_3   0.043380 0.597854 0.571980 -0.136954
Cu1   Cu    Cu3+1 0.499990 0.499980 0.640670 0.962475
Cu2   Cu    Cu3+1 0.500010 0.500020 0.359330 0.946717
H1    H     H_    0.918136 0.320476 0.369142 0.135943
H2    H     H_    0.258086 0.114942 0.591563 0.178431
H3    H     H_    0.321902 0.112699 0.774577 0.196943
H4    H     H_    0.350656 0.370969 0.129284 0.138177
H5    H     H_    0.350571 0.370990 0.868896 0.136731
H6    H     H_    0.537087 0.753054 0.874342 0.185864
H7    H     H_    0.706676 0.722228 0.129878 0.210329
H8    H     H_    0.533288 0.752420 0.122803 0.212895
H9    H     H_    0.079975 0.308759 0.607967 0.130654
H10   H     H_    0.926495 0.486046 0.742302 0.164595
H11   H     H_    0.081989 0.678391 0.630795 0.150378
H12   H     H_    0.920254 0.690131 0.391876 0.139320
H13   H     H_    0.074104 0.511779 0.257552 0.149858
H14   H     H_    0.616879 0.114796 0.312325 0.160603
H15   H     H_    0.616843 0.887498 0.312855 0.154887
H16   H     H_    0.253007 0.891695 0.586010 0.140954
N1    N     N_R   0.500800 0.500930 0.147930 -0.183319
N2    N     N_R   0.500800 0.500890 0.852020 -0.199006
O1    O     O_R   0.500000 0.319640 0.618810 -0.578198
O2    O     O_R   0.500010 0.319680 0.381230 -0.586913
O3    O     O_R   0.316850 0.499950 0.618770 -0.583927
O4    O     O_R   0.316860 0.499990 0.381190 -0.585260
O5    O     O_R   0.499990 0.680320 0.618770 -0.574473
O6    O     O_R   0.500000 0.680360 0.381190 -0.583310
O7    O     O_R   0.683140 0.500010 0.618810 -0.564963
O8    O     O_R   0.683150 0.500050 0.381230 -0.584411
C27   C     C_1   0.309200 0.873939 0.803603 0.293808
N3    N     N_1   0.299386 0.829353 0.913316 -0.300722
I1    I     I_    0.796391 0.744553 0.836572 -0.433715

loop_
_geom_bond_atom_site_label_1
_geom_bond_atom_site_label_2
_ccdc_geom_bond_type
C12   O4    A    
C23   C24   S    
Cu1   O7    S    
C1    O2    A    
C6    C7    A    
C16   H5    S    
C4    C12   S    
C4    C22   S    
C9    C10   A    
C9    C20   S    
C5    C13   S    
C8    H15   S    
C27   N3    T    
C12   O3    A    
C7    C8    A    
C2    C26   S    
C19   H7    S    
C24   C25   S    
C21   O7    A    
Cu2   O6    S    
C14   C17   A    
C21   O8    A    
C26   H11   S    
Cu2   O4    S    
Cu1   O3    S    
C23   H1    S    
Cu1   N2    S    
C5    C10   A    
C11   H16   S    
Cu1   O5    S    
C17   C18   S    
C20   O5    A    
C2    C3    S    
C19   H8    S    
C18   H6    S    
C2    C24   S    
C5    C6    A    
C25   H10   S    
C4    C26   S    
C21   C24   S    
C3    H13   S    
C10   C11   S    
C15   N1    A    
Cu1   O1    S    
C1    C6    S    
C2    H12   S    
C13   H2    S    
C11   C13   S    
C11   C27   S    
C17   N2    A    
C20   O6    A    
C18   C19   S    
C7    H14   S    
C16   N2    A    
Cu1   Cu2   S    
Cu2   N1    S    
Cu2   O8    S    
C22   C23   S    
Cu2   O2    S    
C18   I1    S    
C14   N1    A    
C25   C26   S    
C22   H9    S    
C3    C23   S    
C14   C19   S    
C13   H3    S    
C1    O1    A    
C3    C4    S    
C15   C16   A    
C8    C9    A    
C22   C25   S    
C15   H4    S    
