data_mof_unit_11087.cif
_audit_creation_date              2012-12-10T16:53:10-0500
_audit_creation_method            fapswitch 2.2
_symmetry_space_group_name_H-M    P1
_symmetry_Int_Tables_number       1
_space_group_crystal_system       triclinic
_cell_length_a                    10.836672
_cell_length_b                    10.956989
_cell_length_c                    9.677352
_cell_angle_alpha                 90.205996
_cell_angle_beta                  91.129199
_cell_angle_gamma                 90.289836
_cell_volume                      1148.81691405

loop_
_atom_site_label
_atom_site_type_symbol
_atom_type_description
_atom_site_fract_x
_atom_site_fract_y
_atom_site_fract_z
_atom_type_partial_charge
C1    C     C_R   0.507397 0.265202 0.499831 0.849501
C2    C     C_R   0.066120 0.552365 0.624252 0.014118
C3    C     C_R   0.129178 0.529883 0.499571 -0.095322
C4    C     C_R   0.062089 0.502409 0.378476 -0.162683
C5    C     C_R   0.935366 0.489635 0.381589 -0.180959
C6    C     C_R   0.873928 0.492815 0.507636 -0.079924
C7    C     C_2   0.543056 0.929662 0.399084 -0.152125
C8    C     C_2   0.491252 0.865510 0.499825 -0.248892
C9    C     C_2   0.527537 0.061657 0.389698 0.325134
C10   C     C_2   0.534589 0.134684 0.503165 0.097217
C11   C     C_2   0.430273 0.428268 0.919544 -0.050148
C12   C     C_R   0.263027 0.512849 0.499382 0.857965
C13   C     C_2   0.423471 0.434711 0.074418 0.486373
C14   C     C_R   0.498832 0.734351 0.500135 0.878572
C15   C     C_R   0.738387 0.494298 0.502127 0.788850
C16   C     C_R   0.120340 0.612004 0.741542 0.386924
C17   C     C_R   0.067214 0.599414 0.870966 -0.132160
C18   C     C_R   0.958872 0.532675 0.884292 -0.200099
C19   C     C_R   0.895793 0.490386 0.766579 -0.131950
C20   C     C_R   0.943095 0.510946 0.633023 0.056755
Cu1   Cu    Cu3+1 0.500020 0.500020 0.638630 1.030404
Cu2   Cu    Cu3+1 0.499980 0.499980 0.361370 1.038145
H1    H     H_    0.107508 0.489293 0.280946 0.201970
H2    H     H_    0.371512 0.362420 0.865681 0.202624
H3    H     H_    0.548870 0.566314 0.895810 0.197170
H4    H     H_    0.570456 0.543842 0.107958 0.157297
H5    H     H_    0.109497 0.642161 0.961308 0.179617
H6    H     H_    0.885818 0.474008 0.284757 0.168767
N1    N     N_2   0.498640 0.498660 0.846910 -0.302248
N2    N     N_2   0.498610 0.498630 0.153040 -0.306482
O1    O     O_R   0.500020 0.321960 0.617040 -0.544597
O2    O     O_R   0.499980 0.321920 0.382900 -0.509337
O3    O     O_R   0.319670 0.500020 0.617100 -0.560896
O4    O     O_R   0.319630 0.499980 0.382950 -0.542710
O5    O     O_R   0.500020 0.678080 0.617100 -0.523939
O6    O     O_R   0.499980 0.678040 0.382960 -0.588176
O7    O     O_R   0.680370 0.500020 0.617050 -0.594661
O8    O     O_R   0.680330 0.499980 0.382900 -0.589961
Cl1   Cl    Cl    0.596679 0.081298 0.663157 -0.561088
Cl2   Cl    Cl    0.305731 0.346125 0.146502 -0.531206
Cl3   Cl    Cl    0.237060 0.723638 0.727332 -0.598050
H7    H     H_    0.920660 0.518314 0.985533 0.158968
H8    H     H_    0.813313 0.437567 0.783527 0.190307
H9    H     H_    0.588318 0.883355 0.314569 0.191845
H10   H     H_    0.439824 0.909028 0.581345 0.223949
Cl4   Cl    Cl    0.498190 0.114081 0.220042 -0.494859

loop_
_geom_bond_atom_site_label_1
_geom_bond_atom_site_label_2
_ccdc_geom_bond_type
C15   O8    A    
Cu1   N1    S    
C7    C8    D    
Cu1   O5    S    
C5    H6    S    
Cu1   O1    S    
C9    C10   D    
C13   N2    D    
C19   C20   A    
C17   C18   A    
C6    C15   S    
Cu1   O7    S    
C9    Cl4   S    
C7    H9    S    
H3    N1    S    
C11   C13   S    
C16   C17   A    
Cu2   O2    S    
C6    C20   A    
C19   H8    S    
H4    N2    S    
C2    C3    A    
C18   H7    S    
C14   O6    A    
C5    C6    A    
Cu2   O4    S    
Cu1   O3    S    
C2    C20   A    
C3    C4    A    
C17   H5    S    
C11   H2    S    
C1    O1    A    
C2    C16   A    
C11   N1    D    
C18   C19   A    
C14   O5    A    
C7    C9    S    
C4    H1    S    
C8    H10   S    
C15   O7    A    
C13   Cl2   S    
C8    C14   S    
C3    C12   S    
Cu2   N2    S    
C12   O3    A    
Cu1   Cu2   S    
C12   O4    A    
C16   Cl3   S    
C10   Cl1   S    
C1    O2    A    
Cu2   O6    S    
C1    C10   S    
C4    C5    A    
Cu2   O8    S    
