data_mof_unit_7415.cif
_audit_creation_date              2012-12-11T14:34:12-0500
_audit_creation_method            fapswitch 2.2
_symmetry_space_group_name_H-M    P1
_symmetry_Int_Tables_number       1
_space_group_crystal_system       triclinic
_cell_length_a                    13.848753
_cell_length_b                    13.975027
_cell_length_c                    27.315248
_cell_angle_alpha                 89.974694
_cell_angle_beta                  90.08619
_cell_angle_gamma                 119.626435
_cell_volume                      4595.37672016

loop_
_atom_site_label
_atom_site_type_symbol
_atom_type_description
_atom_site_fract_x
_atom_site_fract_y
_atom_site_fract_z
_atom_type_partial_charge
C1    C     C_R   0.233892 0.787235 0.568750 0.539719
C2    C     C_1   0.706620 0.862377 0.860229 -0.078364
C3    C     C_1   0.113282 0.881245 0.852482 -0.077776
C4    C     C_1   0.114374 0.230697 0.852171 -0.078149
C5    C     C_1   0.628716 0.814474 0.659054 -0.075884
C6    C     C_1   0.176854 0.819460 0.656246 -0.076170
C7    C     C_1   0.178599 0.358131 0.656316 -0.076294
C8    C     C_1   0.601113 0.796164 0.616752 -0.017527
C9    C     C_1   0.199008 0.806426 0.615120 -0.017845
C10   C     C_1   0.192973 0.393054 0.615180 -0.017997
C11   C     C_R   0.064823 0.150297 0.095968 0.579379
C12   C     C_R   0.212573 0.446476 0.568783 0.542669
C13   C     C_R   0.777461 0.884042 0.088365 0.547460
C14   C     C_R   0.116491 0.893629 0.088137 0.560521
C15   C     C_R   0.069313 0.160350 0.943229 0.540351
C16   C     C_R   0.779544 0.887069 0.950811 0.542157
C17   C     C_R   0.090635 0.929764 0.943374 0.537252
C18   C     C_R   0.618612 0.895752 0.361544 -0.133052
C19   C     C_R   0.097064 0.732586 0.362896 -0.134661
C20   C     C_R   0.264258 0.357453 0.363831 -0.135466
C21   C     C_R   0.644899 0.911338 0.311903 0.014216
C22   C     C_R   0.080474 0.744075 0.313225 0.014314
C23   C     C_R   0.552801 0.765286 0.569027 0.539412
C24   C     C_R   0.241268 0.306527 0.317742 0.013954
C25   C     C_R   0.681120 0.929169 0.210383 0.017131
C26   C     C_R   0.060548 0.759997 0.211557 0.016967
C27   C     C_R   0.200646 0.225663 0.221018 0.016967
C28   C     C_R   0.232476 0.788348 0.431828 0.547592
C29   C     C_R   0.211682 0.444479 0.431382 0.549644
C30   C     C_R   0.555613 0.767222 0.431911 0.548584
C31   C     C_R   0.653640 0.000933 0.234525 -0.137982
C32   C     C_R   0.977323 0.670944 0.237624 -0.127754
C33   C     C_R   0.302986 0.256457 0.243627 -0.123963
C34   C     C_3   0.658714 0.734139 0.790361 -0.212433
C35   C     C_R   0.635343 0.991927 0.285028 -0.130921
C36   C     C_R   0.987855 0.662320 0.288124 -0.128857
C37   C     C_R   0.323290 0.296913 0.291607 -0.128790
C38   C     C_R   0.704076 0.939575 0.160115 -0.150320
C39   C     C_R   0.050666 0.771112 0.161173 -0.135424
C40   C     C_R   0.182848 0.194930 0.171537 -0.128786
C41   C     C_R   0.728761 0.864751 0.137078 -0.003144
C42   C     C_R   0.135381 0.861284 0.136241 -0.005059
C43   C     C_R   0.082762 0.172444 0.148638 -0.008871
C44   C     C_R   0.658860 0.744895 0.364127 -0.131466
C45   C     C_3   0.243655 0.954199 0.783088 -0.212107
C46   C     C_R   0.265958 0.910904 0.361974 -0.128504
C47   C     C_R   0.076140 0.327942 0.368039 -0.130400
C48   C     C_R   0.682939 0.757685 0.314572 0.013459
C49   C     C_R   0.254228 0.920539 0.312255 0.013852
C50   C     C_R   0.052641 0.278931 0.321977 0.011735
C51   C     C_R   0.673477 0.839517 0.288030 0.063953
C52   C     C_R   0.162262 0.835988 0.287458 0.063331
C53   C     C_R   0.136100 0.270225 0.296171 0.062620
C54   C     C_R   0.707981 0.684314 0.290543 -0.126865
C55   C     C_R   0.337562 0.009677 0.286502 -0.127140
C56   C     C_3   0.055488 0.311742 0.785742 -0.211993
C57   C     C_R   0.949189 0.245142 0.300060 -0.129212
C58   C     C_R   0.719812 0.689364 0.240053 -0.127163
C59   C     C_R   0.331765 0.013378 0.235895 -0.129488
C60   C     C_R   0.930245 0.207939 0.251863 -0.122535
C61   C     C_R   0.709939 0.769843 0.213515 0.010967
C62   C     C_R   0.240659 0.930036 0.210951 0.014301
C63   C     C_R   0.013355 0.201581 0.225397 0.016570
C64   C     C_3   0.564776 0.853601 0.737402 -0.212979
C65   C     C_3   0.142011 0.733989 0.738702 -0.214644
C66   C     C_3   0.272134 0.390215 0.736973 -0.215125
C67   C     C_3   0.638637 0.721445 0.734340 -0.213109
C68   C     C_R   0.688646 0.846611 0.237328 0.065258
C69   C     C_R   0.154260 0.841984 0.236655 0.063826
C70   C     C_R   0.116098 0.230654 0.247784 0.062028
C71   C     C_R   0.724433 0.776413 0.163511 -0.123017
C72   C     C_R   0.232771 0.936014 0.160772 -0.132639
C73   C     C_R   0.997188 0.171783 0.176189 -0.129385
C74   C     C_R   0.618747 0.807973 0.386748 -0.003370
C75   C     C_R   0.193387 0.813170 0.386445 -0.003717
C76   C     C_R   0.183207 0.372433 0.388156 -0.004906
C77   C     C_3   0.768582 0.924245 0.723138 -0.216234
C78   C     C_3   0.259991 0.939106 0.728190 -0.212842
C79   C     C_3   0.053918 0.847077 0.714040 -0.213859
C80   C     C_3   0.123348 0.200092 0.712656 -0.213656
C81   C     C_3   0.788195 0.937011 0.779258 -0.214402
C82   C     C_3   0.036372 0.862745 0.768860 -0.216057
C83   C     C_3   0.106070 0.166087 0.767278 -0.218426
C84   C     C_1   0.734084 0.872989 0.902588 -0.028788
C85   C     C_1   0.102523 0.901724 0.894244 -0.023905
C86   C     C_1   0.095919 0.199631 0.893983 -0.027763
C87   C     C_3   0.650322 0.828666 0.712004 0.072392
C88   C     C_3   0.158054 0.834349 0.707863 0.072029
C89   C     C_3   0.072986 0.346270 0.731111 -0.212823
C90   C     C_3   0.162222 0.324142 0.707837 0.072286
C91   C     C_3   0.584705 0.866089 0.793574 -0.215531
C92   C     C_3   0.124003 0.750126 0.793565 -0.212638
C93   C     C_3   0.254563 0.355757 0.791696 -0.212453
C94   C     C_3   0.684313 0.850201 0.807319 0.073477
C95   C     C_3   0.128672 0.862199 0.800908 0.072304
C96   C     C_3   0.132517 0.265553 0.800653 0.071847
Cr1   Cr    Cr6+3 0.164410 0.584450 0.499910 1.016987
Cr2   Cr    Cr6+3 0.415550 0.579960 0.499910 1.017470
Cr3   Cr    Cr6+3 0.420040 0.835590 0.499910 1.014456
Cr4   Cr    Cr6+3 0.155170 0.075460 0.019960 1.015200
Cr5   Cr    Cr6+3 0.924540 0.079710 0.019960 1.005448
Cr6   Cr    Cr6+3 0.920290 0.844830 0.019960 1.007460
H1    H     H_    0.601158 0.949073 0.805318 0.112075
H2    H     H_    0.706355 0.006952 0.139489 0.104464
H3    H     H_    0.975561 0.713388 0.142009 0.114006
H4    H     H_    0.248086 0.192781 0.150511 0.121953
H5    H     H_    0.588954 0.945777 0.379233 0.127317
H6    H     H_    0.039637 0.657924 0.382053 0.122926
H7    H     H_    0.346743 0.390641 0.379373 0.124452
H8    H     H_    0.612513 0.047035 0.302953 0.099522
H9    H     H_    0.924248 0.591414 0.307436 0.100553
H10   H     H_    0.404210 0.323688 0.307737 0.101757
H11   H     H_    0.741593 0.716884 0.145843 0.129325
H12   H     H_    0.042140 0.681929 0.805839 0.114340
H13   H     H_    0.298848 0.005206 0.141423 0.123255
H14   H     H_    0.919031 0.151701 0.158714 0.117875
H15   H     H_    0.736841 0.630554 0.221743 0.098337
H16   H     H_    0.397891 0.081823 0.216312 0.094375
H17   H     H_    0.852233 0.188227 0.234662 0.110490
H18   H     H_    0.714879 0.620964 0.310564 0.101012
H19   H     H_    0.408880 0.074549 0.305313 0.096936
H20   H     H_    0.884584 0.251847 0.319468 0.102919
H21   H     H_    0.571580 0.930641 0.722243 0.112617
H22   H     H_    0.069211 0.657367 0.724814 0.112112
H23   H     H_    0.311739 0.324562 0.802140 0.112531
H24   H     H_    0.337740 0.375522 0.721204 0.112593
H25   H     H_    0.661060 0.678599 0.383850 0.127706
H26   H     H_    0.338916 0.975012 0.380243 0.130894
H27   H     H_    0.012463 0.337395 0.386854 0.129861
H28   H     H_    0.831770 0.908013 0.705786 0.108383
H29   H     H_    0.063670 0.919240 0.692719 0.109533
H30   H     H_    0.044143 0.150617 0.692286 0.110048
H31   H     H_    0.779301 0.002468 0.707510 0.111160
H32   H     H_    0.979280 0.772882 0.699596 0.112263
H33   H     H_    0.186158 0.181858 0.696396 0.110964
H34   H     H_    0.508620 0.804177 0.812942 0.111178
H35   H     H_    0.808602 0.021488 0.790569 0.109061
H36   H     H_    0.953347 0.795923 0.780768 0.108801
H37   H     H_    0.160925 0.132265 0.777202 0.107721
H38   H     H_    0.860507 0.926697 0.788772 0.101287
H39   H     H_    0.036748 0.941476 0.773676 0.099425
H40   H     H_    0.018773 0.100632 0.772971 0.101612
H41   H     H_    0.583907 0.669933 0.809686 0.113133
H42   H     H_    0.310682 0.952033 0.804776 0.115266
H43   H     H_    0.073177 0.384105 0.808929 0.116768
H44   H     H_    0.478780 0.785994 0.729922 0.108168
H45   H     H_    0.189102 0.746567 0.816159 0.114383
H46   H     H_    0.216230 0.723368 0.735049 0.107268
H47   H     H_    0.302012 0.480031 0.734046 0.107541
H48   H     H_    0.646317 0.063869 0.214385 0.098153
H49   H     H_    0.905138 0.607270 0.218860 0.098350
H50   H     H_    0.368603 0.252793 0.223657 0.100552
H51   H     H_    0.554088 0.651169 0.726847 0.110828
H52   H     H_    0.336604 0.932946 0.723519 0.110874
H53   H     H_    0.099043 0.435262 0.728128 0.110169
H54   H     H_    0.699484 0.701752 0.717052 0.111892
H55   H     H_    0.272060 0.012778 0.707411 0.112192
H56   H     H_    0.275666 0.428906 0.814956 0.115422
H57   H     H_    0.992906 0.299518 0.711047 0.113491
H58   H     H_    0.729288 0.720633 0.799853 0.110922
H59   H     H_    0.252005 0.036508 0.789032 0.104426
H60   H     H_    0.967072 0.248347 0.791803 0.108687
O1    O     O_R   0.137150 0.468200 0.553200 -0.511717
O2    O     O_R   0.140110 0.470540 0.446010 -0.521706
O3    O     O_R   0.529460 0.669570 0.446010 -0.521561
O4    O     O_R   0.330430 0.859890 0.446010 -0.524069
O5    O     O_R   0.176710 0.690910 0.450560 -0.502077
O6    O     O_R   0.309090 0.485800 0.450560 -0.501228
O7    O     O_R   0.514200 0.823290 0.450560 -0.503994
O8    O     O_3   0.333333 0.666667 0.499990 -0.262719
O9    O     O_R   0.176750 0.985260 0.074180 -0.529915
O10   O     O_R   0.014740 0.191490 0.074180 -0.494602
O11   O     O_R   0.808510 0.823250 0.074180 -0.517343
O12   O     O_R   0.531800 0.668950 0.553200 -0.511755
O13   O     O_R   0.146100 0.172630 0.068980 -0.479206
O14   O     O_R   0.827370 0.973470 0.068980 -0.517681
O15   O     O_R   0.026530 0.853900 0.068980 -0.488810
O16   O     O_3   0.000000 0.000000 0.020040 -0.286015
O17   O     O_R   0.148270 0.170520 0.969620 -0.490569
O18   O     O_R   0.829480 0.977750 0.969620 -0.519822
O19   O     O_R   0.022250 0.851730 0.969620 -0.482056
O20   O     O_R   0.331050 0.862850 0.553200 -0.510210
O21   O     O_R   0.179100 0.982980 0.967000 -0.504853
O22   O     O_R   0.017020 0.196120 0.967000 -0.483812
O23   O     O_R   0.803880 0.820900 0.967000 -0.511614
O24   O     O_R   0.173970 0.688730 0.549930 -0.500787
O25   O     O_R   0.311270 0.485240 0.549930 -0.500079
O26   O     O_R   0.514760 0.826030 0.549930 -0.498843

loop_
_geom_bond_atom_site_label_1
_geom_bond_atom_site_label_2
_ccdc_geom_bond_type
C25   C31   A    
C65   C92   S    
C55   H19   S    
C44   H25   S    
C26   C32   A    
C80   H30   S    
C55   C59   A    
C13   O14   A    
C18   C21   A    
C2    C84   T    
Cr4   O16   S    
C6    C9    T    
C13   C41   S    
C66   C90   S    
C23   O12   A    
C1    O24   A    
C27   C33   A    
Cr6   O11   S    
C13   O11   A    
C72   H13   S    
C20   C76   A    
C73   H14   S    
C47   H27   S    
C60   C63   A    
C17   C85   S    
C32   C36   A    
C29   O6    A    
C40   H4    S    
C51   C68   A    
C47   C76   A    
C15   O17   A    
C16   O23   A    
C82   H39   S    
C23   O26   A    
C30   C74   S    
C35   H8    S    
C26   C39   A    
C89   H53   S    
C4    C86   T    
C16   O18   A    
C56   H60   S    
C16   C84   S    
C8    C23   S    
C6    C88   S    
C71   H11   S    
C60   H17   S    
C39   H3    S    
C65   H22   S    
C56   H43   S    
Cr4   O21   S    
C45   H59   S    
C18   H5    S    
C46   C75   A    
C37   H10   S    
C38   H2    S    
Cr5   O16   S    
C28   O5    A    
C57   H20   S    
C4    C96   S    
C43   C73   A    
Cr3   O20   S    
C40   C43   A    
C91   H34   S    
C20   C24   A    
Cr1   O1    S    
C45   H42   S    
C11   C43   S    
C45   C78   S    
C52   C69   A    
C39   C42   A    
C81   H38   S    
C28   O4    A    
C41   C71   A    
Cr3   O4    S    
C19   H6    S    
C61   C71   A    
C58   C61   A    
C11   O10   A    
C18   C74   A    
C92   H45   S    
Cr6   O19   S    
C29   O2    A    
C25   C68   A    
C77   H31   S    
C36   H9    S    
C80   C83   S    
C53   C70   A    
C10   C12   S    
C83   H37   S    
Cr3   O26   S    
C83   H40   S    
C89   H57   S    
C47   C50   A    
C48   C51   A    
Cr1   O24   S    
C26   C69   A    
C34   H41   S    
C50   C53   A    
Cr6   O23   S    
C2    C94   S    
C19   C22   A    
C1    C9    S    
C66   H47   S    
Cr4   O17   S    
C29   C76   S    
C31   H48   S    
C78   H52   S    
C57   C60   A    
C63   C73   A    
C24   C53   A    
C49   C55   A    
C12   O25   A    
C92   C95   S    
C33   C37   A    
Cr1   O8    S    
C66   H24   S    
C62   C69   A    
C67   H54   S    
C5    C87   S    
C48   C54   A    
C30   O7    A    
Cr2   O25   S    
C25   C38   A    
C5    C8    T    
C17   O21   A    
C78   H55   S    
C46   C49   A    
C63   C70   A    
C77   C81   S    
C27   C40   A    
C49   C52   A    
C79   H29   S    
C15   O22   A    
Cr4   O13   S    
C42   C72   A    
C24   C37   A    
C62   C72   A    
C14   O9    A    
C65   H46   S    
Cr5   O10   S    
C80   H33   S    
C27   C70   A    
C79   C88   S    
C38   C41   A    
C15   C86   S    
C21   C35   A    
C56   C89   S    
C93   C96   S    
C66   C93   S    
Cr6   O16   S    
C31   C35   A    
C3    C85   T    
C45   C95   S    
C21   C51   A    
C65   C88   S    
C22   C52   A    
C54   C58   A    
C78   C88   S    
C56   C96   S    
C79   H32   S    
C54   H18   S    
C59   C62   A    
Cr5   O22   S    
C82   C95   S    
C64   C87   S    
C64   H44   S    
C50   C57   A    
C67   C87   S    
C34   C94   S    
C30   O3    A    
C91   H1    S    
C44   C74   A    
C33   H50   S    
C34   C67   S    
C79   C82   S    
C1    O20   A    
Cr3   O7    S    
C59   H16   S    
C64   H21   S    
C22   C36   A    
C11   O13   A    
C14   C42   S    
C67   H51   S    
Cr1   O2    S    
Cr3   O8    S    
C7    C10   T    
C19   C75   A    
C82   H36   S    
Cr5   O18   S    
Cr1   O5    S    
C91   C94   S    
C81   C94   S    
C7    C90   S    
C61   C68   A    
C32   H49   S    
Cr2   O12   S    
C83   C96   S    
C77   H28   S    
C58   H15   S    
C80   C90   S    
C93   H56   S    
C93   H23   S    
Cr2   O3    S    
C20   H7    S    
Cr2   O8    S    
C17   O19   A    
C77   C87   S    
C46   H26   S    
C81   H35   S    
Cr6   O15   S    
Cr4   O9    S    
C14   O15   A    
Cr5   O14   S    
C3    C95   S    
C64   C91   S    
C89   C90   S    
C28   C75   S    
C92   H12   S    
Cr2   O6    S    
C44   C48   A    
C12   O1    A    
C34   H58   S    
