data_mof_unit_10416.cif
_audit_creation_date              2012-10-26T19:15:03-0400
_audit_creation_method            fapswitch 2.2
_symmetry_space_group_name_H-M    P1
_symmetry_Int_Tables_number       1
_space_group_crystal_system       triclinic
_cell_length_a                    10.836996
_cell_length_b                    10.863519
_cell_length_c                    9.548286
_cell_angle_alpha                 91.065099
_cell_angle_beta                  90.113254
_cell_angle_gamma                 90.763005
_cell_volume                      1123.80311501

loop_
_atom_site_label
_atom_site_type_symbol
_atom_type_description
_atom_site_fract_x
_atom_site_fract_y
_atom_site_fract_z
_atom_type_partial_charge
C1    C     C_R   0.496370 0.262530 0.498756 0.553159
C2    C     C_R   0.472147 0.940593 0.624313 0.027060
C3    C     C_3   0.545848 0.943962 0.756992 0.241250
C4    C     C_R   0.262502 0.495911 0.499826 0.542653
C5    C     C_3   0.543544 0.082983 0.753458 -0.179375
C6    C     C_R   0.600208 0.542951 0.075272 0.224656
C7    C     C_R   0.406847 0.445501 0.072978 -0.016003
C8    C     C_R   0.406826 0.445507 0.924163 -0.018260
C9    C     C_R   0.600219 0.543157 0.927653 0.157336
C10   C     C_3   0.648847 0.671747 0.928281 -0.249934
C11   C     C_3   0.652693 0.669675 0.086333 -0.267504
C12   C     C_R   0.937184 0.484556 0.623218 -0.007626
C13   C     C_R   0.497664 0.738013 0.500800 0.573292
C14   C     C_R   0.737789 0.494126 0.499367 0.580144
C15   C     C_R   0.064041 0.485382 0.624241 0.011790
C16   C     C_R   0.129910 0.479142 0.499551 -0.032041
C17   C     C_R   0.066161 0.449237 0.375253 -0.116181
C18   C     C_R   0.937138 0.446235 0.373172 0.210161
C19   C     C_R   0.871015 0.476316 0.497548 0.017452
C20   C     C_3   0.932027 0.576498 0.741100 -0.263489
C21   C     C_3   0.071994 0.577026 0.742141 -0.254125
C22   C     C_R   0.470872 0.067383 0.621860 -0.042582
C23   C     C_R   0.481880 0.129850 0.496547 0.016894
C24   C     C_R   0.475454 0.062037 0.370073 -0.139812
C25   C     C_R   0.476559 0.933489 0.371955 -0.150862
C26   C     C_R   0.484857 0.871518 0.500186 0.044049
Cl1   Cl    Cl    0.866674 0.407834 0.211166 -0.626264
Cu1   Cu    Cu3+1 0.499990 0.499980 0.640670 0.961543
Cu2   Cu    Cu3+1 0.500010 0.500020 0.359330 0.986348
F1    F     F_    0.663799 0.899002 0.737851 -0.642838
H1    H     H_    0.115955 0.432866 0.278534 0.157636
H2    H     H_    0.892898 0.665639 0.708406 0.163793
H3    H     H_    0.891770 0.535878 0.837025 0.169346
H4    H     H_    0.113839 0.666308 0.710527 0.144485
H5    H     H_    0.111691 0.537003 0.838339 0.149419
H6    H     H_    0.476186 0.107605 0.270134 0.142258
H7    H     H_    0.476769 0.883645 0.272848 0.126491
H8    H     H_    0.494254 0.907301 0.847725 0.085453
H9    H     H_    0.488248 0.124911 0.839465 0.093540
H10   H     H_    0.635712 0.126459 0.736524 0.192110
H11   H     H_    0.330477 0.402992 0.127423 0.117045
H12   H     H_    0.330466 0.402961 0.867579 0.124060
H13   H     H_    0.740911 0.681823 0.880368 0.164970
H14   H     H_    0.578173 0.733544 0.888388 0.184273
H15   H     H_    0.747968 0.670932 0.129718 0.171316
H16   H     H_    0.588894 0.736465 0.135868 0.139556
N1    N     N_R   0.500790 0.500930 0.147930 -0.232374
N2    N     N_R   0.500790 0.500890 0.852020 -0.243524
O1    O     O_R   0.500000 0.319640 0.618810 -0.508858
O2    O     O_R   0.500010 0.319680 0.381230 -0.496510
O3    O     O_R   0.319650 0.499970 0.618810 -0.511977
O4    O     O_R   0.319660 0.500010 0.381230 -0.522932
O5    O     O_R   0.499990 0.680320 0.618770 -0.484068
O6    O     O_R   0.500000 0.680360 0.381190 -0.524070
O7    O     O_R   0.680340 0.499990 0.618770 -0.501648
O8    O     O_R   0.680350 0.500030 0.381190 -0.440680

loop_
_geom_bond_atom_site_label_1
_geom_bond_atom_site_label_2
_ccdc_geom_bond_type
C2    C22   A    
C3    F1    S    
C14   O8    A    
C23   C24   A    
C8    N2    A    
C4    C16   S    
C21   H5    S    
Cu2   O8    S    
C1    O2    A    
C13   O6    A    
C12   C15   A    
Cu1   O5    S    
C14   O7    A    
C12   C20   S    
C6    C9    A    
C5    H9    S    
C2    C3    S    
C25   C26   A    
C10   C11   S    
C7    C8    A    
C2    C26   A    
C20   C21   S    
C24   H6    S    
C4    O4    A    
C20   H3    S    
C12   C19   A    
Cu1   Cu2   S    
Cu1   O7    S    
Cu2   N1    S    
C1    C23   S    
C13   O5    A    
Cu2   O2    S    
C7    H11   S    
C20   H2    S    
C17   H1    S    
Cu1   O3    S    
C13   C26   S    
C11   H15   S    
Cu2   O6    S    
C18   Cl1   S    
C4    O3    A    
C10   H14   S    
C15   C16   A    
C9    C10   S    
C6    N1    A    
C15   C21   S    
C24   C25   A    
C9    N2    A    
C17   C18   A    
C18   C19   A    
Cu1   O1    S    
C5    H10   S    
C6    C11   S    
C22   C23   A    
Cu1   N2    S    
C11   H16   S    
C21   H4    S    
C25   H7    S    
C10   H13   S    
C1    O1    A    
C14   C19   S    
C5    C22   S    
C3    H8    S    
C8    H12   S    
C16   C17   A    
C3    C5    S    
Cu2   O4    S    
C7    N1    A    
