data_mof_unit_8401.cif
_audit_creation_date              2012-12-11T15:29:38-0500
_audit_creation_method            fapswitch 2.2
_symmetry_space_group_name_H-M    P1
_symmetry_Int_Tables_number       1
_space_group_crystal_system       triclinic
_cell_length_a                    21.42278
_cell_length_b                    7.24299
_cell_length_c                    14.699264
_cell_angle_alpha                 89.721648
_cell_angle_beta                  74.651309
_cell_angle_gamma                 90.059391
_cell_volume                      2199.428606

loop_
_atom_site_label
_atom_site_type_symbol
_atom_type_description
_atom_site_fract_x
_atom_site_fract_y
_atom_site_fract_z
_atom_type_partial_charge
O1    O     O_R   0.464160 0.506670 0.130070 -0.534548
O2    O     O_R   0.535840 0.006670 0.869930 -0.534768
O3    O     O_R   0.589710 0.179080 0.006710 -0.544690
O4    O     O_R   0.410290 0.679080 0.993290 -0.544680
C1    C     C_R   0.616222 0.344537 0.002399 0.662330
C2    C     C_R   0.383776 0.844419 0.997641 0.663423
O5    O     O_R   0.467940 0.177220 0.138010 -0.537585
O6    O     O_R   0.532060 0.677220 0.861990 -0.537557
O7    O     O_R   0.413200 0.002810 0.002170 -0.540761
O8    O     O_R   0.586800 0.502810 0.997830 -0.540912
C3    C     C_R   0.456145 0.344836 0.174620 0.684971
C4    C     C_R   0.543895 0.845902 0.825472 0.684878
O9    O     O_3   0.482180 0.337850 0.955280 -0.376358
O10   O     O_3   0.517820 0.837850 0.044720 -0.376372
V1    V     V_3+5 0.503310 0.064600 0.008300 1.396591
V2    V     V_3+5 0.496690 0.564600 0.991700 1.396227
C5    C     C_R   0.572101 0.854991 0.723584 -0.028555
C6    C     C_R   0.427892 0.349019 0.276635 -0.028987
C7    C     C_R   0.929295 0.861348 0.277394 -0.116045
C8    C     C_R   0.069954 0.368015 0.722068 -0.106918
C9    C     C_R   0.560354 0.894525 0.565969 -0.159091
C10   C     C_R   0.439527 0.323671 0.435055 -0.159616
C11   C     C_R   0.532853 0.885174 0.662942 -0.173821
C12   C     C_R   0.467278 0.332056 0.338092 -0.174794
C13   C     C_R   0.638963 0.834454 0.687495 -0.208091
C14   C     C_R   0.360602 0.355726 0.311987 -0.208074
C15   C     C_R   0.668381 0.844170 0.589209 0.085720
C16   C     C_R   0.330901 0.342821 0.410152 0.086293
C17   C     C_R   0.627513 0.874933 0.528734 0.129480
C18   C     C_R   0.371945 0.328691 0.471495 0.132995
C19   C     C_R   0.736750 0.827404 0.549291 0.053459
C20   C     C_R   0.262179 0.343407 0.449208 0.047084
C21   C     C_R   0.763175 0.846889 0.449486 0.048016
C22   C     C_R   0.235735 0.337218 0.549484 0.054959
C23   C     C_R   0.720037 0.872998 0.392519 -0.145337
C24   C     C_R   0.278920 0.323348 0.607166 -0.145074
C25   C     C_R   0.653771 0.886755 0.431558 -0.190476
C26   C     C_R   0.345450 0.318460 0.568712 -0.194672
C27   C     C_R   0.779564 0.792118 0.605816 -0.179202
C28   C     C_R   0.219036 0.348572 0.391283 -0.175712
C29   C     C_R   0.845891 0.782538 0.567061 -0.141023
C30   C     C_R   0.152647 0.354654 0.429504 -0.129983
C31   C     C_R   0.872563 0.808266 0.470679 0.117427
C32   C     C_R   0.126250 0.356775 0.526782 0.100193
C33   C     C_R   0.831882 0.840160 0.410190 0.078335
C34   C     C_R   0.166995 0.346231 0.588482 0.081562
C35   C     C_R   0.940064 0.803757 0.434755 -0.159864
C36   C     C_R   0.059050 0.373374 0.562328 -0.183447
C37   C     C_R   0.968910 0.833432 0.338823 -0.092252
C38   C     C_R   0.030410 0.384638 0.659403 -0.016590
C39   C     C_R   0.861890 0.865368 0.312856 -0.149808
C40   C     C_R   0.137104 0.348553 0.686688 -0.177503
H1    H     H_    0.622725 0.908405 0.384972 0.127632
H2    H     H_    0.376581 0.307053 0.615856 0.124596
H3    H     H_    0.834542 0.888168 0.262007 0.118282
H4    H     H_    0.164566 0.340193 0.738242 0.131342
H5    H     H_    0.876763 0.756372 0.613463 0.141429
H6    H     H_    0.121584 0.360127 0.382055 0.161958
H7    H     H_    0.529089 0.918204 0.519921 0.118883
H8    H     H_    0.470949 0.311300 0.481704 0.119093
H9    H     H_    0.481020 0.901340 0.690725 0.106106
H10   H     H_    0.519412 0.324380 0.310911 0.107319
H11   H     H_    0.666313 0.813922 0.738521 0.088044
H12   H     H_    0.333237 0.369205 0.260522 0.089311
H13   H     H_    0.735681 0.883153 0.316831 0.149622
H14   H     H_    0.263070 0.314649 0.682900 0.145833
H15   H     H_    0.763596 0.770248 0.680863 0.116251
H16   H     H_    0.234741 0.347301 0.315452 0.123872
H17   H     H_    0.970580 0.780959 0.482069 0.139287
H18   H     H_    0.028933 0.385342 0.513709 0.156201
C41   C     C_3   0.229485 0.770620 0.906027 -0.099632
C42   C     C_3   0.770221 0.272152 0.095257 -0.101602
H19   H     H_    0.214004 0.623431 0.908101 0.087199
H20   H     H_    0.785719 0.125385 0.095214 0.084801
C43   C     C_3   0.302776 0.772953 0.904398 -0.355154
C44   C     C_3   0.697012 0.272527 0.096135 -0.355451
H21   H     H_    0.331630 0.857034 0.844173 0.133936
H22   H     H_    0.667722 0.355088 0.156075 0.135691
H23   H     H_    0.322034 0.629745 0.893706 0.140733
H24   H     H_    0.678042 0.128690 0.106842 0.138804
H25   H     H_    0.178710 0.605445 0.081258 0.147722
H26   H     H_    0.819934 0.103648 0.922509 0.148354
H27   H     H_    0.286330 0.591162 0.075294 0.143013
H28   H     H_    0.712970 0.092423 0.925150 0.142629
C45   C     C_3   0.197825 0.747905 0.083159 -0.350579
C46   C     C_3   0.801933 0.246689 0.918299 -0.358425
C47   C     C_3   0.215141 0.060836 0.007668 -0.307299
C48   C     C_3   0.785083 0.560933 0.991458 -0.304328
C49   C     C_3   0.187837 0.863724 0.998726 0.046004
C50   C     C_3   0.812086 0.363789 0.001706 0.049697
H29   H     H_    0.187171 0.125444 0.074644 0.159567
H30   H     H_    0.812957 0.625670 0.924242 0.137143
H31   H     H_    0.209623 0.152376 0.949448 0.171341
H32   H     H_    0.790842 0.652976 0.048928 0.174288
C51   C     C_3   0.312741 0.852164 0.997597 0.092273
C52   C     C_3   0.687232 0.352387 0.002564 0.093426
C53   C     C_3   0.270573 0.738011 0.081280 -0.325045
C54   C     C_3   0.729321 0.238953 0.919301 -0.317774
C55   C     C_3   0.287185 0.053831 0.007127 -0.331356
C56   C     C_3   0.713002 0.554050 0.992310 -0.333077
H33   H     H_    0.315818 0.139683 0.947535 0.144041
H34   H     H_    0.684562 0.639325 0.051723 0.145523
H35   H     H_    0.293139 0.115543 0.073570 0.144260
H36   H     H_    0.706994 0.616388 0.925751 0.138763
H37   H     H_    0.170391 0.810162 0.150725 0.209622
H38   H     H_    0.830380 0.305722 0.850047 0.165198
H39   H     H_    0.277263 0.790954 0.149035 0.144533
H40   H     H_    0.723274 0.293782 0.851292 0.140395
O11   O     O_R   0.913210 0.208550 0.002110 -0.552819
O12   O     O_R   0.086790 0.708550 0.997890 -0.553186
O13   O     O_R   0.032060 0.539960 0.861980 -0.520176
O14   O     O_R   0.967940 0.039960 0.138020 -0.548084
C57   C     C_R   0.043216 0.373228 0.824950 0.742779
C58   C     C_R   0.956423 0.872097 0.174845 0.700210
O15   O     O_R   0.910290 0.538020 0.993280 -0.523926
O16   O     O_R   0.089710 0.038020 0.006720 -0.533251
O17   O     O_R   0.964160 0.712340 0.130090 -0.521040
O18   O     O_R   0.035840 0.212340 0.869910 -0.528766
C59   C     C_R   0.883919 0.370116 0.998416 0.713313
C60   C     C_R   0.116028 0.870166 0.001849 0.710431
O19   O     O_3   0.017820 0.379210 0.044690 -0.384951
O20   O     O_3   0.982180 0.879210 0.955310 -0.373285
V3    V     V_3+5 0.996690 0.652500 0.991710 1.504350
V4    V     V_3+5 0.003310 0.152500 0.008290 1.462339
C61   C     C_2   0.220206 0.847780 0.814233 0.708921
O21   O     O_2   0.187106 0.984668 0.812915 -0.580686
O22   O     O_R   0.249906 0.758147 0.729870 -0.668476
H41   H     H_    0.240473 0.819804 0.672878 0.302914
C62   C     C_2   0.779065 0.352950 0.186295 0.707370
O23   O     O_2   0.813386 0.488081 0.185979 -0.575632
O24   O     O_R   0.747543 0.268722 0.271916 -0.673550
H42   H     H_    0.756875 0.332264 0.328235 0.303464
C63   C     C_2   0.040507 0.837029 0.305052 0.739656
O25   O     O_2   0.071866 0.710703 0.325928 -0.549650
O26   O     O_R   0.073142 0.985831 0.252355 -0.673318
H43   H     H_    0.043502 0.092162 0.247618 0.262708
C64   C     C_2   0.959890 0.421365 0.691932 0.693197
O27   O     O_2   0.923314 0.355064 0.649402 -0.563884
O28   O     O_R   0.935566 0.540168 0.767523 -0.668930
H44   H     H_    0.888012 0.568224 0.776616 0.266885

loop_
_geom_bond_atom_site_label_1
_geom_bond_atom_site_label_2
_ccdc_geom_bond_type
C55   H35   S    
C3    C6    S    
C47   H29   S    
C15   C17   A    
C21   C33   A    
O1    C3    A    
C42   C44   S    
O2    C4    A    
C30   H6    S    
C2    O7    A    
O14   C58   A    
C38   C64   S    
C43   C51   S    
O26   H43   S    
C35   C37   A    
O5    C3    A    
C64   O28   S    
C5    C11   A    
C6    C12   A    
C23   C25   A    
C44   H22   S    
O14   V4    S    
C10   H8    S    
C8    C57   S    
C24   H14   S    
C33   C39   A    
C51   C55   S    
C34   C40   A    
C56   H36   S    
C54   H40   S    
C18   C26   A    
C13   H11   S    
C14   H12   S    
C35   H17   S    
O19   V4    S    
C8    C38   A    
C48   H30   S    
C16   C18   A    
C52   C54   S    
C4    C5    S    
C19   C21   A    
C22   C34   A    
C10   C18   A    
C39   H3    S    
C25   H1    S    
C36   C38   A    
C26   H2    S    
O6    V2    S    
C29   C31   A    
C46   H38   S    
C30   C32   A    
C45   H37   S    
C32   C34   A    
C47   C55   S    
C48   H32   S    
O15   V3    S    
C15   C19   A    
C16   C20   A    
C42   H20   S    
C46   C50   S    
O12   C60   A    
C41   H19   S    
C45   C49   S    
C7    C58   S    
H26   C46   S    
C9    C17   A    
O16   C60   A    
C20   C22   A    
O4    V2    S    
O12   V3    S    
C42   C50   S    
C7    C37   A    
C41   C49   S    
C49   C60   S    
O6    C4    A    
C6    C14   A    
C56   H34   S    
O13   C57   A    
O1    V2    S    
O18   V4    S    
O2    V1    S    
C43   H21   S    
C48   C56   S    
O4    C2    A    
C55   H33   S    
C48   C50   S    
O15   C59   A    
C9    C11   A    
H27   C53   S    
C63   O25   D    
C10   C12   A    
O22   H41   S    
C1    C52   S    
O3    V1    S    
O11   C59   A    
C61   O22   S    
C62   O23   D    
C42   C62   S    
O13   V3    S    
C37   C63   S    
C12   H10   S    
O16   V4    S    
C27   H15   S    
C44   H24   S    
C36   H18   S    
C28   C30   A    
O3    C1    A    
O28   H44   S    
C51   C53   S    
O11   V4    S    
C9    H7    S    
C13   C15   A    
C64   O27   D    
C52   C56   S    
C14   C16   A    
C5    C13   A    
C50   C59   S    
C24   C26   A    
O17   V3    S    
H28   C54   S    
C1    O8    A    
C31   C33   A    
C32   C36   A    
O8    V2    S    
C44   C52   S    
C41   C43   S    
C61   O21   D    
C31   C35   A    
C47   H31   S    
O5    V1    S    
C21   C23   A    
C19   C27   A    
C22   C24   A    
C20   C28   A    
O7    V1    S    
O24   H42   S    
C46   C54   S    
C58   O17   A    
C45   C53   S    
C29   H5    S    
C57   O18   A    
C53   H39   S    
C7    C39   A    
C11   H9    S    
C27   C29   A    
C8    C40   A    
C2    C51   S    
C28   H16   S    
O9    V2    S    
C17   C25   A    
C63   O26   S    
C47   C49   S    
C23   H13   S    
O10   V1    S    
C41   C61   S    
O20   V3    S    
C43   H23   S    
H25   C45   S    
C40   H4    S    
C62   O24   S    
