data_mof_unit_32615.cif
_audit_creation_date              2012-12-10T18:19:05-0500
_audit_creation_method            fapswitch 2.2
_symmetry_space_group_name_H-M    P1
_symmetry_Int_Tables_number       1
_space_group_crystal_system       triclinic
_cell_length_a                    14.958194
_cell_length_b                    14.024912
_cell_length_c                    11.540281
_cell_angle_alpha                 90.01076
_cell_angle_beta                  90.222015
_cell_angle_gamma                 89.411481
_cell_volume                      2420.8591068

loop_
_atom_site_label
_atom_site_type_symbol
_atom_type_description
_atom_site_fract_x
_atom_site_fract_y
_atom_site_fract_z
_atom_type_partial_charge
C1    C     C_R   0.326663 0.500506 0.500857 0.893334
C2    C     C_R   0.432065 0.202628 0.552464 -0.002802
C3    C     C_R   0.433960 0.798692 0.556512 -0.011773
C4    C     C_R   0.567858 0.201057 0.447211 -0.004395
C5    C     C_R   0.431620 0.899473 0.557327 -0.093272
C6    C     C_R   0.569351 0.100170 0.444803 -0.099606
C7    C     C_R   0.566684 0.897891 0.439797 -0.089885
C8    C     C_R   0.429692 0.101847 0.553022 -0.098007
C9    C     C_R   0.499251 0.949334 0.498673 -0.063771
C10   C     C_R   0.499375 0.050390 0.498711 -0.066521
C11   C     C_R   0.363551 0.950970 0.615099 0.352762
C12   C     C_R   0.673363 0.499670 0.499773 0.893579
C13   C     C_R   0.639366 0.048455 0.390973 0.362106
C14   C     C_R   0.633819 0.947668 0.380259 0.351192
C15   C     C_R   0.358990 0.051912 0.605402 0.361908
C16   C     C_R   0.500045 0.500025 0.281751 0.910544
C17   C     C_R   0.499947 0.500038 0.718249 0.910544
C18   C     C_1   0.500053 0.500186 0.161394 -0.190173
C19   C     C_1   0.499924 0.500216 0.838606 -0.189723
C20   C     C_1   0.500017 0.500396 0.059275 -0.000931
C21   C     C_1   0.499951 0.500410 0.940725 -0.000946
C22   C     C_R   0.813622 0.575013 0.447577 -0.253338
C23   C     C_R   0.906076 0.576487 0.448561 0.118824
C24   C     C_R   0.186514 0.427947 0.558952 -0.264275
C25   C     C_R   0.769025 0.499532 0.500067 -0.065814
C26   C     C_R   0.231065 0.501827 0.503419 -0.068360
C27   C     C_R   0.815453 0.425414 0.554948 -0.265306
C28   C     C_R   0.184638 0.577107 0.450749 -0.251951
C29   C     C_R   0.907986 0.426162 0.557730 0.128520
C30   C     C_R   0.092116 0.577754 0.450578 0.119524
C31   C     C_R   0.953549 0.501637 0.503645 0.058965
C32   C     C_R   0.046558 0.502312 0.504763 0.057559
C33   C     C_3   0.309358 0.913045 0.795257 0.118013
C34   C     C_R   0.094047 0.427473 0.559920 0.133361
C35   C     C_3   0.364928 0.830019 0.844729 -0.390630
C36   C     C_3   0.369667 0.834347 0.976767 -0.946370
C37   C     C_3   0.790201 0.077412 0.408298 0.111819
C38   C     C_3   0.790603 0.127424 0.526760 -0.395750
C39   C     C_3   0.874924 0.101884 0.595329 -0.972126
C40   C     C_3   0.682986 0.908947 0.197612 0.106695
C41   C     C_3   0.625920 0.827550 0.150043 -0.389225
C42   C     C_3   0.617875 0.832494 0.018288 -0.939668
C43   C     C_3   0.210317 0.091733 0.583568 0.092061
C44   C     C_3   0.214399 0.152480 0.472930 -0.397114
C45   C     C_R   0.955552 0.353243 0.614105 -0.228515
C46   C     C_3   0.125342 0.152670 0.408083 -0.940306
C47   C     C_R   0.044572 0.651977 0.396566 -0.214917
C48   C     C_R   0.048437 0.353694 0.614978 -0.225791
C49   C     C_R   0.951662 0.651359 0.395579 -0.214494
C50   C     C_R   0.565158 0.797218 0.441969 -0.004593
H1    H     H_    0.776294 0.631965 0.405168 0.157624
H2    H     H_    0.380006 0.243902 0.594446 0.168136
H3    H     H_    0.382935 0.758395 0.600351 0.171872
H4    H     H_    0.620511 0.241125 0.406349 0.176965
H5    H     H_    0.241932 0.911913 0.835231 0.169526
H6    H     H_    0.339783 0.982297 0.820899 0.152908
H7    H     H_    0.334436 0.761352 0.818387 0.237085
H8    H     H_    0.433926 0.832576 0.809607 0.220700
H9    H     H_    0.402670 0.901038 0.005159 0.265698
H10   H     H_    0.408989 0.772490 0.009911 0.274317
H11   H     H_    0.301480 0.831538 0.014309 0.263984
H12   H     H_    0.223951 0.371690 0.602387 0.150917
H13   H     H_    0.847406 0.104467 0.357230 0.165266
H14   H     H_    0.802614 0.999668 0.419399 0.179426
H15   H     H_    0.786861 0.205830 0.513895 0.228544
H16   H     H_    0.731857 0.105294 0.578407 0.221706
H17   H     H_    0.880622 0.023414 0.606832 0.270504
H18   H     H_    0.871742 0.135299 0.682418 0.262893
H19   H     H_    0.935045 0.127971 0.549639 0.264667
H20   H     H_    0.749340 0.906267 0.154754 0.167835
H21   H     H_    0.652201 0.979149 0.173870 0.153680
H22   H     H_    0.656821 0.758005 0.174724 0.232452
H23   H     H_    0.779454 0.368447 0.597167 0.151280
H24   H     H_    0.557875 0.831721 0.188127 0.221121
H25   H     H_    0.584337 0.900094 0.991674 0.265082
H26   H     H_    0.577614 0.771716 0.986485 0.274404
H27   H     H_    0.685063 0.828164 0.977860 0.265193
H28   H     H_    0.152326 0.116353 0.635906 0.164123
H29   H     H_    0.197252 0.015945 0.560990 0.173625
H30   H     H_    0.231533 0.226913 0.495629 0.234997
H31   H     H_    0.267036 0.123765 0.414492 0.218810
H32   H     H_    0.106075 0.078728 0.385161 0.259688
H33   H     H_    0.131445 0.194866 0.327153 0.273777
H34   H     H_    0.220564 0.634045 0.408282 0.158043
H35   H     H_    0.072260 0.185667 0.462195 0.265592
H36   H     H_    0.920907 0.296326 0.657666 0.159228
H37   H     H_    0.079203 0.710126 0.354965 0.148350
H38   H     H_    0.084540 0.296432 0.658218 0.153463
H39   H     H_    0.915505 0.709098 0.353345 0.156304
H40   H     H_    0.616105 0.755822 0.397912 0.166389
N1    N     N_R   0.500000 0.750030 0.500000 -0.124195
N2    N     N_R   0.500000 0.249970 0.500000 -0.125189
O1    O     O_R   0.367850 0.580280 0.500030 -0.629021
O2    O     O_3   0.710937 0.097548 0.344512 -0.659939
O3    O     O_3   0.697628 0.897011 0.318116 -0.674935
O4    O     O_3   0.287990 0.102606 0.652991 -0.662803
O5    O     O_R   0.632150 0.419720 0.499970 -0.632799
O6    O     O_R   0.632150 0.580280 0.499970 -0.627797
O7    O     O_R   0.367850 0.419720 0.500030 -0.633492
O8    O     O_R   0.500010 0.580270 0.334450 -0.621420
O9    O     O_R   0.499990 0.419730 0.665550 -0.612411
O10   O     O_R   0.499990 0.580270 0.665550 -0.615556
O11   O     O_R   0.500010 0.419730 0.334450 -0.606770
O12   O     O_3   0.297750 0.902087 0.674067 -0.663869
Zn1   Zn    Zn3+2 0.500000 0.607200 0.500000 0.938942
Zn2   Zn    Zn3+2 0.500000 0.392800 0.500000 0.944115

loop_
_geom_bond_atom_site_label_1
_geom_bond_atom_site_label_2
_ccdc_geom_bond_type
C33   H5    S    
C40   H21   S    
C28   H34   S    
C33   O12   S    
C39   H18   S    
N1    Zn1   S    
C35   C36   S    
C43   C44   S    
C36   H9    S    
C1    O7    A    
C47   C49   A    
C43   H28   S    
O8    Zn1   S    
O6    Zn1   S    
C40   H20   S    
C35   H8    S    
C19   C21   T    
C24   C26   A    
C5    C11   A    
C38   C39   S    
C23   C49   A    
C27   C29   A    
C43   H29   S    
O10   Zn1   S    
C3    N1    A    
C41   C42   S    
C17   O9    A    
O1    Zn1   S    
C41   H24   S    
C46   H32   S    
C11   C15   A    
C50   H40   S    
C7    C14   A    
C38   H16   S    
C22   C25   A    
C48   H38   S    
C11   O12   S    
C9    C10   A    
C12   O6    A    
C46   H35   S    
C33   H6    S    
C13   C14   A    
C26   C28   A    
C37   H13   S    
C44   C46   S    
C39   H19   S    
C30   C47   A    
C44   H30   S    
C4    C6    A    
C44   H31   S    
C15   O4    S    
C16   O8    A    
C3    C5    A    
C24   C34   A    
C29   C45   A    
C32   C34   A    
C17   O10   A    
C5    C9    A    
C37   C38   S    
C16   O11   A    
C31   C32   A    
C38   H15   S    
C43   O4    S    
C42   H25   S    
C16   C18   S    
C2    N2    A    
C12   O5    A    
C2    H2    S    
C41   H22   S    
O5    Zn2   S    
C1    O1    A    
C40   C41   S    
C8    C15   A    
C1    C26   S    
C34   C48   A    
C40   O3    S    
C17   C19   S    
C36   H11   S    
C14   O3    S    
C37   H14   S    
C45   C48   A    
N2    Zn2   S    
O9    Zn2   S    
C7    C9    A    
O7    Zn2   S    
C24   H12   S    
C4    H4    S    
C39   H17   S    
C2    C8    A    
C7    C50   A    
C49   H39   S    
C36   H10   S    
C6    C10   A    
C25   C27   A    
C13   O2    S    
C42   H26   S    
C12   C25   S    
C35   H7    S    
C28   C30   A    
C45   H36   S    
C29   C31   A    
C6    C13   A    
C30   C32   A    
C3    H3    S    
C33   C35   S    
C37   O2    S    
O11   Zn2   S    
C18   C20   T    
C46   H33   S    
C50   N1    A    
C20   C21   S    
C42   H27   S    
C8    C10   A    
C22   C23   A    
C27   H23   S    
C47   H37   S    
C22   H1    S    
C4    N2    A    
C23   C31   A    
