data_mof_unit_9411.cif
_audit_creation_date              2012-10-26T20:07:05-0400
_audit_creation_method            fapswitch 2.2
_symmetry_space_group_name_H-M    P1
_symmetry_Int_Tables_number       1
_space_group_crystal_system       triclinic
_cell_length_a                    10.827088
_cell_length_b                    9.503053
_cell_length_c                    27.778333
_cell_angle_alpha                 90.218981
_cell_angle_beta                  90.299932
_cell_angle_gamma                 89.980416
_cell_volume                      2858.06336348

loop_
_atom_site_label
_atom_site_type_symbol
_atom_type_description
_atom_site_fract_x
_atom_site_fract_y
_atom_site_fract_z
_atom_type_partial_charge
C1    C     C_R   0.262018 0.500012 0.499969 0.555252
C2    C     C_R   0.392108 0.554231 0.872741 0.003827
C3    C     C_R   0.499825 0.497483 0.354162 0.013075
C4    C     C_R   0.500173 0.502516 0.645845 0.013038
C5    C     C_R   0.388512 0.532369 0.974626 0.037064
C6    C     C_R   0.611365 0.467596 0.025378 0.037081
C7    C     C_R   0.613380 0.496628 0.975056 0.026506
C8    C     C_R   0.386503 0.503363 0.024950 0.026490
C9    C     C_R   0.501448 0.519608 0.949527 -0.031525
C10   C     C_R   0.498436 0.480377 0.050478 -0.031537
C11   C     C_R   0.283224 0.583333 0.949188 0.241936
C12   C     C_R   0.737982 0.499988 0.500030 0.555348
C13   C     C_R   0.716638 0.416582 0.050813 0.241939
C14   C     C_R   0.283961 0.590286 0.898385 0.258510
C15   C     C_R   0.715897 0.409602 0.101616 0.258497
C16   C     C_R   0.501045 0.499805 0.407323 0.577242
C17   C     C_R   0.498963 0.500193 0.592679 0.577170
C18   C     C_R   0.274861 0.485975 0.050104 -0.071302
C19   C     C_R   0.725027 0.514040 0.949907 -0.071295
C20   C     C_R   0.063916 0.372118 0.500416 -0.115193
C21   C     C_R   0.936084 0.627882 0.499582 -0.115120
C22   C     C_R   0.936184 0.372104 0.500456 -0.119794
C23   C     C_R   0.496676 0.467720 0.101400 -0.120947
C24   C     C_R   0.063816 0.627896 0.499542 -0.119792
C25   C     C_R   0.871794 0.499985 0.500030 0.028059
C26   C     C_R   0.128206 0.500015 0.499969 0.028019
C27   C     C_R   0.423528 0.074174 0.469835 0.035385
C28   C     C_R   0.576472 0.925826 0.530165 0.035442
C29   C     C_R   0.576473 0.074773 0.530164 0.052260
C30   C     C_R   0.423528 0.925227 0.469836 0.052116
C31   C     C_R   0.385607 0.478815 0.177223 0.443000
C32   C     C_R   0.614307 0.521266 0.822785 0.443009
C33   C     C_R   0.604768 0.454977 0.178073 0.439948
C34   C     C_R   0.503216 0.532275 0.898605 -0.120936
C35   C     C_R   0.395128 0.544991 0.821929 0.439969
C36   C     C_R   0.540589 0.602150 0.276024 -0.008352
C37   C     C_R   0.459798 0.397688 0.723990 -0.008344
C38   C     C_R   0.543406 0.611434 0.326245 0.218669
C39   C     C_R   0.457021 0.388369 0.673769 0.218751
C40   C     C_R   0.454634 0.376544 0.330560 -0.162026
C41   C     C_R   0.544894 0.623673 0.669447 -0.161993
C42   C     C_R   0.452279 0.368636 0.280506 -0.050309
C43   C     C_R   0.547216 0.631605 0.719502 -0.050312
C44   C     C_R   0.495360 0.481200 0.253101 0.182211
C45   C     C_R   0.383393 0.476269 0.126508 0.070989
C46   C     C_R   0.504563 0.518853 0.746907 0.182262
C47   C     C_R   0.616511 0.523773 0.873500 0.070962
C48   C     C_R   0.271550 0.478150 0.100358 0.265126
C49   C     C_R   0.728351 0.521899 0.899653 0.265119
C50   C     C_R   0.607776 0.445718 0.127262 0.003854
Cl1   Cl    Cl    0.393294 0.234397 0.648228 -0.553482
Cl2   Cl    Cl    0.607762 0.765061 0.351807 -0.553154
Cl3   Cl    Cl    0.154603 0.666146 0.868631 -0.453261
Cl4   Cl    Cl    0.845212 0.333702 0.131371 -0.453290
Cu1   Cu    Cu3+1 0.500000 0.640660 0.500000 1.005367
Cu2   Cu    Cu3+1 0.500000 0.359340 0.500000 1.005403
H1    H     H_    0.420318 0.287769 0.350860 0.146510
H2    H     H_    0.574628 0.688717 0.254580 0.174530
H3    H     H_    0.188550 0.472634 0.031091 0.158035
H4    H     H_    0.811336 0.527367 0.968924 0.158047
H5    H     H_    0.112022 0.272150 0.500754 0.142206
H6    H     H_    0.887978 0.727850 0.499244 0.142241
H7    H     H_    0.888156 0.272134 0.500833 0.137858
H8    H     H_    0.111844 0.727866 0.499165 0.137855
H9    H     H_    0.091043 0.475432 0.100521 0.345224
H10   H     H_    0.908869 0.524632 0.899494 0.345242
H11   H     H_    0.108926 0.629290 0.956969 0.359358
H12   H     H_    0.578858 0.712620 0.649149 0.146726
H13   H     H_    0.890910 0.370597 0.043042 0.359396
H14   H     H_    0.362318 0.130192 0.445692 0.109739
H15   H     H_    0.637681 0.869807 0.554309 0.109772
H16   H     H_    0.637681 0.131269 0.554310 0.127619
H17   H     H_    0.362319 0.868731 0.445690 0.127472
H18   H     H_    0.417575 0.274596 0.262943 0.164232
H19   H     H_    0.581557 0.725811 0.737065 0.164175
H20   H     H_    0.426100 0.310969 0.745440 0.174402
N1    N     N_R   0.495206 0.471785 0.201524 -0.427368
N2    N     N_R   0.504707 0.528265 0.798482 -0.427409
N3    N     N_R   0.500000 0.852070 0.500000 -0.224435
N4    N     N_R   0.500000 0.147930 0.500000 -0.224431
O1    O     O_R   0.319640 0.618740 0.500000 -0.515873
O2    O     O_2   0.720110 0.508362 0.797694 -0.372566
O3    O     O_2   0.289899 0.549218 0.795823 -0.374505
O4    O     O_2   0.709997 0.450669 0.204175 -0.374558
O5    O     O_3   0.159875 0.468934 0.124096 -0.573846
O6    O     O_3   0.840038 0.531130 0.875919 -0.573805
O7    O     O_3   0.187417 0.643662 0.974687 -0.680184
O8    O     O_3   0.812439 0.356288 0.025309 -0.680232
O9    O     O_R   0.680360 0.381260 0.500000 -0.515872
O10   O     O_R   0.680360 0.618740 0.500000 -0.503535
O11   O     O_R   0.319640 0.381260 0.500000 -0.503616
O12   O     O_R   0.500020 0.618770 0.430260 -0.445734
O13   O     O_R   0.499980 0.381230 0.569740 -0.445610
O14   O     O_R   0.499980 0.618770 0.569740 -0.515698
O15   O     O_R   0.500020 0.381230 0.430260 -0.515628
O16   O     O_2   0.279810 0.491811 0.202313 -0.372661

loop_
_geom_bond_atom_site_label_1
_geom_bond_atom_site_label_2
_ccdc_geom_bond_type
C2    C35   A    
Cu2   O15   S    
C39   Cl1   S    
Cu1   Cu2   S    
C23   C45   A    
C47   C49   A    
C5    C9    A    
C12   O10   A    
C44   N1    S    
C24   C26   A    
C5    C11   A    
Cu1   O10   S    
C36   H2    S    
C11   C14   A    
C38   Cl2   S    
C4    C41   A    
C1    O1    A    
C31   O16   S    
C15   C50   A    
C20   H5    S    
C28   N3    A    
C22   H7    S    
Cu2   O11   S    
C3    C38   A    
C11   O7    S    
C22   C25   A    
Cu1   O1    S    
C29   H16   S    
C2    C34   A    
C40   C42   A    
C1    O11   A    
C27   C30   A    
C41   C43   A    
C42   C44   A    
Cu1   O14   S    
C43   C46   A    
C31   N1    A    
C41   H12   S    
C43   H19   S    
Cu2   O13   S    
C42   H18   S    
C15   Cl4   S    
C12   O9    A    
C27   N4    A    
C46   N2    S    
C30   H17   S    
C35   O3    S    
C23   C50   A    
C33   C50   A    
C8    C18   A    
C6    C10   A    
Cu1   O12   S    
Cu1   N3    S    
C19   C49   A    
C4    C39   A    
H13   O8    S    
C21   H6    S    
C27   H14   S    
C30   N3    A    
C8    C10   A    
Cu2   O9    S    
C37   H20   S    
C20   C22   A    
C3    C40   A    
C16   O12   A    
C7    C19   A    
C13   C15   A    
C9    C34   A    
C19   H4    S    
C32   C47   A    
C36   C44   A    
C28   H15   S    
C17   O13   A    
C4    C17   S    
C45   C48   A    
C7    C9    A    
C21   C25   A    
C28   C29   A    
C16   O15   A    
C40   H1    S    
C49   O6    S    
C18   C48   A    
H10   O6    S    
C5    C8    A    
H9    O5    S    
C6    C7    A    
C34   C47   A    
C10   C23   A    
C32   O2    S    
C35   N2    A    
H11   O7    S    
Cu2   N4    S    
C12   C25   S    
C36   C38   A    
C37   C39   A    
C6    C13   A    
C33   N1    A    
C1    C26   S    
C29   N4    A    
C20   C26   A    
C13   O8    S    
C2    C14   A    
C33   O4    S    
C32   N2    A    
C18   H3    S    
C14   Cl3   S    
C24   H8    S    
C31   C45   A    
C21   C24   A    
C48   O5    S    
C17   O14   A    
C37   C46   A    
C3    C16   S    
