data_mof_unit_29241.cif
_audit_creation_date              2012-12-10T17:19:24-0500
_audit_creation_method            fapswitch 2.2
_symmetry_space_group_name_H-M    P1
_symmetry_Int_Tables_number       1
_space_group_crystal_system       triclinic
_cell_length_a                    15.086616
_cell_length_b                    10.852447
_cell_length_c                    9.566711
_cell_angle_alpha                 89.335709
_cell_angle_beta                  89.495068
_cell_angle_gamma                 92.353721
_cell_volume                      1564.83174203

loop_
_atom_site_label
_atom_site_type_symbol
_atom_type_description
_atom_site_fract_x
_atom_site_fract_y
_atom_site_fract_z
_atom_type_partial_charge
C1    C     C_R   0.505478 0.262209 0.501713 0.829305
C2    C     C_R   0.908676 0.533631 0.378895 0.108977
C3    C     C_R   0.946672 0.407710 0.736199 -0.238801
C4    C     C_R   0.038809 0.406549 0.737774 -0.187990
C5    C     C_R   0.089364 0.452381 0.622712 0.003919
C6    C     C_R   0.045588 0.493042 0.501661 -0.007561
C7    C     C_R   0.094492 0.533605 0.382374 0.111244
C8    C     C_R   0.050391 0.572952 0.262399 -0.192565
C9    C     C_R   0.957990 0.573129 0.260734 -0.221594
C10   C     C_R   0.182734 0.457968 0.626224 0.438175
C11   C     C_R   0.231245 0.495869 0.504443 -0.178108
C12   C     C_R   0.328510 0.497954 0.501152 0.873131
C13   C     C_R   0.186695 0.533579 0.384311 -0.340699
C14   C     C_R   0.501018 0.107214 0.769393 -0.146611
C15   C     C_R   0.465665 0.043072 0.885446 -0.237297
C16   C     C_R   0.419155 0.931364 0.867810 -0.198110
C17   C     C_R   0.415136 0.877708 0.735951 0.545683
C18   C     C_R   0.463768 0.933848 0.622014 -0.016843
C19   C     C_R   0.492473 0.058353 0.632955 -0.019649
C20   C     C_R   0.511143 0.127064 0.507030 -0.212886
C21   C     C_R   0.524724 0.063480 0.381061 0.486033
C22   C     C_R   0.514235 0.936145 0.379356 -0.306699
C23   C     C_R   0.493112 0.736815 0.499490 0.851109
C24   C     C_R   0.485708 0.870416 0.498942 -0.181914
C25   C     C_R   0.616126 0.665740 0.141119 -0.166039
C26   C     C_R   0.672208 0.747982 0.067291 -0.226906
C27   C     C_R   0.672402 0.748186 0.923317 -0.198062
C28   C     C_R   0.616536 0.666147 0.852398 -0.134678
C29   C     C_R   0.557053 0.581888 0.923411 0.211999
C30   C     C_R   0.556982 0.581763 0.073199 0.208283
C31   C     C_R   0.446107 0.421753 0.075745 -0.046724
C32   C     C_R   0.446263 0.421636 0.927654 -0.088664
C33   C     C_R   0.671151 0.499603 0.499392 0.776074
C34   C     C_R   0.816238 0.534658 0.378794 -0.265035
C35   C     C_R   0.767588 0.496760 0.498389 -0.066041
C36   C     C_R   0.811135 0.455083 0.617505 -0.255039
C37   C     C_R   0.903229 0.451803 0.618478 0.113569
C38   C     C_R   0.952503 0.492711 0.499615 0.091429
Cu1   Cu    Cu3+1 0.499990 0.499990 0.640660 0.959500
Cu2   Cu    Cu3+1 0.500010 0.500010 0.359340 0.944102
H1    H     H_    0.782336 0.566623 0.286573 0.155344
H2    H     H_    0.538724 0.191307 0.790641 0.178646
H3    H     H_    0.471840 0.082244 0.988624 0.201310
H4    H     H_    0.385920 0.886276 0.956441 0.154154
H5    H     H_    0.529567 0.888936 0.283461 0.184748
H6    H     H_    0.401923 0.357704 0.132596 0.150907
H7    H     H_    0.622577 0.671933 0.251058 0.196884
H8    H     H_    0.716356 0.811374 0.122526 0.142714
H9    H     H_    0.716736 0.811761 0.865794 0.147751
H10   H     H_    0.623676 0.672902 0.742220 0.192981
H11   H     H_    0.773284 0.424021 0.709144 0.156463
H12   H     H_    0.402331 0.357380 0.873541 0.176307
H13   H     H_    0.909375 0.374178 0.827245 0.144652
H14   H     H_    0.070053 0.370569 0.830229 0.184782
H15   H     H_    0.224002 0.564369 0.292041 0.175820
H16   H     H_    0.087397 0.603791 0.169953 0.136159
H17   H     H_    0.925119 0.604319 0.167259 0.144431
N1    N     N_R   0.500860 0.501210 0.147910 -0.199487
N2    N     N_R   0.500890 0.501290 0.852040 -0.200270
O1    O     O_R   0.499990 0.319640 0.618810 -0.603231
O2    O     O_R   0.500000 0.319660 0.381240 -0.526328
O3    O     O_R   0.370250 0.499960 0.618800 -0.519070
O4    O     O_R   0.370260 0.499980 0.381230 -0.601860
O5    O     O_R   0.500000 0.680340 0.618760 -0.565958
O6    O     O_R   0.500010 0.680360 0.381190 -0.617997
O7    O     O_R   0.629740 0.500020 0.618770 -0.613972
O8    O     O_R   0.629750 0.500040 0.381200 -0.603285
O9    O     O_3   0.360002 0.774048 0.719668 -0.583851
C39   C     C_3   0.283583 0.808433 0.647216 -0.377825
H18   H     H_    0.299432 0.831668 0.536065 0.169952
H19   H     H_    0.251051 0.886618 0.698538 0.168406
H20   H     H_    0.234813 0.729297 0.648183 0.185668
O10   O     O_3   0.226182 0.414542 0.742970 -0.579545
C40   C     C_3   0.228813 0.505959 0.847365 -0.335106
H21   H     H_    0.166370 0.556572 0.857227 0.138896
H22   H     H_    0.284976 0.573051 0.828002 0.241951
H23   H     H_    0.240231 0.460562 0.949750 0.173307
O11   O     O_3   0.546696 0.124917 0.257321 -0.574317
C41   C     C_3   0.639915 0.135323 0.245477 -0.306285
H24   H     H_    0.669133 0.042964 0.239394 0.144947
H25   H     H_    0.669496 0.188738 0.333468 0.155773
H26   H     H_    0.657546 0.186170 0.147197 0.187417

loop_
_geom_bond_atom_site_label_1
_geom_bond_atom_site_label_2
_ccdc_geom_bond_type
C8    C9    A    
C11   C13   A    
O10   C40   S    
C35   C36   A    
C8    H16   S    
C7    C8    A    
Cu1   O5    S    
C26   C27   A    
C29   C30   A    
Cu2   O4    S    
C40   H22   S    
C18   C24   A    
C31   N1    A    
C36   C37   A    
C34   C35   A    
C5    C6    A    
C10   O10   S    
C15   C16   A    
C18   C19   A    
C39   H19   S    
C32   H12   S    
C28   H10   S    
C29   N2    A    
C16   C17   A    
C17   O9    S    
Cu2   O8    S    
C21   O11   S    
C23   C24   S    
C6    C38   A    
C16   H4    S    
C26   H8    S    
C14   H2    S    
C2    C34   A    
C21   C22   A    
C34   H1    S    
C33   O7    A    
Cu2   N1    S    
C40   H21   S    
C1    O1    A    
Cu1   Cu2   S    
C41   H25   S    
C12   O4    A    
O11   C41   S    
O9    C39   S    
C25   C26   A    
C31   H6    S    
Cu2   O2    S    
C39   H20   S    
C37   C38   A    
C12   O3    A    
C2    C38   A    
C31   C32   A    
Cu1   N2    S    
C40   H23   S    
C17   C18   A    
C36   H11   S    
C23   O5    A    
Cu2   O6    S    
Cu1   O7    S    
C22   C24   A    
C3    C4    A    
C33   O8    A    
C25   C30   A    
Cu1   O3    S    
C25   H7    S    
C28   C29   A    
C1    C20   S    
C4    H14   S    
C14   C19   A    
C4    C5    A    
C1    O2    A    
C41   H26   S    
C11   C12   S    
C6    C7    A    
C23   O6    A    
C19   C20   A    
C15   H3    S    
C5    C10   A    
C3    H13   S    
Cu1   O1    S    
C30   N1    A    
C33   C35   S    
C9    H17   S    
C39   H18   S    
C10   C11   A    
C41   H24   S    
C7    C13   A    
C22   H5    S    
C20   C21   A    
C3    C37   A    
C27   C28   A    
C14   C15   A    
C32   N2    A    
C2    C9    A    
C27   H9    S    
C13   H15   S    
