data_mof_unit_14815.cif
_audit_creation_date              2012-12-10T19:48:00-0500
_audit_creation_method            fapswitch 2.2
_symmetry_space_group_name_H-M    P1
_symmetry_Int_Tables_number       1
_space_group_crystal_system       triclinic
_cell_length_a                    14.945282
_cell_length_b                    14.250024
_cell_length_c                    10.623979
_cell_angle_alpha                 90.162084
_cell_angle_beta                  90.199954
_cell_angle_gamma                 89.965486
_cell_volume                      2262.57224217

loop_
_atom_site_label
_atom_site_type_symbol
_atom_type_description
_atom_site_fract_x
_atom_site_fract_y
_atom_site_fract_z
_atom_type_partial_charge
C1    C     C_R   0.327880 0.499964 0.501967 0.806825
C2    C     C_R   0.672313 0.500010 0.502343 0.812891
C3    C     C_R   0.048709 0.497614 0.540137 0.119259
C4    C     C_R   0.952172 0.500628 0.542010 0.114162
C5    C     C_R   0.484955 0.103863 0.388666 -0.371835
C6    C     C_R   0.561229 0.894969 0.572984 -0.392257
C7    C     C_R   0.516895 0.103563 0.608874 -0.382628
C8    C     C_R   0.441275 0.894681 0.422664 -0.404534
C9    C     C_R   0.482446 0.203114 0.390957 0.530547
C10   C     C_R   0.559115 0.795556 0.575041 0.530228
C11   C     C_R   0.518333 0.202939 0.608236 0.537802
C12   C     C_R   0.439723 0.795042 0.426404 0.536741
C13   C     C_R   0.501247 0.052266 0.498348 0.068915
C14   C     C_R   0.501014 0.946112 0.498250 0.095414
C15   C     C_R   0.500287 0.499850 0.260971 0.877578
C16   C     C_R   0.500182 0.500116 0.739071 0.874948
C17   C     C_R   0.334857 0.506664 0.130192 -0.131520
C18   C     C_R   0.665210 0.484660 0.869924 -0.166139
C19   C     C_R   0.334883 0.510881 0.868698 -0.142036
C20   C     C_R   0.665479 0.485605 0.131523 -0.134251
C21   C     C_R   0.254102 0.511227 0.064536 -0.169346
C22   C     C_R   0.745742 0.476915 0.935530 -0.165066
C23   C     C_R   0.254124 0.513755 0.933777 -0.140637
C24   C     C_R   0.745902 0.477652 0.066332 -0.139679
C25   C     C_R   0.417584 0.505720 0.934109 0.054244
C26   C     C_R   0.582908 0.492845 0.066052 0.057688
C27   C     C_R   0.417588 0.504555 0.065377 0.067298
C28   C     C_R   0.582832 0.492924 0.934745 0.064406
C29   C     C_R   0.500251 0.500274 0.871428 -0.182200
C30   C     C_R   0.500301 0.499369 0.128677 -0.173039
C31   C     C_R   0.098025 0.571823 0.591638 -0.194317
C32   C     C_R   0.903985 0.419468 0.570825 -0.193737
C33   C     C_R   0.908248 0.582439 0.503478 -0.190810
C34   C     C_R   0.091409 0.423559 0.477623 -0.177255
C35   C     C_R   0.189916 0.572916 0.578244 -0.213299
C36   C     C_R   0.812121 0.419049 0.556771 -0.211492
C37   C     C_R   0.816283 0.582343 0.490552 -0.173285
C38   C     C_R   0.183277 0.424300 0.465139 -0.203106
C39   C     C_R   0.232279 0.499534 0.514049 -0.021002
C40   C     C_R   0.768278 0.500173 0.515175 -0.028275
H1    H     H_    0.808423 0.471929 0.117504 0.137057
H2    H     H_    0.191476 0.517400 0.882540 0.142729
H3    H     H_    0.808105 0.470672 0.884635 0.144555
H4    H     H_    0.191440 0.512712 0.115318 0.138936
H5    H     H_    0.331805 0.503729 0.231689 0.119491
H6    H     H_    0.668244 0.484243 0.768357 0.127127
H7    H     H_    0.331828 0.512157 0.767165 0.123475
H8    H     H_    0.668702 0.485608 0.233178 0.121501
H9    H     H_    0.065329 0.628934 0.640890 0.130487
H10   H     H_    0.937663 0.356217 0.601808 0.130631
H11   H     H_    0.945277 0.645129 0.479161 0.132163
H12   H     H_    0.053515 0.366753 0.435409 0.129407
H13   H     H_    0.227863 0.630313 0.618834 0.143376
H14   H     H_    0.775635 0.355517 0.578442 0.142520
H15   H     H_    0.783091 0.645694 0.458942 0.173796
H16   H     H_    0.215754 0.367323 0.415369 0.131476
H17   H     H_    0.474917 0.067827 0.299862 0.174120
H18   H     H_    0.611996 0.931971 0.626442 0.162579
H19   H     H_    0.527154 0.067037 0.697036 0.168806
H20   H     H_    0.396422 0.932000 0.360456 0.152715
N1    N     N_R   0.500000 0.252470 0.500000 -0.174764
N2    N     N_R   0.500000 0.747530 0.500000 -0.163199
O1    O     O_R   0.369060 0.579480 0.500010 -0.598639
O2    O     O_R   0.630940 0.420520 0.499990 -0.637372
O3    O     O_R   0.630940 0.579480 0.499990 -0.575509
O4    O     O_R   0.369060 0.420520 0.500010 -0.631304
O5    O     O_R   0.499990 0.579480 0.316780 -0.577911
O6    O     O_R   0.500010 0.420520 0.683220 -0.557744
O7    O     O_R   0.500010 0.579480 0.683220 -0.626622
O8    O     O_R   0.499990 0.420520 0.316780 -0.567457
Zn1   Zn    Zn3+2 0.500000 0.606140 0.500000 1.004545
Zn2   Zn    Zn3+2 0.500000 0.393860 0.500000 0.989881
O9    O     O_3   0.470360 0.249520 0.278609 -0.576691
C41   C     C_3   0.379116 0.246783 0.243010 0.093186
H21   H     H_    0.344747 0.309715 0.281481 0.160460
H22   H     H_    0.342755 0.183053 0.276027 0.102851
C42   C     C_3   0.372649 0.248845 0.100063 -0.795662
H23   H     H_    0.400896 0.183119 0.060177 0.246857
H24   H     H_    0.301554 0.255274 0.070610 0.207040
H25   H     H_    0.410750 0.309203 0.062271 0.275028
O10   O     O_3   0.624257 0.746107 0.639616 -0.581661
C43   C     C_3   0.616186 0.760944 0.770812 0.097192
H26   H     H_    0.560321 0.718077 0.808360 0.170321
H27   H     H_    0.604016 0.835504 0.797097 0.111043
C44   C     C_3   0.702753 0.730753 0.834595 -0.807554
H28   H     H_    0.757159 0.780607 0.810719 0.239395
H29   H     H_    0.693867 0.729746 0.938327 0.214815
H30   H     H_    0.722433 0.659777 0.801869 0.270432
O11   O     O_3   0.529843 0.249379 0.721091 -0.577002
C45   C     C_3   0.619743 0.241970 0.762169 0.089821
H31   H     H_    0.656648 0.305601 0.732093 0.160359
H32   H     H_    0.656289 0.179457 0.725037 0.102985
C46   C     C_3   0.621486 0.236659 0.905218 -0.784368
H33   H     H_    0.590668 0.169830 0.936573 0.241613
H34   H     H_    0.691651 0.239723 0.939699 0.208469
H35   H     H_    0.583367 0.295960 0.946526 0.278789
O12   O     O_3   0.383764 0.744155 0.347313 -0.569898
C47   C     C_3   0.293264 0.768136 0.369477 0.107831
H36   H     H_    0.278553 0.841406 0.340746 0.119326
H37   H     H_    0.275918 0.758920 0.470580 0.129026
C48   C     C_3   0.232892 0.705003 0.290822 -0.800111
H38   H     H_    0.243004 0.630667 0.317083 0.254887
H39   H     H_    0.161735 0.723681 0.307295 0.198022
H40   H     H_    0.248144 0.713701 0.189278 0.255146

loop_
_geom_bond_atom_site_label_1
_geom_bond_atom_site_label_2
_ccdc_geom_bond_type
C42   H23   S    
C46   H33   S    
C35   H13   S    
O9    C41   S    
C6    H18   S    
C19   C23   A    
C2    O3    A    
O10   C43   S    
C44   H28   S    
C7    C11   A    
C48   H38   S    
C23   H2    S    
C41   H22   S    
C15   C30   S    
C9    N1    A    
C32   C36   A    
C28   C29   A    
C17   H5    S    
C37   C40   A    
C38   C39   A    
C19   H7    S    
C42   H25   S    
O5    Zn1   S    
C47   H36   S    
C1    O1    A    
O7    Zn1   S    
O4    Zn2   S    
C20   C24   A    
C41   C42   S    
C16   O6    A    
C5    C13   A    
O6    Zn2   S    
C44   H29   S    
C46   H34   S    
C34   C38   A    
C13   C14   S    
C27   C30   A    
C24   H1    S    
C10   N2    A    
C9    O9    S    
C31   H9    S    
C18   H6    S    
C7    H19   S    
C2    O2    A    
O12   C47   S    
C42   H24   S    
C25   C29   A    
C41   H21   S    
C17   C27   A    
C36   C40   A    
C18   C28   A    
C3    C34   A    
C16   C29   S    
O3    Zn1   S    
C33   C37   A    
C35   C39   A    
C5    C9    A    
C6    C14   A    
C21   H4    S    
C12   N2    A    
C11   O11   S    
C45   H32   S    
C22   H3    S    
C8    C12   A    
C15   O5    A    
C1    O4    A    
C20   H8    S    
C3    C31   A    
C32   H10   S    
C12   O12   S    
C4    C32   A    
N1    Zn2   S    
O1    Zn1   S    
C26   C30   A    
C46   H35   S    
C43   H27   S    
C21   C23   A    
C22   C24   A    
C33   H11   S    
C3    C4    S    
C47   C48   S    
C45   C46   S    
C44   H30   S    
C15   O8    A    
C4    C33   A    
C8    C14   A    
C18   C22   A    
C34   H12   S    
C16   O7    A    
C11   N1    A    
C6    C10   A    
C25   C27   A    
C43   C44   S    
C10   O10   S    
C26   C28   A    
C5    H17   S    
C8    H20   S    
C45   H31   S    
C20   C26   A    
N2    Zn1   S    
C31   C35   A    
O2    Zn2   S    
C19   C25   A    
C47   H37   S    
C17   C21   A    
C36   H14   S    
C1    C39   S    
C37   H15   S    
C2    C40   S    
C7    C13   A    
C38   H16   S    
C48   H39   S    
C43   H26   S    
O8    Zn2   S    
C48   H40   S    
O11   C45   S    
