data_mof_unit_54018.cif
_audit_creation_date              2012-12-11T15:54:39-0500
_audit_creation_method            fapswitch 2.2
_symmetry_space_group_name_H-M    P1
_symmetry_Int_Tables_number       1
_space_group_crystal_system       triclinic
_cell_length_a                    6.945241
_cell_length_b                    14.606604
_cell_length_c                    16.003299
_cell_angle_alpha                 90.085724
_cell_angle_beta                  89.822577
_cell_angle_gamma                 89.853227
_cell_volume                      1623.46188424

loop_
_atom_site_label
_atom_site_type_symbol
_atom_type_description
_atom_site_fract_x
_atom_site_fract_y
_atom_site_fract_z
_atom_type_partial_charge
O1    O     O_R   0.638180 0.333920 0.163320 -0.544637
O2    O     O_R   0.361820 0.666080 0.836680 -0.544636
O3    O     O_R   0.308470 0.344960 0.336080 -0.532559
O4    O     O_R   0.691530 0.655040 0.663920 -0.532559
O5    O     O_R   0.138140 0.166110 0.336680 -0.535063
O6    O     O_R   0.861860 0.833890 0.663320 -0.535063
C1    C     C_R   0.477187 0.366996 0.365118 0.699959
C2    C     C_R   0.522813 0.633004 0.634882 0.699959
O7    O     O_R   0.308460 0.344950 0.163930 -0.546385
O8    O     O_R   0.691540 0.655050 0.836070 -0.546385
O9    O     O_R   0.138140 0.166100 0.163310 -0.544744
O10   O     O_R   0.861860 0.833900 0.836690 -0.544745
C3    C     C_R   0.477577 0.367192 0.135029 0.670925
C4    C     C_R   0.522423 0.632808 0.864971 0.670925
O11   O     O_R   0.638180 0.333930 0.336700 -0.521123
O12   O     O_R   0.361820 0.666070 0.663300 -0.521123
O13   O     O_3   0.471670 0.191340 0.250000 -0.371988
O14   O     O_3   0.528330 0.808660 0.750000 -0.371988
V1    V     V_3+5 0.196830 0.260900 0.250000 1.438550
V2    V     V_3+5 0.803170 0.739100 0.750000 1.438550
O15   O     O_R   0.808420 0.155070 0.163920 -0.546103
O16   O     O_R   0.191580 0.844930 0.836080 -0.546104
C5    C     C_R   0.977716 0.132824 0.135066 0.666195
C6    C     C_R   0.022283 0.867176 0.864934 0.666196
O17   O     O_R   0.808420 0.155080 0.336070 -0.534598
O18   O     O_R   0.191580 0.844920 0.663930 -0.534598
C7    C     C_R   0.977037 0.135541 0.366562 0.725386
C8    C     C_R   0.022963 0.864459 0.633437 0.725386
V3    V     V_3+5 0.696830 0.239130 0.250000 1.441200
V4    V     V_3+5 0.303170 0.760870 0.750000 1.441199
O19   O     O_3   0.971850 0.308690 0.250010 -0.361165
O20   O     O_3   0.028150 0.691310 0.749990 -0.361165
H1    H     H_    0.124784 0.842698 0.243106 0.121742
H2    H     H_    0.875217 0.157302 0.756894 0.121742
C9    C     C_R   0.924584 0.186752 0.547467 -0.039001
C10   C     C_R   0.075416 0.813248 0.452533 -0.039001
C11   C     C_R   0.892832 0.207576 0.631676 -0.145907
C12   C     C_R   0.107169 0.792424 0.368324 -0.145907
C13   C     C_R   0.898945 0.139959 0.691852 -0.138914
C14   C     C_R   0.101056 0.860041 0.308147 -0.138914
C15   C     C_R   0.938440 0.050331 0.669234 -0.130191
C16   C     C_R   0.061560 0.949669 0.330766 -0.130191
C17   C     C_R   0.969781 0.025077 0.584651 0.071791
C18   C     C_R   0.030219 0.974923 0.415349 0.071791
C19   C     C_R   0.960228 0.093981 0.521256 0.025156
C20   C     C_R   0.039773 0.906018 0.478744 0.025156
C21   C     C_R   0.011446 0.932351 0.564154 -0.189901
C22   C     C_R   0.988554 0.067649 0.435846 -0.189901
H3    H     H_    0.865233 0.277513 0.651345 0.118700
H4    H     H_    0.134769 0.722487 0.348655 0.118700
H5    H     H_    0.944053 0.001189 0.719625 0.097889
H6    H     H_    0.055947 0.998811 0.280375 0.097889
C23   C     C_R   0.179204 0.973515 0.967983 -0.157486
C24   C     C_R   0.820796 0.026485 0.032017 -0.157486
H7    H     H_    0.319805 0.954065 0.944433 0.117148
H8    H     H_    0.680195 0.045935 0.055567 0.117148
C25   C     C_R   0.168334 0.037037 0.033378 -0.157554
C26   C     C_R   0.831666 0.962963 0.966622 -0.157554
H9    H     H_    0.300991 0.064763 0.058044 0.118964
H10   H     H_    0.699009 0.935237 0.941956 0.118964
C27   C     C_R   0.988979 0.064402 0.066280 -0.043836
C28   C     C_R   0.011021 0.935597 0.933720 -0.043836
C29   C     C_R   0.356729 0.433329 0.500742 -0.142937
C30   C     C_R   0.643271 0.566671 0.499257 -0.142937
H11   H     H_    0.249534 0.380372 0.504039 0.138263
H12   H     H_    0.750465 0.619629 0.495960 0.138262
C31   C     C_R   0.367740 0.497344 0.565956 -0.116337
C32   C     C_R   0.632259 0.502656 0.434044 -0.116337
H13   H     H_    0.265018 0.493539 0.616899 0.123671
H14   H     H_    0.734981 0.506462 0.383101 0.123670
C33   C     C_R   0.512193 0.564484 0.566221 -0.047224
C34   C     C_R   0.487807 0.435516 0.433779 -0.047224
C35   C     C_R   0.320817 0.474505 0.032418 -0.158471
C36   C     C_R   0.679183 0.525495 0.967582 -0.158471
H15   H     H_    0.180248 0.455894 0.056291 0.115971
H16   H     H_    0.819752 0.544106 0.943709 0.115971
C37   C     C_R   0.331885 0.538070 0.967168 -0.154537
C38   C     C_R   0.668115 0.461930 0.032832 -0.154537
H17   H     H_    0.199307 0.566616 0.942969 0.117765
H18   H     H_    0.800693 0.433384 0.057031 0.117765
C39   C     C_R   0.511225 0.564452 0.933805 -0.042836
C40   C     C_R   0.488775 0.435548 0.066195 -0.042836
C41   C     C_1   0.926417 0.264971 0.492768 0.229037
N1    N     N_1   0.928813 0.328679 0.450018 -0.334812
C42   C     C_1   0.073584 0.735029 0.507232 0.229037
N2    N     N_1   0.071187 0.671321 0.549981 -0.334812

loop_
_geom_bond_atom_site_label_1
_geom_bond_atom_site_label_2
_ccdc_geom_bond_type
C7    C22   S    
C26   C28   A    
V4    O20   S    
C29   H11   S    
C8    C21   S    
O13   V3    S    
O4    C2    A    
V1    O19   S    
C13   C15   A    
C42   N2    T    
O9    V1    S    
C36   H16   S    
C30   C32   A    
C9    C11   A    
O3    C1    A    
C24   C26   A    
C38   H18   S    
C25   H9    S    
C26   H10   S    
C30   C33   A    
O7    C3    A    
O5    C7    A    
O7    V1    S    
O6    C8    A    
O8    V2    S    
O3    V1    S    
O14   V4    S    
C31   C33   A    
C14   C16   A    
C2    O12   A    
V3    O19   S    
C15   C17   A    
C16   C18   A    
C18   C20   A    
O11   V3    S    
C24   H8    S    
C23   H7    S    
O17   V3    S    
C29   C31   A    
H1    C14   S    
H2    C13   S    
O8    C4    A    
C1    C34   S    
C9    C41   S    
C1    O11   A    
O15   V3    S    
C3    C40   S    
C31   H13   S    
C30   H12   S    
C11   H3    S    
C23   C28   A    
C38   C40   A    
C41   N1    T    
C37   C39   A    
C32   C34   A    
O10   V2    S    
O1    V3    S    
C37   H17   S    
C10   C20   A    
C17   C19   A    
O5    V1    S    
O18   V4    S    
O15   C5    A    
O16   C6    A    
O1    C3    A    
C35   H15   S    
C36   C39   A    
C9    C19   A    
C35   C40   A    
V2    O20   S    
C19   C22   A    
C20   C21   A    
C2    C33   S    
C6    C28   S    
O16   V4    S    
C23   C25   A    
C25   C27   A    
C12   H4    S    
C24   C27   A    
C10   C42   S    
O17   C7    A    
O6    V2    S    
O10   C6    A    
O18   C8    A    
O2    V4    S    
C10   C12   A    
C11   C13   A    
C12   C14   A    
C17   C21   A    
O9    C5    A    
O13   V1    S    
O14   V2    S    
O2    C4    A    
O4    V2    S    
C5    C27   S    
C29   C34   A    
C32   H14   S    
C36   C38   A    
C35   C37   A    
C4    C39   S    
O12   V4    S    
C15   H5    S    
C18   C22   A    
C16   H6    S    
