data_mof_unit_59259.cif
_audit_creation_date              2012-12-10T17:17:51-0500
_audit_creation_method            fapswitch 2.2
_symmetry_space_group_name_H-M    P1
_symmetry_Int_Tables_number       1
_space_group_crystal_system       triclinic
_cell_length_a                    14.885702
_cell_length_b                    16.007524
_cell_length_c                    9.59336
_cell_angle_alpha                 89.010984
_cell_angle_beta                  89.259114
_cell_angle_gamma                 89.602461
_cell_volume                      2285.3536389

loop_
_atom_site_label
_atom_site_type_symbol
_atom_type_description
_atom_site_fract_x
_atom_site_fract_y
_atom_site_fract_z
_atom_type_partial_charge
C1    C     C_R   0.373850 0.888615 0.502310 0.805446
C2    C     C_R   0.384409 0.121595 0.499947 0.802721
C3    C     C_R   0.873852 0.388616 0.502310 0.805476
C4    C     C_R   0.884411 0.621596 0.499946 0.802672
C5    C     C_R   0.264281 0.200451 0.383221 -0.225982
C6    C     C_R   0.266940 0.801123 0.382886 -0.230645
C7    C     C_R   0.764282 0.700451 0.383223 -0.225978
C8    C     C_R   0.766986 0.301081 0.382892 -0.230640
C9    C     C_R   0.693181 0.756942 0.382588 0.240737
C10   C     C_R   0.710044 0.233469 0.377539 0.256180
C11   C     C_R   0.193181 0.256943 0.382584 0.240785
C12   C     C_R   0.209940 0.733550 0.377520 0.256157
C13   C     C_R   0.671014 0.800526 0.505956 -0.169289
C14   C     C_R   0.667258 0.202397 0.501220 -0.184374
C15   C     C_R   0.171006 0.300520 0.505954 -0.169291
C16   C     C_R   0.167201 0.702439 0.501208 -0.184427
C17   C     C_R   0.664172 0.988427 0.140433 -0.170783
C18   C     C_R   0.164170 0.488411 0.140431 -0.170802
C19   C     C_R   0.744143 0.977267 0.066610 -0.271771
C20   C     C_R   0.244145 0.477265 0.066611 -0.271907
C21   C     C_R   0.744857 0.982814 0.923089 -0.198669
C22   C     C_R   0.244858 0.482805 0.923089 -0.198683
C23   C     C_R   0.664714 0.992822 0.852437 -0.126591
C24   C     C_R   0.164713 0.492809 0.852437 -0.126611
C25   C     C_R   0.580901 0.995155 0.923490 0.188705
C26   C     C_R   0.080900 0.495148 0.923490 0.188697
C27   C     C_R   0.580761 0.994434 0.072986 0.201794
C28   C     C_R   0.080760 0.494425 0.072985 0.201899
C29   C     C_R   0.423117 0.007057 0.075473 -0.077400
C30   C     C_R   0.923119 0.507067 0.075473 -0.077467
C31   C     C_R   0.613493 0.123777 0.499443 0.788187
C32   C     C_R   0.612214 0.875599 0.501202 0.806762
C33   C     C_R   0.113467 0.623795 0.499440 0.788171
C34   C     C_R   0.112210 0.375597 0.501202 0.806797
C35   C     C_R   0.423283 0.008395 0.927542 -0.097951
C36   C     C_R   0.923284 0.508399 0.927541 -0.097894
C37   C     C_R   0.356457 0.238040 0.737739 -0.160052
C38   C     C_R   0.260914 0.851806 0.758575 -0.223864
C39   C     C_R   0.856485 0.738058 0.737714 -0.160028
C40   C     C_R   0.760926 0.351800 0.758579 -0.223888
C41   C     C_R   0.326441 0.269097 0.866072 0.302746
C42   C     C_R   0.231460 0.816762 0.884065 0.297250
C43   C     C_R   0.826478 0.769116 0.866050 0.302739
C44   C     C_R   0.731481 0.316757 0.884075 0.297229
C45   C     C_R   0.735760 0.789564 0.882147 -0.209244
C46   C     C_R   0.664288 0.257620 0.882934 -0.145087
C47   C     C_R   0.235721 0.289546 0.882153 -0.209211
C48   C     C_R   0.164252 0.757631 0.882918 -0.145151
C49   C     C_R   0.680364 0.793706 0.766447 -0.186583
C50   C     C_R   0.634066 0.228480 0.756189 -0.218525
C51   C     C_R   0.180335 0.293688 0.766443 -0.186577
C52   C     C_R   0.134028 0.728499 0.756169 -0.218495
C53   C     C_R   0.715039 0.776947 0.631818 0.051318
C54   C     C_R   0.681000 0.246714 0.628798 0.063036
C55   C     C_R   0.215020 0.276933 0.631820 0.051314
C56   C     C_R   0.180964 0.746740 0.628786 0.063038
C57   C     C_R   0.297614 0.234097 0.623278 0.033008
C58   C     C_R   0.245728 0.811860 0.631240 0.073232
C59   C     C_R   0.797632 0.734112 0.623267 0.033006
C60   C     C_R   0.745749 0.311846 0.631246 0.073230
C61   C     C_R   0.318037 0.189549 0.500754 -0.158426
C62   C     C_R   0.293548 0.834322 0.507519 -0.175522
C63   C     C_R   0.818044 0.689554 0.500749 -0.158406
C64   C     C_R   0.793562 0.334312 0.507521 -0.175511
Cu1   Cu    Cu3+1 0.499990 0.000000 0.640660 0.905286
Cu2   Cu    Cu3+1 0.999990 0.500000 0.640660 0.905284
Cu3   Cu    Cu3+1 0.500010 0.000000 0.359340 0.910369
Cu4   Cu    Cu3+1 0.000010 0.500000 0.359340 0.910356
H1    H     H_    0.807890 0.978865 0.865871 0.159471
H2    H     H_    0.307891 0.478861 0.865871 0.159490
H3    H     H_    0.426272 0.221092 0.725942 0.148265
H4    H     H_    0.296922 0.908971 0.766272 0.163018
H5    H     H_    0.926300 0.721108 0.725906 0.148235
H6    H     H_    0.796923 0.408971 0.766271 0.163017
H7    H     H_    0.709034 0.806945 0.982837 0.158222
H8    H     H_    0.634203 0.235239 0.979569 0.152345
H9    H     H_    0.208989 0.306931 0.982836 0.158224
H10   H     H_    0.134162 0.735242 0.979548 0.152408
H11   H     H_    0.610499 0.809056 0.784835 0.179241
H12   H     H_    0.574053 0.192252 0.763731 0.179186
H13   H     H_    0.110468 0.309040 0.784818 0.179233
H14   H     H_    0.074011 0.692257 0.763699 0.179168
H15   H     H_    0.360115 0.013023 0.131954 0.133775
H16   H     H_    0.860119 0.513042 0.131954 0.133792
H17   H     H_    0.671486 0.994961 0.249676 0.212469
H18   H     H_    0.171481 0.494946 0.249672 0.212451
H19   H     H_    0.806866 0.969818 0.121472 0.152548
H20   H     H_    0.306869 0.469829 0.121474 0.152580
N1    N     N_R   0.501200 0.000000 0.147910 -0.198681
N2    N     N_R   0.001200 0.500000 0.147910 -0.198697
N3    N     N_R   0.501270 0.000000 0.852040 -0.212434
N4    N     N_R   0.001270 0.500000 0.852040 -0.212435
O1    O     O_R   0.409820 0.909830 0.618810 -0.589410
O2    O     O_R   0.409820 0.090170 0.618810 -0.593516
O3    O     O_R   0.909820 0.409830 0.618810 -0.589414
O4    O     O_R   0.909820 0.590170 0.618810 -0.593521
O5    O     O_R   0.409840 0.909830 0.381240 -0.590260
O6    O     O_R   0.409840 0.090170 0.381240 -0.590172
O7    O     O_R   0.909840 0.409830 0.381240 -0.590278
O8    O     O_R   0.909840 0.590170 0.381240 -0.590189
O9    O     O_R   0.590170 0.090170 0.618760 -0.613791
O10   O     O_R   0.590170 0.909830 0.618760 -0.605355
O11   O     O_R   0.090170 0.590170 0.618760 -0.613786
O12   O     O_R   0.090170 0.409830 0.618760 -0.605354
O13   O     O_R   0.590190 0.090180 0.381190 -0.597780
O14   O     O_R   0.590190 0.909820 0.381190 -0.596351
O15   O     O_R   0.090190 0.590180 0.381190 -0.597737
O16   O     O_R   0.090190 0.409820 0.381190 -0.596355
H21   H     H_    0.276759 0.164235 0.290503 0.169882
H22   H     H_    0.297420 0.822709 0.286700 0.205673
H23   H     H_    0.776753 0.664230 0.290509 0.169873
H24   H     H_    0.797480 0.322650 0.286706 0.205705
H25   H     H_    0.672440 0.997834 0.742421 0.205919
H26   H     H_    0.172440 0.497825 0.742423 0.205932
H27   H     H_    0.360538 0.017127 0.873938 0.137742
H28   H     H_    0.860540 0.517134 0.873937 0.137736
N5    N     N_2   0.387623 0.284562 0.975493 -0.444437
H29   H     H_    0.363348 0.324883 0.050000 0.251132
C65   C     C_3   0.429697 0.211560 0.036840 -0.681275
H30   H     H_    0.477512 0.230837 0.117978 0.224018
H31   H     H_    0.467840 0.176367 0.956903 0.228351
H32   H     H_    0.377727 0.171256 0.086576 0.228936
N6    N     N_2   0.274009 0.837508 0.009969 -0.422459
H33   H     H_    0.266307 0.899743 0.033449 0.231014
C66   C     C_3   0.367461 0.810723 0.013052 -0.690469
H34   H     H_    0.398283 0.827317 0.113216 0.232551
H35   H     H_    0.407072 0.841145 0.927837 0.234974
H36   H     H_    0.372821 0.742222 0.999434 0.231590
N7    N     N_2   0.887670 0.784582 0.975459 -0.444433
H37   H     H_    0.863408 0.824917 0.049949 0.251129
C67   C     C_3   0.929722 0.711576 0.036832 -0.681331
H38   H     H_    0.977545 0.730849 0.117962 0.223966
H39   H     H_    0.967854 0.676365 0.956909 0.228368
H40   H     H_    0.877742 0.671293 0.086585 0.228951
N8    N     N_2   0.774013 0.337531 0.009978 -0.422520
H41   H     H_    0.766317 0.399774 0.033402 0.230991
C68   C     C_3   0.867462 0.310735 0.013114 -0.690259
H42   H     H_    0.898294 0.327408 0.113236 0.232560
H43   H     H_    0.907081 0.341085 0.927826 0.234918
H44   H     H_    0.872807 0.242218 0.999660 0.231638
N9    N     N_2   0.641641 0.763106 0.259023 -0.432360
H45   H     H_    0.643448 0.819799 0.207227 0.272795
C69   C     C_3   0.554200 0.724433 0.266783 -0.681561
H46   H     H_    0.524490 0.724287 0.161300 0.216177
H47   H     H_    0.508689 0.759334 0.337908 0.233710
H48   H     H_    0.560427 0.658626 0.304398 0.229398
N10   N     N_2   0.707673 0.193405 0.246922 -0.413285
H49   H     H_    0.647784 0.172749 0.208671 0.270733
C70   C     C_3   0.788054 0.146384 0.212801 -0.665463
H50   H     H_    0.788021 0.131670 0.100503 0.245731
H51   H     H_    0.791542 0.088786 0.278450 0.210206
H52   H     H_    0.849538 0.183044 0.232120 0.223920
N11   N     N_2   0.141652 0.263121 0.259006 -0.432309
H53   H     H_    0.143470 0.319820 0.207223 0.272789
C71   C     C_3   0.054205 0.224444 0.266731 -0.681883
H54   H     H_    0.024531 0.224286 0.161260 0.216235
H55   H     H_    0.008684 0.259342 0.337794 0.233749
H56   H     H_    0.060398 0.158656 0.304362 0.229425
N12   N     N_2   0.207415 0.693583 0.246845 -0.413356
H57   H     H_    0.147473 0.672970 0.208735 0.270675
C72   C     C_3   0.287721 0.646532 0.212480 -0.665196
H58   H     H_    0.287562 0.631859 0.100180 0.245855
H59   H     H_    0.291250 0.588922 0.278070 0.210187
H60   H     H_    0.349240 0.683140 0.231721 0.223937

loop_
_geom_bond_atom_site_label_1
_geom_bond_atom_site_label_2
_ccdc_geom_bond_type
C58   C62   A    
C69   H48   S    
Cu2   Cu4   S    
C24   H26   S    
C40   C60   A    
C71   H55   S    
C31   O13   A    
C13   C32   S    
N10   H49   S    
C33   O15   A    
Cu1   O9    S    
C14   C31   S    
C30   N2    A    
C67   H40   S    
C1    C62   S    
C46   H8    S    
C72   H58   S    
C53   C59   A    
C70   H50   S    
N8    H41   S    
C37   H3    S    
C54   C60   A    
C3    C64   S    
C68   H43   S    
C4    C63   S    
C18   H18   S    
Cu3   O5    S    
C17   H17   S    
C31   O9    A    
N10   C70   S    
C24   C26   A    
C38   C42   A    
C19   H19   S    
N5    C65   S    
C6    C12   A    
N6    C66   S    
C26   N4    A    
C69   H46   S    
Cu3   N1    S    
C7    C9    A    
C48   H10   S    
C57   C61   A    
C9    C13   A    
Cu3   O6    S    
C4    O4    A    
C11   C15   A    
C12   C16   A    
C40   H6    S    
Cu1   Cu3   S    
C66   H36   S    
Cu4   N2    S    
N12   C72   S    
C35   H27   S    
Cu4   O15   S    
C45   C49   A    
C56   C58   A    
N11   C71   S    
C51   H13   S    
C15   C34   S    
C18   C20   A    
C2    C61   S    
C10   N10   S    
N6    H33   S    
C36   N4    A    
C44   N8    S    
Cu1   O1    S    
C32   O14   A    
C71   H56   S    
C37   C41   A    
C6    H22   S    
C70   H51   S    
Cu1   O10   S    
C29   N1    A    
C72   H59   S    
C44   C46   A    
C42   N6    S    
C13   C53   A    
C65   H31   S    
C39   C43   A    
C68   H44   S    
C38   H4    S    
C25   N3    A    
C17   C27   A    
Cu2   O12   S    
C2    O2    A    
C18   C28   A    
C10   C14   A    
C70   H52   S    
C1    O5    A    
C9    N9    S    
Cu3   O13   S    
C47   C51   A    
C34   O12   A    
C49   H11   S    
C21   H1    S    
C60   C64   A    
C15   C55   A    
C16   C56   A    
C16   C33   S    
C23   H25   S    
N12   H57   S    
C43   N7    S    
C39   C59   A    
C41   C47   A    
C5    C61   A    
C55   C57   A    
C42   C48   A    
C52   H14   S    
C43   C45   A    
C7    C63   A    
C8    C64   A    
Cu1   N3    S    
C1    O1    A    
Cu1   O2    S    
C14   C54   A    
C20   C22   A    
C21   C23   A    
C5    C11   A    
C66   H34   S    
N8    C68   S    
C22   C24   A    
C47   H9    S    
C40   C44   A    
C67   H38   S    
C36   H28   S    
C72   H60   S    
Cu2   O4    S    
N7    H37   S    
C65   H32   S    
C69   H47   S    
C46   C50   A    
C19   C21   A    
C33   O11   A    
C59   C63   A    
Cu2   O11   S    
C67   H39   S    
C50   H12   S    
Cu2   N4    S    
C65   H30   S    
Cu3   O14   S    
C29   H15   S    
C32   O10   A    
C25   C27   A    
C68   H42   S    
C29   C35   A    
C26   C28   A    
C4    O8    A    
C30   C36   A    
C45   H7    S    
C34   O16   A    
C6    C62   A    
N9    C69   S    
Cu4   O7    S    
C3    O3    A    
C50   C54   A    
N9    H45   S    
C5    H21   S    
C49   C53   A    
C20   H20   S    
C17   C19   A    
C8    H24   S    
C7    H23   S    
C27   N1    A    
C51   C55   A    
C39   H5    S    
C12   N12   S    
C30   H16   S    
C11   N11   S    
C3    O7    A    
C48   C52   A    
C23   C25   A    
C2    O6    A    
C8    C10   A    
C71   H54   S    
C66   H35   S    
C28   N2    A    
Cu4   O16   S    
C41   N5    S    
N11   H53   S    
N5    H29   S    
C38   C58   A    
C22   H2    S    
C37   C57   A    
C52   C56   A    
Cu4   O8    S    
Cu2   O3    S    
N7    C67   S    
C35   N3    A    
