data_mof_unit_63265.cif
_audit_creation_date              2012-12-10T17:44:02-0500
_audit_creation_method            fapswitch 2.2
_symmetry_space_group_name_H-M    P1
_symmetry_Int_Tables_number       1
_space_group_crystal_system       triclinic
_cell_length_a                    36.994494
_cell_length_b                    30.356278
_cell_length_c                    21.45177
_cell_angle_alpha                 89.999971
_cell_angle_beta                  55.166526
_cell_angle_gamma                 90.0
_cell_volume                      19773.9926298

loop_
_atom_site_label
_atom_site_type_symbol
_atom_type_description
_atom_site_fract_x
_atom_site_fract_y
_atom_site_fract_z
_atom_type_partial_charge
C1    C     C_R   0.915022 0.500096 0.085933 0.946394
C2    C     C_R   0.084978 0.500096 0.914067 0.946394
C3    C     C_R   0.415069 0.000077 0.086070 0.949317
C4    C     C_R   0.584931 0.000077 0.913929 0.949316
C5    C     C_3   0.990776 0.458353 0.238113 0.437040
C6    C     C_3   0.009224 0.458353 0.761888 0.437042
C7    C     C_3   0.490403 0.958462 0.238535 0.419006
C8    C     C_3   0.509597 0.958462 0.761464 0.419007
C9    C     C_3   0.030133 0.470789 0.240978 0.558884
C10   C     C_3   0.969867 0.470790 0.759022 0.558884
C11   C     C_3   0.529900 0.970425 0.241238 0.541744
C12   C     C_3   0.470100 0.970425 0.758761 0.541742
C13   C     C_3   0.039069 0.511825 0.191994 0.439276
C14   C     C_3   0.960932 0.511826 0.808006 0.439273
C15   C     C_3   0.539345 0.011302 0.191675 0.449400
C16   C     C_3   0.460655 0.011302 0.808325 0.449402
C17   C     C_3   0.999373 0.499613 0.189315 -0.463297
C18   C     C_3   0.000627 0.499613 0.810685 -0.463297
C19   C     C_3   0.499475 0.999599 0.189219 -0.454667
C20   C     C_3   0.500525 0.999599 0.810780 -0.454667
C21   C     C_R   0.797092 0.503889 0.148877 0.517697
C22   C     C_R   0.202908 0.503889 0.851123 0.517694
C23   C     C_R   0.297211 0.002115 0.149465 0.513546
C24   C     C_R   0.702789 0.002115 0.850535 0.513546
C25   C     C_R   0.842959 0.507372 0.103331 0.295383
C26   C     C_R   0.157042 0.507371 0.896669 0.295386
C27   C     C_R   0.342958 0.006472 0.103882 0.294702
C28   C     C_R   0.657042 0.006472 0.896118 0.294702
C29   C     C_R   0.866795 0.500422 0.135116 -0.374115
C30   C     C_R   0.133205 0.500422 0.864884 -0.374115
C31   C     C_R   0.366928 0.000242 0.135481 -0.374643
C32   C     C_R   0.633072 0.000242 0.864519 -0.374642
C33   C     C_R   0.844307 0.496042 0.214323 0.265969
C34   C     C_R   0.155693 0.496042 0.785677 0.265967
C35   C     C_R   0.344656 0.995392 0.214503 0.264874
C36   C     C_R   0.655344 0.995392 0.785497 0.264875
C37   C     C_R   0.798137 0.499002 0.260949 0.373516
C38   C     C_R   0.201863 0.499002 0.739051 0.373515
C39   C     C_R   0.298467 0.997637 0.261415 0.370262
C40   C     C_R   0.701533 0.997637 0.738585 0.370261
C41   C     C_R   0.774230 0.499981 0.228015 -0.164861
C42   C     C_R   0.225770 0.499980 0.771984 -0.164859
C43   C     C_R   0.274365 0.998414 0.228748 -0.164251
C44   C     C_R   0.725635 0.998414 0.771251 -0.164250
C45   C     C_R   0.999763 0.499971 0.120645 0.965388
C46   C     C_R   0.000237 0.499971 0.879355 0.965389
C47   C     C_R   0.499807 0.999967 0.120604 0.964866
C48   C     C_R   0.500193 0.999967 0.879396 0.964866
C49   C     C_R   0.702152 0.467297 0.332857 0.632269
C50   C     C_R   0.297847 0.467297 0.667142 0.632268
C51   C     C_R   0.201877 0.967471 0.336657 0.628135
C52   C     C_R   0.798123 0.967471 0.663343 0.628137
C53   C     C_R   0.656178 0.467969 0.379231 0.435000
C54   C     C_R   0.343822 0.467969 0.620768 0.435000
C55   C     C_R   0.155917 0.968699 0.383044 0.441632
C56   C     C_R   0.844083 0.968699 0.616956 0.441633
C57   C     C_R   0.633059 0.500005 0.368060 -0.387877
C58   C     C_R   0.366941 0.500005 0.631940 -0.387877
C59   C     C_R   0.133066 0.998749 0.367814 -0.384498
C60   C     C_R   0.866934 0.998749 0.632186 -0.384497
C61   C     C_R   0.656213 0.531867 0.311159 0.562909
C62   C     C_R   0.343787 0.531867 0.688841 0.562911
C63   C     C_R   0.156511 0.027764 0.306288 0.530544
C64   C     C_R   0.843489 0.027764 0.693712 0.530543
C65   C     C_R   0.702114 0.531911 0.266263 -0.269403
C66   C     C_R   0.297886 0.531911 0.733737 -0.269403
C67   C     C_R   0.202329 0.028308 0.262862 -0.272330
C68   C     C_R   0.797671 0.028308 0.737138 -0.272331
C69   C     C_R   0.725500 0.499497 0.276220 -0.104707
C70   C     C_R   0.274500 0.499497 0.723780 -0.104706
C71   C     C_R   0.225558 0.997934 0.276915 -0.103309
C72   C     C_R   0.774442 0.997934 0.723085 -0.103309
C73   C     C_R   1.000000 0.366941 0.500000 -0.391135
C74   C     C_R   0.500000 0.866601 0.500000 -0.400305
C75   C     C_R   1.000000 0.274546 0.500000 -0.114969
C76   C     C_R   0.500000 0.774095 0.500000 -0.115482
C77   C     C_R   0.500000 0.274260 0.500000 -0.015828
C78   C     C_R   1.000000 0.774267 0.500000 -0.016398
C79   C     C_R   0.000000 0.585111 0.500000 0.946492
C80   C     C_R   0.500000 0.085108 0.500000 0.945135
C81   C     C_R   0.007146 0.343971 0.437314 0.437414
C82   C     C_R   0.992854 0.343971 0.562686 0.437414
C83   C     C_R   0.526642 0.843460 0.431578 0.444198
C84   C     C_R   0.473358 0.843460 0.568422 0.444199
C85   C     C_R   0.999771 0.498799 0.380087 0.986328
C86   C     C_R   0.000229 0.498799 0.619913 0.986328
C87   C     C_R   0.499790 0.998848 0.380066 0.966418
C88   C     C_R   0.500210 0.998848 0.619934 0.966419
C89   C     C_R   0.000000 0.415008 0.500000 1.007354
C90   C     C_R   0.500000 0.914891 0.500000 0.972917
C91   C     C_R   0.500000 0.633081 0.500000 -0.403000
C92   C     C_R   0.000000 0.133295 0.500000 -0.402480
C93   C     C_R   0.500000 0.584887 0.500000 0.960722
C94   C     C_R   0.000000 0.084965 0.500000 0.925340
C95   C     C_R   0.584917 0.500047 0.415394 0.957762
C96   C     C_R   0.415083 0.500047 0.584606 0.957763
C97   C     C_R   0.084918 0.999504 0.415347 0.928176
C98   C     C_R   0.915082 0.999504 0.584652 0.928177
C99   C     C_R   0.538841 0.656261 0.476473 0.284755
C100  C     C_R   0.461159 0.656261 0.523526 0.284756
C101  C     C_R   0.038278 0.156573 0.445510 0.271768
C102  C     C_R   0.961722 0.156573 0.554490 0.271768
C103  C     C_R   0.500000 0.414933 0.500000 0.895130
C104  C     C_R   0.000000 0.914933 0.500000 0.884796
C105  C     C_R   0.966562 0.703008 0.563891 0.514214
C106  C     C_R   0.033438 0.703008 0.436109 0.514214
C107  C     C_R   0.466680 0.202993 0.564033 0.514726
C108  C     C_R   0.533320 0.202993 0.435968 0.514726
C109  C     C_R   0.965459 0.656939 0.563319 0.240445
C110  C     C_R   0.034541 0.656940 0.436681 0.240446
C111  C     C_R   0.465575 0.156923 0.563472 0.241237
C112  C     C_R   0.534425 0.156923 0.436528 0.241237
C113  C     C_R   0.000000 0.633610 0.500000 -0.358709
C114  C     C_R   0.500000 0.133601 0.500000 -0.359807
C115  C     C_R   0.539059 0.702291 0.473614 0.526313
C116  C     C_R   0.460941 0.702291 0.526386 0.526314
C117  C     C_R   0.037756 0.202671 0.444412 0.521743
C118  C     C_R   0.962244 0.202671 0.555588 0.521742
C119  C     C_R   1.000000 0.725993 0.500000 -0.163059
C120  C     C_R   0.500000 0.225982 0.500000 -0.163698
C121  C     C_R   0.495562 0.297377 0.448103 0.637797
C122  C     C_R   0.504438 0.297378 0.551898 0.637798
C123  C     C_R   0.995707 0.797381 0.447936 0.637732
C124  C     C_R   0.004292 0.797381 0.552064 0.637733
C125  C     C_R   0.495639 0.343243 0.448081 -0.239154
C126  C     C_R   0.504361 0.343244 0.551919 -0.239155
C127  C     C_R   0.995781 0.843246 0.447918 -0.239181
C128  C     C_R   0.004218 0.843246 0.552082 -0.239181
C129  C     C_R   0.500000 0.366548 0.500000 -0.205422
C130  C     C_R   1.000000 0.866549 0.500000 -0.206908
C131  C     C_R   0.500000 0.725474 0.500000 -0.189225
C132  C     C_R   1.000000 0.225895 0.500000 -0.190246
C133  C     C_R   0.005286 0.297766 0.438317 0.379546
C134  C     C_R   0.994714 0.297766 0.561683 0.379547
C135  C     C_R   0.525047 0.797283 0.430794 0.372374
C136  C     C_R   0.474953 0.797283 0.569206 0.372373
C137  C     C_3   0.968248 0.526675 0.262232 0.224390
C138  C     C_3   0.031753 0.526675 0.737768 0.224390
C139  C     C_3   0.468693 0.027072 0.261804 0.227616
C140  C     C_3   0.531307 0.027072 0.738196 0.227615
C141  C     C_3   0.008045 0.539169 0.263881 0.185895
C142  C     C_3   0.991956 0.539169 0.736118 0.185896
C143  C     C_3   0.508707 0.039071 0.263165 0.189420
C144  C     C_3   0.491293 0.039071 0.736835 0.189420
C145  C     C_3   0.999211 0.498165 0.312819 -0.439769
C146  C     C_3   0.000789 0.498165 0.687181 -0.439770
C147  C     C_3   0.499326 0.998208 0.312705 -0.436981
C148  C     C_3   0.500674 0.998208 0.687295 -0.436981
C149  C     C_3   0.959645 0.485474 0.310522 0.428478
C150  C     C_3   0.040355 0.485473 0.689478 0.428476
C151  C     C_3   0.459603 0.985982 0.310603 0.426893
C152  C     C_3   0.540397 0.985983 0.689397 0.426892
Cu1   Cu    Cu3+1 0.000000 0.455950 0.000000 1.079622
Cu2   Cu    Cu3+1 0.500000 0.955950 0.000000 1.068866
Cu3   Cu    Cu3+1 0.000000 0.544060 0.000000 0.976242
Cu4   Cu    Cu3+1 0.500000 0.044060 0.000000 0.976106
Cu5   Cu    Cu3+1 0.044060 0.499960 0.455930 1.064093
Cu6   Cu    Cu3+1 0.955940 0.499960 0.544070 1.064093
Cu7   Cu    Cu3+1 0.544060 0.999960 0.455930 1.075821
Cu8   Cu    Cu3+1 0.455940 0.999960 0.544070 1.075821
Cu9   Cu    Cu3+1 0.500010 0.500000 0.562750 1.049464
Cu10  Cu    Cu3+1 0.499990 0.500000 0.437250 1.049465
Cu11  Cu    Cu3+1 0.000010 1.000000 0.562750 1.077298
Cu12  Cu    Cu3+1 0.999990 0.000000 0.437250 1.077298
H1    H     H_    0.719466 0.557529 0.224024 0.222426
H2    H     H_    0.280534 0.557529 0.775977 0.222426
H3    H     H_    0.219677 0.052563 0.218069 0.222933
H4    H     H_    0.780323 0.052563 0.781931 0.222934
H5    H     H_    0.492015 0.360437 0.407715 0.210380
H6    H     H_    0.507984 0.360437 0.592285 0.210380
H7    H     H_    0.992273 0.860438 0.407419 0.211824
H8    H     H_    0.007727 0.860438 0.592581 0.211824
O1    O     O_R   0.935730 0.462810 0.064280 -0.589167
O2    O     O_R   0.064270 0.462810 0.935720 -0.589168
O3    O     O_R   0.435730 0.962810 0.064280 -0.591188
O4    O     O_R   0.564270 0.962810 0.935720 -0.591188
O5    O     O_R   0.564280 0.500000 0.488710 -0.581537
O6    O     O_R   0.435720 0.500000 0.511290 -0.581536
O7    O     O_R   0.064280 1.000000 0.488710 -0.575142
O8    O     O_R   0.935720 0.000000 0.511290 -0.575142
O9    O     O_R   0.564280 0.499990 0.382710 -0.547321
O10   O     O_R   0.435720 0.499990 0.617290 -0.547321
O11   O     O_R   0.064280 0.999990 0.382710 -0.532142
O12   O     O_R   0.935720 0.999990 0.617290 -0.532143
O13   O     O_R   0.500000 0.435720 0.553010 -0.583835
O14   O     O_R   0.500000 0.435720 0.446990 -0.583835
O15   O     O_R   0.000000 0.935720 0.553010 -0.583722
O16   O     O_R   0.000000 0.935720 0.446990 -0.583722
O17   O     O_R   0.935740 0.537210 0.064260 -0.605338
O18   O     O_R   0.064260 0.537210 0.935740 -0.605338
O19   O     O_R   0.435740 0.037210 0.064260 -0.604516
O20   O     O_R   0.564260 0.037210 0.935740 -0.604518
O21   O     O_R   0.000010 0.462810 0.091570 -0.551005
O22   O     O_R   0.999990 0.462810 0.908430 -0.551005
O23   O     O_R   0.500010 0.962810 0.091570 -0.552337
O24   O     O_R   0.499990 0.962810 0.908430 -0.552338
O25   O     O_R   0.000020 0.537210 0.091550 -0.589086
O26   O     O_R   0.999980 0.537210 0.908450 -0.589088
O27   O     O_R   0.500020 0.037210 0.091550 -0.588806
O28   O     O_R   0.499980 0.037210 0.908450 -0.588806
O29   O     O_R   0.037200 0.564240 0.462790 -0.592713
O30   O     O_R   0.962800 0.564240 0.537210 -0.592712
O31   O     O_R   0.537200 0.064240 0.462790 -0.592920
O32   O     O_R   0.462800 0.064240 0.537210 -0.592918
O33   O     O_R   0.037200 0.499960 0.371220 -0.548265
O34   O     O_R   0.962800 0.499960 0.628780 -0.548266
O35   O     O_R   0.537200 0.999960 0.371220 -0.541824
O36   O     O_R   0.462800 0.999960 0.628780 -0.541825
O37   O     O_R   0.962800 0.499940 0.445620 -0.579774
O38   O     O_R   0.037200 0.499940 0.554380 -0.579775
O39   O     O_R   0.462800 0.999940 0.445620 -0.580739
O40   O     O_R   0.537200 0.999940 0.554380 -0.580739
O41   O     O_R   0.037210 0.435680 0.462780 -0.566491
O42   O     O_R   0.962790 0.435680 0.537220 -0.566490
O43   O     O_R   0.537210 0.935680 0.462780 -0.544555
O44   O     O_R   0.462790 0.935680 0.537220 -0.544555
O45   O     O_R   0.500030 0.564270 0.552970 -0.599120
O46   O     O_R   0.499970 0.564270 0.447030 -0.599120
O47   O     O_R   0.000030 0.064270 0.552970 -0.575018
O48   O     O_R   0.999970 0.064270 0.447030 -0.575018
O49   O     O_3   0.016476 0.580353 0.283622 -0.579412
C153  C     C_3   0.026515 0.611935 0.227711 0.074528
H9    H     H_    0.002735 0.610811 0.211624 0.163322
H10   H     H_    0.060328 0.606211 0.176273 0.187852
C154  C     C_3   0.024446 0.657674 0.259429 -0.308583
H11   H     H_    0.991883 0.662180 0.314351 0.230120
H12   H     H_    0.050448 0.660508 0.270027 0.284207
C155  C     C_3   0.030884 0.694073 0.204924 -0.840072
H13   H     H_    0.063688 0.691098 0.150239 0.247058
H14   H     H_    0.028815 0.726666 0.230284 0.307071
H15   H     H_    0.004859 0.692278 0.194258 0.247462
O50   O     O_3   0.983525 0.580354 0.716376 -0.579415
C156  C     C_3   0.973486 0.611935 0.772288 0.074536
H16   H     H_    0.997263 0.610809 0.788381 0.163319
H17   H     H_    0.939671 0.606212 0.823723 0.187856
C157  C     C_3   0.975559 0.657675 0.740567 -0.308593
H18   H     H_    0.008124 0.662180 0.685649 0.230110
H19   H     H_    0.949560 0.660509 0.729960 0.284213
C158  C     C_3   0.969117 0.694073 0.795076 -0.840067
H20   H     H_    0.936310 0.691099 0.849755 0.247062
H21   H     H_    0.971191 0.726666 0.769713 0.307069
H22   H     H_    0.995138 0.692276 0.805753 0.247459
O51   O     O_3   0.517910 0.080134 0.282038 -0.578120
C159  C     C_3   0.527671 0.111655 0.226194 0.069081
H23   H     H_    0.502782 0.111433 0.212589 0.164014
H24   H     H_    0.560762 0.105056 0.173504 0.185797
C160  C     C_3   0.527817 0.157283 0.256203 -0.300845
H25   H     H_    0.496252 0.162488 0.312535 0.234299
H26   H     H_    0.555184 0.159295 0.263502 0.281668
C161  C     C_3   0.533382 0.193731 0.202407 -0.846406
H27   H     H_    0.565060 0.189844 0.146027 0.245251
H28   H     H_    0.533327 0.226244 0.226186 0.306675
H29   H     H_    0.505826 0.192949 0.195509 0.248416
O52   O     O_3   0.482090 0.080134 0.717962 -0.578118
C162  C     C_3   0.472329 0.111655 0.773805 0.069074
H30   H     H_    0.497219 0.111435 0.787407 0.164016
H31   H     H_    0.439239 0.105055 0.826497 0.185795
C163  C     C_3   0.472180 0.157282 0.743799 -0.300839
H32   H     H_    0.503743 0.162488 0.687465 0.234306
H33   H     H_    0.444811 0.159293 0.736505 0.281664
C164  C     C_3   0.466617 0.193731 0.797593 -0.846407
H34   H     H_    0.434940 0.189843 0.853976 0.245249
H35   H     H_    0.466668 0.226244 0.773816 0.306676
H36   H     H_    0.494175 0.192950 0.804484 0.248418
O53   O     O_3   0.776615 0.500923 0.338876 -0.551791
C165  C     C_3   0.768177 0.545588 0.361205 0.062399
H37   H     H_    0.746665 0.560856 0.346280 0.131772
H38   H     H_    0.799552 0.564495 0.333107 0.149331
C166  C     C_3   0.744618 0.548500 0.447108 -0.307616
H39   H     H_    0.713410 0.529410 0.475625 0.239443
H40   H     H_    0.765805 0.533936 0.463119 0.229530
C167  C     C_3   0.734109 0.596227 0.474158 -0.935991
H41   H     H_    0.764865 0.615897 0.447033 0.266305
H42   H     H_    0.716997 0.597416 0.536721 0.268509
H43   H     H_    0.712363 0.611044 0.459633 0.267340
O54   O     O_3   0.223385 0.500924 0.661124 -0.551791
C168  C     C_3   0.231822 0.545589 0.638796 0.062399
H44   H     H_    0.253334 0.560858 0.653722 0.131772
H45   H     H_    0.200448 0.564496 0.666893 0.149332
C169  C     C_3   0.255383 0.548502 0.552893 -0.307615
H46   H     H_    0.286590 0.529412 0.524377 0.239444
H47   H     H_    0.234196 0.533938 0.536881 0.229530
C170  C     C_3   0.265892 0.596229 0.525844 -0.935993
H48   H     H_    0.235136 0.615899 0.552969 0.266305
H49   H     H_    0.283004 0.597418 0.463280 0.268509
H50   H     H_    0.287638 0.611045 0.540370 0.267340
O55   O     O_3   0.277224 0.997862 0.339302 -0.546900
C171  C     C_3   0.268804 0.041920 0.364764 0.062568
H51   H     H_    0.245147 0.057304 0.355010 0.128417
H52   H     H_    0.299780 0.061601 0.334739 0.146239
C172  C     C_3   0.248781 0.042446 0.449772 -0.300681
H53   H     H_    0.218286 0.022179 0.480195 0.246968
H54   H     H_    0.272559 0.027762 0.459815 0.226993
C173  C     C_3   0.237545 0.089188 0.481605 -0.926821
H55   H     H_    0.267138 0.110631 0.450232 0.263228
H56   H     H_    0.225293 0.088575 0.542429 0.268341
H57   H     H_    0.211421 0.103203 0.477154 0.267558
O56   O     O_3   0.722776 0.997862 0.660698 -0.546901
C174  C     C_3   0.731196 0.041920 0.635236 0.062568
H58   H     H_    0.754852 0.057305 0.644990 0.128418
H59   H     H_    0.700220 0.061601 0.665261 0.146239
C175  C     C_3   0.751219 0.042446 0.550228 -0.300681
H60   H     H_    0.781714 0.022179 0.519805 0.246968
H61   H     H_    0.727441 0.027761 0.540185 0.226992
C176  C     C_3   0.762455 0.089188 0.518395 -0.926821
H62   H     H_    0.732862 0.110631 0.549768 0.263229
H63   H     H_    0.774707 0.088575 0.457571 0.268342
H64   H     H_    0.788579 0.103203 0.522846 0.267557
F1    F     F_    0.723808 0.434685 0.342143 -0.589690
F2    F     F_    0.276192 0.434685 0.657855 -0.589690
F3    F     F_    0.223069 0.935784 0.348879 -0.586700
F4    F     F_    0.776931 0.935784 0.651122 -0.586701
F5    F     F_    0.634164 0.436529 0.433433 -0.598455
F6    F     F_    0.365836 0.436529 0.566566 -0.598455
F7    F     F_    0.133660 0.939327 0.440851 -0.595723
F8    F     F_    0.866340 0.939327 0.559149 -0.595723
F9    F     F_    0.634389 0.563598 0.300472 -0.601457
F10   F     F_    0.365611 0.563597 0.699529 -0.601458
F11   F     F_    0.135033 0.056169 0.289187 -0.611430
F12   F     F_    0.864967 0.056169 0.710812 -0.611430
F13   F     F_    0.015289 0.366430 0.375715 -0.587114
F14   F     F_    0.984711 0.366430 0.624285 -0.587115
F15   F     F_    0.553147 0.865690 0.365273 -0.578915
F16   F     F_    0.446853 0.865689 0.634727 -0.578915
F17   F     F_    0.577141 0.724451 0.446994 -0.613601
F18   F     F_    0.422859 0.724451 0.553006 -0.613602
F19   F     F_    0.074701 0.224758 0.390791 -0.611506
F20   F     F_    0.925299 0.224758 0.609209 -0.611506
O57   O     O_3   0.577585 0.634071 0.451254 -0.528544
C177  C     C_3   0.579093 0.622653 0.513813 0.102749
H65   H     H_    0.589792 0.587719 0.506451 0.168412
H66   H     H_    0.546697 0.624898 0.570328 0.124650
C178  C     C_3   0.612814 0.651379 0.514541 -0.309493
H67   H     H_    0.645272 0.648666 0.458912 0.244087
H68   H     H_    0.602066 0.686328 0.523740 0.260705
C179  C     C_3   0.617737 0.637363 0.577660 -0.947573
H69   H     H_    0.585819 0.640721 0.633945 0.265197
H70   H     H_    0.642456 0.658670 0.576671 0.273337
H71   H     H_    0.628975 0.602596 0.569466 0.268103
O58   O     O_3   0.422415 0.634071 0.548746 -0.528546
C180  C     C_3   0.420907 0.622653 0.486186 0.102747
H72   H     H_    0.410207 0.587720 0.493549 0.168413
H73   H     H_    0.453304 0.624897 0.429672 0.124651
C181  C     C_3   0.387186 0.651380 0.485457 -0.309494
H74   H     H_    0.354729 0.648667 0.541086 0.244088
H75   H     H_    0.397935 0.686329 0.476258 0.260705
C182  C     C_3   0.382264 0.637364 0.422338 -0.947573
H76   H     H_    0.414182 0.640721 0.366053 0.265197
H77   H     H_    0.357546 0.658671 0.423327 0.273337
H78   H     H_    0.371026 0.602597 0.430532 0.268103
O59   O     O_3   0.076647 0.134449 0.393112 -0.514875
C183  C     C_3   0.102275 0.128944 0.422541 0.152457
H79   H     H_    0.103068 0.093279 0.433204 0.143316
H80   H     H_    0.089376 0.146446 0.477408 0.090613
C184  C     C_3   0.149138 0.145172 0.364063 -0.239125
H81   H     H_    0.162350 0.129467 0.308208 0.268077
H82   H     H_    0.148711 0.181401 0.357131 0.256807
C185  C     C_3   0.179454 0.134418 0.388729 -0.997090
H83   H     H_    0.168118 0.151678 0.442636 0.265342
H84   H     H_    0.213515 0.145271 0.344300 0.269157
H85   H     H_    0.179684 0.098350 0.397069 0.251157
O60   O     O_3   0.923353 0.134449 0.606888 -0.514874
C186  C     C_3   0.897725 0.128944 0.577459 0.152455
H86   H     H_    0.896932 0.093279 0.566796 0.143317
H87   H     H_    0.910624 0.146446 0.522591 0.090613
C187  C     C_3   0.850862 0.145172 0.635937 -0.239125
H88   H     H_    0.837650 0.129467 0.691791 0.268076
H89   H     H_    0.851289 0.181401 0.642868 0.256807
C188  C     C_3   0.820546 0.134418 0.611270 -0.997090
H90   H     H_    0.831882 0.151678 0.557363 0.265343
H91   H     H_    0.786485 0.145271 0.655699 0.269157
H92   H     H_    0.820316 0.098350 0.602931 0.251157
F21   F     F_    0.934734 0.725374 0.626555 -0.621904
F22   F     F_    0.065266 0.725374 0.373445 -0.621905
F23   F     F_    0.434969 0.225354 0.626827 -0.622071
F24   F     F_    0.565030 0.225354 0.373174 -0.622069
O61   O     O_3   0.932769 0.634560 0.627403 -0.557340
C189  C     C_3   0.893538 0.635716 0.630631 0.128028
H93   H     H_    0.899532 0.625266 0.575546 0.126023
H94   H     H_    0.879286 0.669484 0.644785 0.193285
C190  C     C_3   0.860227 0.604130 0.692604 -0.304505
H95   H     H_    0.874312 0.570330 0.679746 0.243300
H96   H     H_    0.853343 0.614481 0.748136 0.238569
C191  C     C_3   0.817191 0.603424 0.698275 -0.897991
H97   H     H_    0.802166 0.636783 0.712207 0.268027
H98   H     H_    0.793725 0.580299 0.743857 0.274811
H99   H     H_    0.823204 0.592240 0.643787 0.253876
O62   O     O_3   0.067231 0.634560 0.372597 -0.557340
C192  C     C_3   0.106462 0.635716 0.369369 0.128025
H100  H     H_    0.100467 0.625265 0.424454 0.126025
H101  H     H_    0.120713 0.669484 0.355216 0.193284
C193  C     C_3   0.139773 0.604131 0.307396 -0.304503
H102  H     H_    0.125688 0.570331 0.320252 0.243301
H103  H     H_    0.146658 0.614483 0.251863 0.238567
C194  C     C_3   0.182809 0.603424 0.301725 -0.897988
H104  H     H_    0.197834 0.636783 0.287795 0.268025
H105  H     H_    0.206275 0.580300 0.256142 0.274810
H106  H     H_    0.176795 0.592239 0.356213 0.253875
O63   O     O_3   0.433029 0.134529 0.627682 -0.557745
C195  C     C_3   0.393643 0.135679 0.631408 0.125458
H107  H     H_    0.399429 0.125279 0.576458 0.126222
H108  H     H_    0.379363 0.169434 0.645781 0.193813
C196  C     C_3   0.360494 0.104036 0.693463 -0.305105
H109  H     H_    0.374619 0.070250 0.680391 0.244794
H110  H     H_    0.353813 0.114342 0.748872 0.238362
C197  C     C_3   0.317299 0.103310 0.699666 -0.891449
H111  H     H_    0.302237 0.136654 0.713815 0.268112
H112  H     H_    0.293956 0.080146 0.745301 0.276435
H113  H     H_    0.323110 0.092166 0.645310 0.254115
O64   O     O_3   0.566971 0.134529 0.372319 -0.557744
C198  C     C_3   0.606356 0.135679 0.368593 0.125459
H114  H     H_    0.600571 0.125278 0.423543 0.126222
H115  H     H_    0.620637 0.169434 0.354222 0.193811
C199  C     C_3   0.639506 0.104037 0.306537 -0.305104
H116  H     H_    0.625381 0.070251 0.319607 0.244794
H117  H     H_    0.646187 0.114344 0.251128 0.238363
C200  C     C_3   0.682701 0.103311 0.300335 -0.891450
H118  H     H_    0.697763 0.136655 0.286189 0.268112
H119  H     H_    0.706044 0.080147 0.254699 0.276435
H120  H     H_    0.676890 0.092165 0.354691 0.254115
O65   O     O_3   0.935262 0.555296 0.272168 -0.565829
C201  C     C_3   0.914859 0.577845 0.342412 0.150473
H121  H     H_    0.922251 0.613541 0.330464 0.135919
H122  H     H_    0.926362 0.567513 0.378335 0.164212
C202  C     C_3   0.865060 0.571275 0.388188 -0.291436
H123  H     H_    0.852353 0.586251 0.357058 0.215281
H124  H     H_    0.857452 0.535479 0.395087 0.265676
C203  C     C_3   0.842118 0.592472 0.466589 -0.943748
H125  H     H_    0.854506 0.578003 0.498606 0.263655
H126  H     H_    0.806140 0.586475 0.499307 0.270081
H127  H     H_    0.848042 0.628580 0.461079 0.262501
O66   O     O_3   0.064739 0.555295 0.727830 -0.565827
C204  C     C_3   0.085142 0.577845 0.657587 0.150480
H128  H     H_    0.077746 0.613540 0.669536 0.135918
H129  H     H_    0.073641 0.567510 0.621662 0.164214
C205  C     C_3   0.134941 0.571279 0.611813 -0.291442
H130  H     H_    0.147645 0.586257 0.642946 0.215281
H131  H     H_    0.142551 0.535483 0.604915 0.265669
C206  C     C_3   0.157882 0.592476 0.533413 -0.943750
H132  H     H_    0.145496 0.578005 0.501394 0.263653
H133  H     H_    0.193861 0.586481 0.500696 0.270081
H134  H     H_    0.151955 0.628583 0.538924 0.262502
O67   O     O_3   0.436130 0.056182 0.271290 -0.567463
C207  C     C_3   0.415901 0.078942 0.341332 0.143694
H135  H     H_    0.420885 0.114836 0.329144 0.136338
H136  H     H_    0.429643 0.071011 0.374762 0.163723
C208  C     C_3   0.366533 0.069342 0.390505 -0.290438
H137  H     H_    0.351422 0.082734 0.362261 0.213787
H138  H     H_    0.361029 0.033188 0.396971 0.271306
C209  C     C_3   0.344361 0.090104 0.469096 -0.940925
H139  H     H_    0.359305 0.077345 0.498068 0.264244
H140  H     H_    0.308816 0.081717 0.504415 0.270884
H141  H     H_    0.347888 0.126511 0.464236 0.261252
O68   O     O_3   0.563869 0.056183 0.728710 -0.567464
C210  C     C_3   0.584099 0.078942 0.658668 0.143694
H142  H     H_    0.579116 0.114836 0.670855 0.136337
H143  H     H_    0.570357 0.071012 0.625238 0.163722
C211  C     C_3   0.633467 0.069342 0.609495 -0.290438
H144  H     H_    0.648578 0.082733 0.637738 0.213787
H145  H     H_    0.638971 0.033188 0.603029 0.271307
C212  C     C_3   0.655639 0.090103 0.530903 -0.940924
H146  H     H_    0.640695 0.077345 0.501931 0.264243
H147  H     H_    0.691184 0.081716 0.495584 0.270884
H148  H     H_    0.652112 0.126510 0.535762 0.261252
O69   O     O_3   0.011920 0.274923 0.376640 -0.517206
C213  C     C_3   0.974154 0.278021 0.375298 0.166736
H149  H     H_    0.985144 0.272776 0.315637 0.200903
H150  H     H_    0.958231 0.311111 0.392146 0.168069
C214  C     C_3   0.940508 0.242239 0.425125 -0.454796
H151  H     H_    0.957102 0.209609 0.410301 0.234617
H152  H     H_    0.926342 0.249262 0.485728 0.248469
C215  C     C_3   0.903016 0.240540 0.414793 -0.847148
H153  H     H_    0.885695 0.272751 0.430025 0.265126
H154  H     H_    0.879058 0.214722 0.452352 0.256561
H155  H     H_    0.915941 0.232402 0.355010 0.265033
O70   O     O_3   0.988080 0.274923 0.623359 -0.517206
C216  C     C_3   0.025846 0.278021 0.624702 0.166736
H156  H     H_    0.014856 0.272776 0.684362 0.200903
H157  H     H_    0.041769 0.311111 0.607853 0.168069
C217  C     C_3   0.059492 0.242238 0.574875 -0.454797
H158  H     H_    0.042898 0.209609 0.589699 0.234618
H159  H     H_    0.073658 0.249262 0.514272 0.248469
C218  C     C_3   0.096984 0.240540 0.585207 -0.847151
H160  H     H_    0.114305 0.272750 0.569975 0.265126
H161  H     H_    0.120942 0.214722 0.547648 0.256561
H162  H     H_    0.084059 0.232402 0.644989 0.265035
O71   O     O_3   0.550309 0.774372 0.362957 -0.520381
C219  C     C_3   0.531538 0.777862 0.321166 0.167258
H163  H     H_    0.558165 0.771282 0.260667 0.198834
H164  H     H_    0.518845 0.811486 0.322999 0.182197
C220  C     C_3   0.494998 0.743588 0.347818 -0.461175
H165  H     H_    0.507394 0.710391 0.348700 0.236966
H166  H     H_    0.466551 0.751864 0.406147 0.245910
C221  C     C_3   0.479181 0.742568 0.295926 -0.829577
H167  H     H_    0.466318 0.775393 0.294706 0.274674
H168  H     H_    0.452333 0.717980 0.317518 0.257929
H169  H     H_    0.506599 0.733133 0.237352 0.265791
O72   O     O_3   0.449691 0.774371 0.637042 -0.520381
C222  C     C_3   0.468462 0.777862 0.678834 0.167258
H170  H     H_    0.441835 0.771281 0.739332 0.198834
H171  H     H_    0.481155 0.811486 0.677001 0.182197
C223  C     C_3   0.505002 0.743588 0.652182 -0.461175
H172  H     H_    0.492606 0.710390 0.651300 0.236967
H173  H     H_    0.533449 0.751864 0.593853 0.245911
C224  C     C_3   0.520819 0.742568 0.704074 -0.829576
H174  H     H_    0.533682 0.775392 0.705293 0.274674
H175  H     H_    0.547667 0.717980 0.682482 0.257928
H176  H     H_    0.493401 0.733133 0.762648 0.265791
F25   F     F_    0.490540 0.275518 0.398276 -0.630674
F26   F     F_    0.509460 0.275518 0.601725 -0.630675
F27   F     F_    0.990833 0.775519 0.397939 -0.630516
F28   F     F_    0.009167 0.775519 0.602061 -0.630517
F29   F     F_    0.919064 0.471600 0.372115 -0.638685
F30   F     F_    0.080935 0.471599 0.627886 -0.638683
F31   F     F_    0.418981 0.972392 0.372403 -0.642817
F32   F     F_    0.581019 0.972393 0.627597 -0.642817
F33   F     F_    0.982392 0.416372 0.224372 -0.601847
F34   F     F_    0.017607 0.416372 0.775630 -0.601845
F35   F     F_    0.481652 0.916541 0.225221 -0.618936
F36   F     F_    0.518348 0.916541 0.774778 -0.618936
F37   F     F_    0.061781 0.441781 0.231286 -0.525709
F38   F     F_    0.938217 0.441782 0.768714 -0.525710
F39   F     F_    0.561175 0.941026 0.231953 -0.535847
F40   F     F_    0.438825 0.941025 0.768046 -0.535846
F41   F     F_    0.080439 0.524158 0.131703 -0.625549
F42   F     F_    0.919562 0.524159 0.868297 -0.625550
F43   F     F_    0.580880 0.023049 0.131183 -0.624733
F44   F     F_    0.419120 0.023048 0.868817 -0.624732
F45   F     F_    0.774918 0.505113 0.115764 -0.617386
F46   F     F_    0.225082 0.505112 0.884236 -0.617386
F47   F     F_    0.275213 0.001942 0.116007 -0.616057
F48   F     F_    0.724787 0.001942 0.883993 -0.616057
O73   O     O_3   0.864345 0.519094 0.027906 -0.502066
C225  C     C_3   0.868927 0.565675 0.021444 0.160905
H177  H     H_    0.903602 0.573394 0.974945 0.189058
H178  H     H_    0.862704 0.582687 0.073021 0.078346
C226  C     C_3   0.838465 0.585030 0.001600 -0.272674
H179  H     H_    0.845305 0.569217 0.949167 0.286752
H180  H     H_    0.803634 0.578467 0.048527 0.253274
C227  C     C_3   0.844756 0.634689 0.989279 -0.927543
H181  H     H_    0.836394 0.651341 0.042081 0.265097
H182  H     H_    0.822842 0.647594 0.973674 0.282077
H183  H     H_    0.879352 0.642340 0.942720 0.248117
O74   O     O_3   0.135655 0.519093 0.972094 -0.502066
C228  C     C_3   0.131074 0.565675 0.978556 0.160904
H184  H     H_    0.096398 0.573393 0.025056 0.189056
H185  H     H_    0.137296 0.582686 0.926979 0.078345
C229  C     C_3   0.161536 0.585028 0.998401 -0.272673
H186  H     H_    0.154696 0.569215 0.050833 0.286753
H187  H     H_    0.196367 0.578465 0.951473 0.253274
C230  C     C_3   0.155246 0.634687 0.010722 -0.927544
H188  H     H_    0.163608 0.651340 0.957920 0.265097
H189  H     H_    0.177160 0.647592 0.026327 0.282077
H190  H     H_    0.120649 0.642339 0.057281 0.248117
O75   O     O_3   0.364118 0.018049 0.028441 -0.501912
C231  C     C_3   0.367740 0.064687 0.021948 0.159480
H191  H     H_    0.402161 0.072980 0.975048 0.188461
H192  H     H_    0.361527 0.082004 0.073285 0.076038
C232  C     C_3   0.336523 0.082918 0.002927 -0.269776
H193  H     H_    0.343193 0.066604 0.950961 0.288178
H194  H     H_    0.301920 0.075986 0.050471 0.250188
C233  C     C_3   0.341956 0.132579 0.990008 -0.931950
H195  H     H_    0.334087 0.149678 0.042166 0.261942
H196  H     H_    0.319229 0.144678 0.975639 0.282705
H197  H     H_    0.376204 0.140582 0.942388 0.249770
O76   O     O_3   0.635882 0.018049 0.971559 -0.501912
C234  C     C_3   0.632260 0.064688 0.978052 0.159481
H198  H     H_    0.597839 0.072980 0.024951 0.188461
H199  H     H_    0.638472 0.082004 0.926715 0.076038
C235  C     C_3   0.663477 0.082919 0.997072 -0.269777
H200  H     H_    0.656806 0.066606 0.049039 0.288177
H201  H     H_    0.698080 0.075986 0.949529 0.250188
C236  C     C_3   0.658044 0.132580 0.009991 -0.931950
H202  H     H_    0.665913 0.149679 0.957832 0.261942
H203  H     H_    0.680770 0.144679 0.024360 0.282705
H204  H     H_    0.623795 0.140583 0.057609 0.249770
O77   O     O_3   0.867380 0.494853 0.247166 -0.585093
C237  C     C_3   0.878675 0.450837 0.250781 0.122782
H205  H     H_    0.912335 0.451351 0.237570 0.210007
H206  H     H_    0.879986 0.428297 0.208342 0.133960
C238  C     C_3   0.846942 0.432370 0.330941 -0.299143
H207  H     H_    0.844034 0.455921 0.373245 0.261443
H208  H     H_    0.813862 0.427946 0.342373 0.263864
C239  C     C_3   0.862784 0.388011 0.340192 -0.788985
H209  H     H_    0.865725 0.363839 0.298642 0.251235
H210  H     H_    0.838754 0.375227 0.398426 0.254929
H211  H     H_    0.895242 0.391676 0.331504 0.315752
O78   O     O_3   0.132620 0.494853 0.752834 -0.585091
C240  C     C_3   0.121325 0.450838 0.749219 0.122784
H212  H     H_    0.087665 0.451352 0.762430 0.210006
H213  H     H_    0.120013 0.428297 0.791658 0.133959
C241  C     C_3   0.153057 0.432371 0.669058 -0.299143
H214  H     H_    0.155965 0.455922 0.626754 0.261445
H215  H     H_    0.186138 0.427947 0.657626 0.263863
C242  C     C_3   0.137216 0.388012 0.659808 -0.788982
H216  H     H_    0.134276 0.363840 0.701357 0.251234
H217  H     H_    0.161246 0.375228 0.601573 0.254929
H218  H     H_    0.104757 0.391677 0.668497 0.315752
O79   O     O_3   0.367895 0.994068 0.247038 -0.585516
C243  C     C_3   0.379290 0.950022 0.250223 0.122283
H219  H     H_    0.413015 0.950559 0.236668 0.212527
H220  H     H_    0.380497 0.927596 0.207758 0.132184
C244  C     C_3   0.347781 0.931342 0.330306 -0.302312
H221  H     H_    0.344505 0.955020 0.372765 0.261529
H222  H     H_    0.314796 0.926325 0.341638 0.265466
C245  C     C_3   0.364171 0.887304 0.339413 -0.779946
H223  H     H_    0.367699 0.863080 0.297449 0.248497
H224  H     H_    0.340151 0.874246 0.397444 0.259459
H225  H     H_    0.396428 0.891540 0.331271 0.315818
O80   O     O_3   0.632105 0.994068 0.752962 -0.585517
C246  C     C_3   0.620710 0.950022 0.749776 0.122284
H226  H     H_    0.586985 0.950559 0.763332 0.212527
H227  H     H_    0.619503 0.927596 0.792242 0.132184
C247  C     C_3   0.652219 0.931342 0.669694 -0.302312
H228  H     H_    0.655495 0.955020 0.627235 0.261529
H229  H     H_    0.685204 0.926325 0.658362 0.265466
C248  C     C_3   0.635829 0.887305 0.660587 -0.779946
H230  H     H_    0.632301 0.863080 0.702551 0.248497
H231  H     H_    0.659849 0.874246 0.602556 0.259459
H232  H     H_    0.603573 0.891540 0.668729 0.315819

loop_
_geom_bond_atom_site_label_1
_geom_bond_atom_site_label_2
_ccdc_geom_bond_type
C201  H122  S    
C234  H198  S    
C162  H31   S    
Cu5   Cu6   S    
Cu9   O45   S    
C198  H115  S    
C202  H123  S    
C108  C120  A    
C172  H53   S    
C74   C83   A    
O79   C243  S    
C217  H158  S    
C90   O44   A    
C33   O77   S    
C6    F34   S    
C214  H151  S    
C99   O57   S    
C226  C227  S    
C84   F16   S    
C47   O23   A    
C16   C144  S    
C13   F41   S    
C179  H71   S    
C76   C131  S    
C240  C241  S    
C81   F13   S    
C246  H226  S    
Cu1   O1    S    
C228  C229  S    
C5    C149  S    
C159  H23   S    
C185  H85   S    
Cu9   O10   S    
C117  C132  A    
C142  C146  S    
C77   C122  A    
Cu3   O17   S    
C199  C200  S    
C146  C150  S    
C11   C15   S    
C185  H83   S    
C95   O5    A    
Cu1   O22   S    
C12   C16   S    
C167  H41   S    
C222  H171  S    
C169  C170  S    
C46   O22   A    
C91   C100  A    
C125  H5    S    
C140  C152  S    
C141  C145  S    
C188  H92   S    
C235  C236  S    
C49   C69   A    
C150  F30   S    
C199  H117  S    
C220  H166  S    
C51   C71   A    
C88   O36   A    
C134  O70   S    
C73   C81   A    
C155  H13   S    
C231  H192  S    
C97   O11   A    
C230  H190  S    
C175  H61   S    
C25   C29   A    
C223  H173  S    
C59   C97   S    
C177  H65   S    
C27   C31   A    
C171  C172  S    
C86   O38   A    
C28   C32   A    
Cu5   O33   S    
O58   C180  S    
C193  H103  S    
C62   C66   A    
C239  H209  S    
C245  H225  S    
C39   O55   S    
C178  H67   S    
C85   O37   A    
C82   C134  A    
C236  H204  S    
C208  H138  S    
C6    C10   S    
C52   C72   A    
O52   C162  S    
C244  H222  S    
C142  O50   S    
C184  H81   S    
C68   C72   A    
C204  C205  S    
C183  H79   S    
C1    C29   S    
C233  H195  S    
C88   C148  S    
C169  H46   S    
C3    C31   S    
C4    C32   S    
Cu3   O26   S    
C87   C147  S    
C195  H108  S    
O66   C204  S    
C246  H227  S    
C143  C147  S    
C161  H28   S    
C7    C19   S    
C166  H40   S    
C192  H100  S    
C202  C203  S    
C197  H112  S    
C82   F14   S    
O56   C174  S    
C98   O8    A    
C217  C218  S    
C107  C120  A    
C244  H221  S    
C205  H130  S    
C41   C69   S    
C160  C161  S    
C67   H3    S    
C43   C71   S    
C196  H110  S    
C23   F47   S    
C2    O18   A    
C179  H69   S    
Cu12  O16   S    
C191  H98   S    
C57   C61   A    
C248  H230  S    
C59   C63   A    
C159  C160  S    
Cu2   O4    S    
C60   C64   A    
O74   C228  S    
C74   C90   S    
C229  H187  S    
C50   C70   A    
C216  H157  S    
C135  O71   S    
C5    F33   S    
C105  F21   S    
C66   C70   A    
C167  H43   S    
C139  O67   S    
C107  F23   S    
C219  H163  S    
C44   C72   S    
C51   C55   A    
C238  H207  S    
C46   O26   A    
C22   C26   A    
C125  C129  A    
C242  H218  S    
C243  H219  S    
C19   C139  S    
C213  H149  S    
C88   O40   A    
C234  C235  S    
C210  H143  S    
C225  H177  S    
C17   C137  S    
C189  H93   S    
C235  H201  S    
C153  H9    S    
C155  H15   S    
C56   F8    S    
C141  O49   S    
C89   O42   A    
Cu11  O47   S    
C160  H26   S    
C237  H206  S    
C14   C142  S    
O65   C201  S    
C29   C33   A    
C55   C59   A    
C163  H33   S    
O59   C183  S    
C103  O13   A    
C154  C155  S    
C112  C114  A    
C75   C134  A    
C23   C43   A    
C212  H146  S    
C61   F9    S    
C1    O1    A    
C247  C248  S    
C64   C68   A    
C172  H54   S    
C17   C45   S    
C206  H133  S    
C138  O66   S    
C164  H34   S    
C19   C47   S    
C80   O31   A    
C182  H77   S    
O60   C186  S    
C45   O25   A    
O63   C195  S    
C183  C184  S    
C42   C70   S    
C157  H18   S    
C93   O45   A    
C24   F48   S    
C94   O47   A    
C9    C13   S    
C10   F38   S    
C139  C143  S    
C218  H160  S    
O62   C192  S    
C176  H63   S    
C225  C226  S    
C122  F26   S    
C190  C191  S    
O77   C237  S    
O68   C210  S    
C156  H16   S    
C205  C206  S    
C136  O72   S    
Cu6   O37   S    
C214  H152  S    
C168  H44   S    
C170  H50   S    
C47   O27   A    
C239  H211  S    
C200  H119  S    
C76   C135  A    
C102  O60   S    
C232  C233  S    
C180  H73   S    
C104  O16   A    
C248  H232  S    
C221  H168  S    
C224  H175  S    
Cu7   O43   S    
C211  H144  S    
C30   C34   A    
C215  H153  S    
Cu10  O9    S    
C10   C14   S    
C28   O76   S    
C95   O9    A    
C153  C154  S    
C79   O29   A    
C144  O52   S    
C219  C220  S    
C209  H141  S    
C52   F4    S    
C21   F45   S    
C207  H135  S    
C171  H52   S    
C238  C239  S    
C147  C151  S    
C121  C125  A    
O49   C153  S    
C126  H6    S    
C61   C65   A    
Cu8   O36   S    
C174  H59   S    
C123  C127  A    
C242  H216  S    
C243  C244  S    
C8    C12   S    
C101  O59   S    
C158  H21   S    
C124  F28   S    
C185  H84   S    
C78   C123  A    
C187  C188  S    
O64   C198  S    
C165  H38   S    
C247  H228  S    
C10   C146  S    
C15   C143  S    
Cu2   O23   S    
C68   H4    S    
C25   O73   S    
C184  H82   S    
C190  H95   S    
C26   C30   A    
C79   C113  S    
Cu11  O7    S    
C201  H121  S    
C186  C187  S    
C143  O51   S    
C166  C167  S    
Cu4   O27   S    
Cu5   O29   S    
C116  F18   S    
C75   C132  S    
C190  H96   S    
C212  H148  S    
Cu8   O39   S    
C21   C25   A    
O76   C234  S    
C153  H10   S    
C107  C111  A    
C100  O58   S    
C148  C152  S    
C74   C84   A    
C195  H107  S    
C165  C166  S    
C217  H159  S    
C164  H36   S    
C36   O80   S    
C7    F35   S    
C92   C102  A    
C226  H180  S    
C157  C158  S    
C13   C17   S    
C2    C30   S    
C163  H32   S    
Cu12  O11   S    
C182  H78   S    
C140  O68   S    
C161  H29   S    
C15   F43   S    
C139  C151  S    
C154  H12   S    
C159  H24   S    
C37   C41   A    
C156  C157  S    
Cu10  O6    S    
C49   C53   A    
C77   C121  A    
Cu4   O19   S    
C27   O75   S    
C40   C44   A    
Cu1   O21   S    
O54   C168  S    
C201  C202  S    
C167  H42   S    
C168  C169  S    
C34   O78   S    
O71   C219  S    
C91   C99   A    
C166  H39   S    
C9    F37   S    
C188  H91   S    
C1    O17   A    
C58   C62   A    
C12   F40   S    
C26   O74   S    
C106  C119  A    
C4    O20   A    
C209  H140  S    
C158  H20   S    
C100  C116  A    
C215  H155  S    
C77   C120  S    
C155  H14   S    
Cu9   Cu10  S    
C230  H189  S    
C203  H125  S    
C15   C19   S    
C5    C9    S    
C50   C54   A    
C177  H66   S    
C48   O28   A    
C207  C208  S    
C63   F11   S    
C227  H181  S    
C64   F12   S    
C154  H11   S    
C241  C242  S    
C99   C115  A    
C173  H55   S    
C194  H106  S    
C80   C114  S    
C5    C17   S    
O51   C159  S    
Cu8   O44   S    
C65   H1    S    
C54   F6    S    
C236  H203  S    
C187  H88   S    
C90   O43   A    
Cu9   O13   S    
C221  H167  S    
C35   O79   S    
C196  H109  S    
C204  H129  S    
C177  C178  S    
C183  H80   S    
C233  H196  S    
C186  H86   S    
C13   C141  S    
Cu1   Cu3   S    
Cu2   Cu4   S    
Cu3   O25   S    
C203  H127  S    
C144  C148  S    
C124  C128  A    
C240  H213  S    
C162  C163  S    
C210  H142  S    
C104  C130  S    
O73   C225  S    
C247  H229  S    
C198  C199  S    
C202  H124  S    
C109  O61   S    
C87   O39   A    
C195  C196  S    
C18   C46   S    
O70   C216  S    
C205  H131  S    
C51   F3    S    
C178  H68   S    
C45   O21   A    
C233  H197  S    
C85   O33   A    
C208  H137  S    
Cu6   O34   S    
C24   C28   A    
C196  C197  S    
C173  H57   S    
C179  H70   S    
C138  C142  S    
C182  H76   S    
C53   C57   A    
C241  H214  S    
C235  H200  S    
Cu1   O2    S    
C33   C37   A    
Cu7   O40   S    
C56   C60   A    
C35   C39   A    
O75   C231  S    
C216  H156  S    
Cu3   O18   S    
C55   F7    S    
C91   C93   S    
C133  O69   S    
C108  F24   S    
O55   C171  S    
C117  F19   S    
C181  C182  S    
C79   O30   A    
C219  H164  S    
C37   O53   S    
C81   C133  A    
C103  C129  S    
C20   C48   S    
C92   C101  A    
C21   C41   A    
C3    O3    A    
C218  H161  S    
C18   C138  S    
C213  H150  S    
C234  H199  S    
C83   F15   S    
C199  H116  S    
C24   C44   A    
C220  C221  S    
C31   C35   A    
Cu6   O42   S    
C94   O48   A    
C189  H94   S    
C32   C36   A    
C73   C82   A    
C86   C146  S    
C231  H191  S    
C89   O41   A    
C137  C141  S    
C223  H172  S    
C84   C136  A    
C11   F39   S    
C8    C152  S    
Cu11  O12   S    
C227  H183  S    
C140  C144  S    
C96   O10   A    
C193  H102  S    
C128  C130  A    
Cu8   O32   S    
C194  H104  S    
C75   C133  A    
C213  C214  S    
C126  C129  A    
C111  O63   S    
C215  H154  S    
C101  C117  A    
C20   C140  S    
C189  C190  S    
C78   C119  S    
C161  H27   S    
C208  C209  S    
C73   C89   S    
C106  F22   S    
C244  C245  S    
C11   C147  S    
C92   C94   S    
C80   O32   A    
C105  C109  A    
C65   C69   A    
C85   C145  S    
C9    C145  S    
O50   C156  S    
C157  H19   S    
C111  C114  A    
C67   C71   A    
C152  F32   S    
C245  H223  S    
C237  C238  S    
C108  C112  A    
C246  C247  S    
Cu7   O31   S    
O80   C246  S    
C4    O4    A    
C60   C98   S    
C198  H114  S    
C192  H101  S    
C197  H111  S    
C105  C119  A    
C127  H7    S    
C145  C149  S    
C223  C224  S    
C170  H49   S    
C115  F17   S    
O57   C177  S    
C14   C18   S    
Cu11  Cu12  S    
C206  H132  S    
C38   O54   S    
C191  H97   S    
C86   O34   A    
C200  H118  S    
C76   C136  A    
C232  H194  S    
C115  C131  A    
C180  H72   S    
C138  C150  S    
C7    C11   S    
C248  H231  S    
C175  C176  S    
C149  F29   S    
C224  H174  S    
C8    C20   S    
C211  H145  S    
Cu2   O3    S    
C176  H62   S    
Cu11  O15   S    
C229  H186  S    
C169  H47   S    
Cu10  O46   S    
C38   C42   A    
C216  C217  S    
C97   O7    A    
C222  H170  S    
C207  H136  S    
Cu12  O8    S    
C40   O56   S    
C238  H208  S    
C218  H162  S    
C58   C96   S    
C228  H185  S    
Cu7   Cu8   S    
C211  C212  S    
C228  H184  S    
C210  C211  S    
C220  H165  S    
C14   F42   S    
C121  F25   S    
C23   C27   A    
C78   C124  A    
O53   C165  S    
C83   C135  A    
C102  C118  A    
C231  C232  S    
C16   C20   S    
C118  F20   S    
C222  C223  S    
C237  H205  S    
Cu5   O38   S    
C62   F10   S    
C48   O24   A    
C98   O12   A    
C186  H87   S    
C137  C149  S    
Cu4   O28   S    
C103  O14   A    
C193  C194  S    
C49   F1    S    
C137  O65   S    
C174  C175  S    
C203  H126  S    
C178  C179  S    
O72   C222  S    
C212  H147  S    
C6    C18   S    
C63   C67   A    
C123  F27   S    
C239  H210  S    
C66   H2    S    
C36   C40   A    
C172  C173  S    
C118  C132  A    
O78   C240  S    
C241  H215  S    
C206  H134  S    
C230  H188  S    
C164  H35   S    
C174  H58   S    
C39   C43   A    
C226  H179  S    
C197  H113  S    
C240  H212  S    
C93   O46   A    
C122  C126  A    
C245  H224  S    
C3    O19   A    
C192  C193  S    
Cu10  O14   S    
C232  H193  S    
C176  H64   S    
O69   C213  S    
C151  F31   S    
Cu7   O35   S    
C181  H74   S    
C6    C150  S    
C156  H17   S    
C110  C113  A    
C87   O35   A    
O61   C189  S    
C50   F2    S    
Cu4   O20   S    
C181  H75   S    
C128  H8    S    
C168  H45   S    
Cu6   O30   S    
C7    C151  S    
C22   F46   S    
C163  C164  S    
C162  H30   S    
C191  H99   S    
C170  H48   S    
C200  H120  S    
C188  H90   S    
C54   C58   A    
C180  C181  S    
C104  O15   A    
C175  H60   S    
C224  H176  S    
C242  H217  S    
C34   C38   A    
C229  C230  S    
C243  H220  S    
C160  H25   S    
C110  O62   S    
C109  C113  A    
C8    F36   S    
Cu5   O41   S    
C221  H169  S    
C171  H51   S    
C12   C148  S    
C227  H182  S    
C127  C130  A    
Cu2   O24   S    
O67   C207  S    
C112  O64   S    
C2    O2    A    
C173  H56   S    
C194  H105  S    
Cu12  O48   S    
C22   C42   A    
C116  C131  A    
C16   F44   S    
C209  H139  S    
C158  H22   S    
C225  H178  S    
C236  H202  S    
C187  H89   S    
C214  C215  S    
C165  H37   S    
C184  C185  S    
C106  C110  A    
C204  H128  S    
C57   C95   S    
C53   F5    S    
C96   O6    A    
Cu9   O5    S    
C52   C56   A    
