data_mof_unit_54009.cif
_audit_creation_date              2012-12-11T15:46:53-0500
_audit_creation_method            fapswitch 2.2
_symmetry_space_group_name_H-M    P1
_symmetry_Int_Tables_number       1
_space_group_crystal_system       triclinic
_cell_length_a                    11.545934
_cell_length_b                    11.540922
_cell_length_c                    19.548096
_cell_angle_alpha                 90.445999
_cell_angle_beta                  90.07561
_cell_angle_gamma                 59.942778
_cell_volume                      2254.44102694

loop_
_atom_site_label
_atom_site_type_symbol
_atom_type_description
_atom_site_fract_x
_atom_site_fract_y
_atom_site_fract_z
_atom_type_partial_charge
C1    C     C_R   0.640497 0.117291 0.599259 0.546251
C2    C     C_1   0.641334 0.703879 0.668009 0.004052
C3    C     C_1   0.126741 0.198808 0.859317 0.001266
C4    C     C_1   0.171555 0.170225 0.727723 -0.031290
C5    C     C_1   0.150204 0.182267 0.798962 -0.032255
C6    C     C_1   0.195335 0.160840 0.667386 0.003755
C7    C     C_1   0.678479 0.191312 0.860805 0.002385
C8    C     C_1   0.658581 0.167138 0.729043 -0.031495
C9    C     C_1   0.665605 0.180899 0.800356 -0.031966
C10   C     C_1   0.653069 0.149552 0.668644 0.003348
C11   C     C_R   0.657908 0.682645 0.189092 -0.010188
C12   C     C_R   0.612532 0.745936 0.598628 0.545044
C13   C     C_R   0.532806 0.735564 0.220917 0.048070
C14   C     C_R   0.526120 0.742101 0.290764 0.011164
C15   C     C_R   0.759762 0.673519 0.299153 -0.155074
C16   C     C_R   0.769350 0.661927 0.228240 -0.110261
C17   C     C_3   0.426922 0.695061 0.217794 0.151496
C18   C     C_3   0.425247 0.697954 0.295141 -0.200177
C19   C     C_R   0.639221 0.704320 0.330958 0.002280
C20   C     C_R   0.116256 0.211766 0.197977 0.015899
C21   C     C_R   0.109503 0.314872 0.238062 0.018071
C22   C     C_R   0.134174 0.298591 0.306871 0.019711
C23   C     C_R   0.241022 0.145265 0.598187 0.545220
C24   C     C_R   0.148930 0.082918 0.301633 -0.149440
C25   C     C_R   0.123077 0.100752 0.231358 -0.132259
C26   C     C_3   0.176583 0.395423 0.229002 -0.272350
C27   C     C_3   0.204101 0.378693 0.305009 -0.259294
C28   C     C_R   0.167286 0.176963 0.338599 0.012229
C29   C     C_R   0.663859 0.179253 0.189938 -0.013754
C30   C     C_R   0.735119 0.050359 0.218024 0.050418
C31   C     C_R   0.733457 0.033893 0.287486 0.006901
C32   C     C_R   0.568840 0.265969 0.302476 -0.171968
C33   C     C_R   0.570650 0.284342 0.231838 -0.169087
C34   C     C_R   0.644387 0.111841 0.401957 0.546773
C35   C     C_3   0.879862 0.941082 0.213325 0.158763
C36   C     C_3   0.877383 0.928927 0.290495 -0.197820
C37   C     C_R   0.658125 0.141404 0.331454 0.005220
C38   C     C_R   0.081787 0.231170 0.928611 0.548039
C39   C     C_R   0.683857 0.604526 0.929541 0.542181
C40   C     C_R   0.708332 0.206672 0.930160 0.545431
C41   C     C_R   0.078571 0.238368 0.126725 0.545953
C42   C     C_R   0.681873 0.614224 0.124489 0.532945
C43   C     C_R   0.706784 0.209671 0.125961 0.537050
C44   C     C_R   0.616030 0.740176 0.402012 0.547648
C45   C     C_R   0.241489 0.142341 0.402288 0.548266
C46   C     C_1   0.670274 0.646631 0.860174 0.001754
C47   C     C_1   0.654813 0.683726 0.728460 -0.031768
C48   C     C_1   0.663381 0.666811 0.799727 -0.032570
Cr1   Cr    Cr6+3 0.404720 0.198220 0.499960 1.023165
Cr2   Cr    Cr6+3 0.698290 0.897110 0.500380 1.027096
Cr3   Cr    Cr6+3 0.396970 0.904720 0.499610 1.025137
Cr4   Cr    Cr6+3 0.926290 0.152010 0.028150 0.990780
Cr5   Cr    Cr6+3 0.921440 0.451830 0.027490 1.013782
Cr6   Cr    Cr6+3 0.626370 0.446880 0.028730 1.002130
H1    H     H_    0.847200 0.652360 0.328998 0.122657
H2    H     H_    0.268688 0.343273 0.197074 0.144764
H3    H     H_    0.312328 0.317902 0.316451 0.169522
H4    H     H_    0.149080 0.474230 0.334283 0.133544
H5    H     H_    0.500760 0.349655 0.334454 0.120412
H6    H     H_    0.507590 0.382878 0.211276 0.120755
H7    H     H_    0.951988 0.972284 0.196876 0.133597
H8    H     H_    0.892186 0.831301 0.308197 0.166048
H9    H     H_    0.938850 0.964179 0.317730 0.089024
H10   H     H_    0.867189 0.622198 0.205246 0.180233
H11   H     H_    0.458820 0.593300 0.197755 0.130450
H12   H     H_    0.329389 0.775263 0.318076 0.165550
H13   H     H_    0.467159 0.596904 0.318090 0.083242
H14   H     H_    0.163622 0.992499 0.325559 0.129049
H15   H     H_    0.112563 0.026476 0.202862 0.173006
H16   H     H_    0.105703 0.500532 0.214393 0.157512
O1    O     O_R   0.267750 0.231960 0.575440 -0.505555
O2    O     O_R   0.685950 0.784660 0.430010 -0.503727
O3    O     O_R   0.502510 0.767000 0.423980 -0.521030
O4    O     O_R   0.288320 0.026340 0.429250 -0.504730
O5    O     O_3   0.499990 0.000020 0.499980 -0.252427
O6    O     O_R   0.821590 0.119350 0.952850 -0.515368
O7    O     O_R   0.037230 0.162540 0.957390 -0.496628
O8    O     O_R   0.056530 0.344750 0.951370 -0.505630
O9    O     O_R   0.798000 0.560370 0.957490 -0.497500
O10   O     O_R   0.596230 0.579400 0.952760 -0.512003
O11   O     O_R   0.639160 0.321170 0.958690 -0.491686
O12   O     O_R   0.527290 0.186640 0.570530 -0.494297
O13   O     O_R   0.821370 0.124220 0.104400 -0.549693
O14   O     O_R   0.037020 0.167050 0.097880 -0.518084
O15   O     O_R   0.056310 0.349620 0.102920 -0.516393
O16   O     O_R   0.797790 0.564880 0.097980 -0.507254
O17   O     O_R   0.596000 0.584270 0.104310 -0.549068
O18   O     O_R   0.638950 0.325690 0.099180 -0.502611
O19   O     O_3   0.824700 0.350240 0.028120 -0.241641
O20   O     O_R   0.728110 0.003450 0.576380 -0.505393
O21   O     O_R   0.682980 0.789190 0.570500 -0.494816
O22   O     O_R   0.499300 0.771880 0.575540 -0.505433
O23   O     O_R   0.285350 0.030870 0.569740 -0.494752
O24   O     O_R   0.270960 0.227070 0.423890 -0.522749
O25   O     O_R   0.530270 0.182120 0.430040 -0.507312
O26   O     O_R   0.731320 0.998570 0.424830 -0.517474
O27   O     O_3   0.896390 0.823376 0.181502 -0.589730
C49   C     C_3   0.903195 0.832000 0.109979 -0.091350
H17   H     H_    0.984584 0.851432 0.094503 0.116616
H18   H     H_    0.805131 0.909204 0.089190 0.146046
H19   H     H_    0.926248 0.734481 0.087065 0.134379
O28   O     O_3   0.303817 0.797194 0.192007 -0.592402
C50   C     C_3   0.303037 0.789466 0.120081 -0.098608
H20   H     H_    0.321985 0.689718 0.102080 0.122761
H21   H     H_    0.376121 0.814232 0.097383 0.148270
H22   H     H_    0.202417 0.865017 0.101573 0.121250

loop_
_geom_bond_atom_site_label_1
_geom_bond_atom_site_label_2
_ccdc_geom_bond_type
C21   C26   S    
C1    O20   A    
C34   C37   S    
C43   O13   A    
C14   C18   S    
C12   O21   A    
C35   C36   S    
Cr3   O4    S    
C2    C12   S    
C20   C41   S    
C15   C19   A    
C26   C27   S    
C30   C35   S    
C43   O18   A    
Cr5   O9    S    
Cr3   O5    S    
Cr6   O17   S    
C20   C25   A    
C15   C16   A    
C29   C33   A    
C11   C42   S    
Cr4   O14   S    
Cr2   O2    S    
Cr3   O3    S    
Cr2   O20   S    
C3    C38   S    
C8    C9    S    
C7    C40   S    
Cr1   O5    S    
Cr5   O16   S    
C42   O16   A    
Cr1   O24   S    
C36   H9    S    
C22   C28   A    
C13   C14   A    
C29   C43   S    
Cr4   O19   S    
O28   C50   S    
C36   H8    S    
C45   O24   A    
C14   C19   A    
O27   C49   S    
Cr6   O10   S    
C46   C48   T    
C28   C45   S    
C23   O1    A    
C24   C25   A    
Cr6   O19   S    
C4    C6    T    
C27   H3    S    
C38   O8    A    
Cr4   O6    S    
C18   H13   S    
C41   O14   A    
Cr1   O25   S    
C23   O23   A    
C31   C37   A    
C45   O4    A    
C15   H1    S    
Cr1   O12   S    
Cr4   O13   S    
C17   O28   S    
C29   C30   A    
Cr3   O22   S    
C11   C16   A    
C47   C48   S    
C17   C18   S    
C50   H21   S    
C32   C37   A    
C34   O25   A    
Cr3   O23   S    
C39   C46   S    
C33   H6    S    
C49   H18   S    
C22   C27   S    
Cr5   O19   S    
C26   H16   S    
C25   H15   S    
Cr4   O7    S    
C19   C44   S    
C7    C9    T    
C40   O11   A    
C12   O22   A    
C1    C10   S    
C24   C28   A    
C34   O26   A    
C4    C5    S    
C3    C5    T    
C27   H4    S    
C26   H2    S    
C38   O7    A    
C2    C47   T    
C18   H12   S    
C49   H19   S    
C41   O15   A    
C17   H11   S    
C13   C17   S    
C32   C33   A    
Cr5   O8    S    
C1    O12   A    
C35   O27   S    
Cr2   O5    S    
C39   O10   A    
Cr6   O18   S    
C11   C13   A    
Cr2   O26   S    
C30   C31   A    
C35   H7    S    
C6    C23   S    
C44   O2    A    
C50   H22   S    
C44   O3    A    
C24   H14   S    
C40   O6    A    
Cr2   O21   S    
C20   C21   A    
C8    C10   T    
C49   H17   S    
Cr1   O1    S    
C50   H20   S    
C31   C36   S    
Cr5   O15   S    
C42   O17   A    
C16   H10   S    
C32   H5    S    
C21   C22   A    
Cr6   O11   S    
C39   O9    A    
