data_mof_unit_16996.cif
_audit_creation_date              2013-03-05T15:45:13-0500
_audit_creation_method            fapswitch 2.2
_symmetry_space_group_name_H-M    P1
_symmetry_Int_Tables_number       1
_space_group_crystal_system       triclinic
_cell_length_a                    11.529798
_cell_length_b                    11.539535
_cell_length_c                    19.551312
_cell_angle_alpha                 90.553089
_cell_angle_beta                  89.96083
_cell_angle_gamma                 59.94012
_cell_volume                      2251.25719742

loop_
_atom_site_label
_atom_site_type_symbol
_atom_site_description
_atom_site_fract_x
_atom_site_fract_y
_atom_site_fract_z
_atom_type_partial_charge
O1    O     O_R   0.267740 0.231990 0.575440 -0.503409
O2    O     O_R   0.527280 0.186680 0.570530 -0.486276
C1    C     C_R   0.640432 0.117504 0.599245 0.553791
O3    O     O_R   0.728090 0.003480 0.576380 -0.502101
O4    O     O_R   0.682970 0.789220 0.570490 -0.497559
C2    C     C_R   0.612468 0.746015 0.598631 0.550556
O5    O     O_R   0.499290 0.771920 0.575530 -0.492538
O6    O     O_R   0.285330 0.030900 0.569730 -0.495748
C3    C     C_R   0.240785 0.145455 0.598148 0.542818
O7    O     O_R   0.270980 0.227040 0.423900 -0.516246
O8    O     O_R   0.530280 0.182090 0.430050 -0.489196
C4    C     C_R   0.643448 0.110428 0.401366 0.561603
O9    O     O_R   0.731330 0.998530 0.424830 -0.521239
O10   O     O_R   0.685970 0.784630 0.430010 -0.523096
C5    C     C_R   0.620898 0.732750 0.404802 0.573182
O11   O     O_R   0.502530 0.766960 0.423990 -0.451767
O12   O     O_R   0.288330 0.026310 0.429250 -0.501501
C6    C     C_R   0.242697 0.140714 0.401884 0.540848
Cr1   Cr    Cr6+3 0.404720 0.198220 0.499960 1.066523
Cr2   Cr    Cr6+3 0.698290 0.897110 0.500380 1.038331
Cr3   Cr    Cr6+3 0.396970 0.904720 0.499610 1.081616
O13   O     O_3   0.499990 0.000020 0.499980 -0.272607
C7    C     C_1   0.670555 0.646504 0.860083 0.004531
C8    C     C_1   0.654786 0.683734 0.728392 -0.029164
C9    C     C_1   0.663585 0.666684 0.799650 -0.030065
C10   C     C_1   0.641183 0.703976 0.667973 0.008323
C11   C     C_1   0.126852 0.198753 0.859282 0.004601
C12   C     C_1   0.171304 0.170479 0.727683 -0.029009
C13   C     C_1   0.150179 0.182305 0.798908 -0.029951
C14   C     C_1   0.194996 0.161194 0.667342 0.006821
C15   C     C_1   0.678682 0.191241 0.860767 0.005034
C16   C     C_1   0.658393 0.167473 0.729027 -0.028851
C17   C     C_1   0.665683 0.180963 0.800334 -0.029542
C18   C     C_1   0.652773 0.149993 0.668627 0.007751
C19   C     C_R   0.593475 0.609765 0.309354 0.199994
C20   C     C_R   0.593106 0.603077 0.239091 -0.117082
H1    H     H_    0.531625 0.567640 0.215480 0.161464
C21   C     C_R   0.674680 0.635652 0.199792 -0.008221
C22   C     C_R   0.762087 0.669469 0.231435 -0.165677
H2    H     H_    0.830246 0.688409 0.201840 0.131157
C23   C     C_R   0.758708 0.682515 0.301845 -0.182438
H3    H     H_    0.819364 0.719306 0.325258 0.142710
C24   C     C_R   0.667584 0.661839 0.340428 0.018759
C25   C     C_R   0.118576 0.295162 0.309782 -0.123271
H4    H     H_    0.095674 0.380064 0.342806 0.141265
C26   C     C_R   0.092754 0.316756 0.240884 -0.123086
H5    H     H_    0.045170 0.418789 0.222769 0.141187
C27   C     C_R   0.125110 0.208704 0.196350 0.029670
C28   C     C_R   0.179343 0.078871 0.221993 -0.132156
H6    H     H_    0.200910 0.995139 0.188400 0.131439
C29   C     C_R   0.208102 0.056642 0.291322 -0.128561
H7    H     H_    0.257612 0.954863 0.309887 0.158238
C30   C     C_R   0.180758 0.164721 0.335067 0.026598
C31   C     C_R   0.753423 0.037313 0.289882 -0.133900
H8    H     H_    0.823913 0.940184 0.310344 0.136682
C32   C     C_R   0.756700 0.056177 0.220821 -0.128201
H9    H     H_    0.833046 0.974101 0.190594 0.138727
C33   C     C_R   0.670187 0.181636 0.192227 0.019205
C34   C     C_R   0.569992 0.283396 0.232515 -0.131773
H10   H     H_    0.500432 0.379647 0.211032 0.142177
C35   C     C_R   0.563246 0.262287 0.301945 -0.092708
H11   H     H_    0.483906 0.340082 0.332634 0.204165
C36   C     C_R   0.658361 0.140816 0.331286 0.028758
O14   O     O_R   0.821500 0.119550 0.952820 -0.505605
O15   O     O_R   0.037130 0.162750 0.957360 -0.494182
C37   C     C_R   0.081899 0.231220 0.928596 0.546612
O16   O     O_R   0.056440 0.344950 0.951330 -0.503289
O17   O     O_R   0.797900 0.560570 0.957460 -0.493422
C38   C     C_R   0.683897 0.604606 0.929455 0.547068
O18   O     O_R   0.596140 0.579600 0.952720 -0.502698
O19   O     O_R   0.639070 0.321380 0.958660 -0.493531
C39   C     C_R   0.708336 0.206791 0.930108 0.545238
O20   O     O_R   0.821240 0.124490 0.104360 -0.519886
O21   O     O_R   0.036900 0.167320 0.097830 -0.499900
C40   C     C_R   0.079936 0.238144 0.126211 0.544695
O22   O     O_R   0.056190 0.349890 0.102870 -0.521211
O23   O     O_R   0.797670 0.565150 0.097930 -0.502915
C41   C     C_R   0.685235 0.605608 0.127683 0.549851
O24   O     O_R   0.595880 0.584540 0.104260 -0.526305
O25   O     O_R   0.638830 0.325960 0.099140 -0.507449
C42   C     C_R   0.706592 0.210228 0.126000 0.545806
Cr4   Cr    Cr6+3 0.926180 0.152240 0.028110 1.033390
Cr5   Cr    Cr6+3 0.921340 0.452070 0.027460 1.032081
Cr6   Cr    Cr6+3 0.626260 0.447120 0.028700 1.032029
O26   O     O_3   0.824590 0.350480 0.028090 -0.256345
N1    N     N_R   0.512916 0.570770 0.348206 0.074211
O27   O     O_R   0.396273 0.596300 0.325775 -0.386021
O28   O     O_R   0.557607 0.506136 0.405183 -0.339810

loop_
_geom_bond_atom_site_label_1
_geom_bond_atom_site_label_2
_geom_bond_distance
_ccdc_geom_bond_type
O16   Cr5   2.049914 S    
O11   Cr3   2.051377 S    
C11   C13   1.202396 T    
C23   H3    1.083057 S    
C7    C38   1.426689 S    
C19   C20   1.375287 A    
O25   Cr6   1.925328 S    
C22   C23   1.381768 A    
O4    Cr2   1.926936 S    
C2    C10   1.426661 S    
O23   C41   1.274470 A    
O8    Cr1   1.929012 S    
C12   C13   1.407025 S    
C8    C10   1.201428 T    
O4    C2    1.273869 A    
C19   N1    1.437547 S    
N1    O28   1.301753 A    
C31   C36   1.397066 A    
O23   Cr5   1.932042 S    
C5    O11   1.271167 A    
C32   H9    1.083707 S    
C35   C36   1.404620 A    
C6    C30   1.450305 S    
C26   H5    1.083475 S    
C25   C30   1.399226 A    
O17   C38   1.273957 A    
C28   C29   1.391122 A    
C15   C17   1.203307 T    
C19   C24   1.402977 A    
C7    C9    1.201433 T    
C37   O16   1.268347 A    
C34   H10   1.081834 S    
Cr3   O13   1.982111 S    
C23   C24   1.408308 A    
C27   C40   1.449105 S    
C35   H11   1.081143 S    
O21   Cr4   1.933485 S    
O22   Cr5   2.044880 S    
O20   C42   1.259435 A    
C25   C26   1.377684 A    
O12   C6    1.274409 A    
C26   C27   1.401629 A    
C21   C22   1.393126 A    
C31   C32   1.373239 A    
O1    Cr1   2.047716 S    
C34   C35   1.390415 A    
O21   C40   1.272764 A    
C29   H7    1.083448 S    
O10   Cr2   1.936050 S    
Cr1   O13   1.980088 S    
O1    C3    1.268901 A    
C8    C9    1.405502 S    
C33   C42   1.451842 S    
C22   H2    1.083524 S    
C4    C36   1.448861 S    
C41   O24   1.256843 A    
O6    C3    1.274836 A    
C21   C41   1.438992 S    
C1    C18   1.429955 S    
C33   C34   1.398496 A    
O5    Cr3   2.044158 S    
O12   Cr3   1.925865 S    
C29   C30   1.404092 A    
C16   C18   1.203340 T    
C40   O22   1.266437 A    
O7    Cr1   2.049066 S    
O6    Cr3   1.933357 S    
Cr6   O26   1.979341 S    
O14   Cr4   2.052723 S    
C3    C14   1.428314 S    
C15   C39   1.429844 S    
Cr5   O26   1.982205 S    
Cr2   O13   1.979368 S    
C28   H6    1.083331 S    
C1    O3    1.268223 A    
O20   Cr4   2.045444 S    
O18   Cr6   2.043799 S    
C25   H4    1.083900 S    
O19   Cr6   1.936237 S    
C31   H8    1.083215 S    
C20   H1    1.081667 S    
O9    Cr2   2.043500 S    
O2    Cr1   1.932854 S    
N1    O27   1.301602 A    
O17   Cr5   1.927907 S    
O25   C42   1.280062 A    
O8    C4    1.268839 A    
C2    O5    1.268381 A    
Cr4   O26   1.980088 S    
C16   C17   1.408543 S    
C12   C14   1.202378 T    
O2    C1    1.273104 A    
C5    C24   1.442686 S    
O19   C39   1.274792 A    
C11   C37   1.428371 S    
O15   Cr4   1.928934 S    
O24   Cr6   2.053620 S    
O7    C6    1.265423 A    
C27   C28   1.401212 A    
C20   C21   1.405362 A    
C32   C33   1.404680 A    
O14   C39   1.267506 A    
C38   O18   1.268205 A    
O3    Cr2   2.054409 S    
C4    O9    1.267205 A    
O15   C37   1.274261 A    
O10   C5    1.268449 A    
