data_mof_unit_52049.cif
_audit_creation_date              2012-12-11T16:28:01-0500
_audit_creation_method            fapswitch 2.2
_symmetry_space_group_name_H-M    P1
_symmetry_Int_Tables_number       1
_space_group_crystal_system       triclinic
_cell_length_a                    30.1942
_cell_length_b                    22.50616
_cell_length_c                    18.180227
_cell_angle_alpha                 89.999852
_cell_angle_beta                  123.429547
_cell_angle_gamma                 90.000174
_cell_volume                      10310.5969934

loop_
_atom_site_label
_atom_site_type_symbol
_atom_type_description
_atom_site_fract_x
_atom_site_fract_y
_atom_site_fract_z
_atom_type_partial_charge
C1    C     C_R   0.541443 0.592824 0.732194 -0.094171
C2    C     C_R   0.703430 0.404367 0.447822 -0.372615
C3    C     C_R   0.727685 0.787060 0.833472 0.605222
C4    C     C_R   0.300059 0.862725 0.015540 0.641755
C5    C     C_R   0.772315 0.287051 0.166519 0.605224
C6    C     C_R   0.699949 0.862701 0.984507 0.641765
C7    C     C_R   0.227704 0.287041 0.833474 0.605229
C8    C     C_R   0.848230 0.337174 0.038835 0.363611
C9    C     C_R   0.221482 0.808598 0.137665 0.405472
C10   C     C_R   0.151752 0.337223 0.961070 0.363637
C11   C     C_R   0.778503 0.808613 0.862329 0.405503
C12   C     C_R   0.348243 0.837212 0.038901 0.363605
C13   C     C_R   0.610935 0.736761 0.433925 -0.291100
C14   C     C_R   0.721499 0.308610 0.137668 0.405502
C15   C     C_R   0.651768 0.837183 0.961153 0.363598
C16   C     C_R   0.278527 0.308587 0.862341 0.405478
C17   C     C_R   0.582440 0.606011 0.428679 0.529235
C18   C     C_R   0.405295 0.411881 0.571239 0.508939
C19   C     C_R   0.417559 0.606010 0.571320 0.529242
C20   C     C_R   0.594705 0.411882 0.428762 0.508937
C21   C     C_R   0.082440 0.106011 0.428680 0.529249
C22   C     C_R   0.905295 0.911881 0.571238 0.508948
C23   C     C_R   0.917561 0.106012 0.571319 0.529241
C24   C     C_R   0.296566 0.404374 0.552167 -0.372621
C25   C     C_R   0.094705 0.911882 0.428762 0.508938
C26   C     C_R   0.385383 0.594425 0.268628 -0.092190
C27   C     C_R   0.618307 0.417691 0.741153 -0.117139
C28   C     C_R   0.614618 0.594421 0.731377 -0.092218
C29   C     C_R   0.381693 0.417689 0.258846 -0.117129
C30   C     C_R   0.885379 0.094414 0.268616 -0.092218
C31   C     C_R   0.118307 0.917691 0.741154 -0.117133
C32   C     C_R   0.114617 0.094425 0.731371 -0.092185
C33   C     C_R   0.881693 0.917690 0.258847 -0.117143
C34   C     C_R   0.590463 0.619880 0.770117 0.030096
C35   C     C_R   0.889064 0.236765 0.566063 -0.291097
C36   C     C_R   0.401202 0.404775 0.206974 0.038285
C37   C     C_R   0.409539 0.619888 0.229892 0.030098
C38   C     C_R   0.598800 0.404777 0.793026 0.038283
C39   C     C_R   0.090461 0.119888 0.770108 0.030092
C40   C     C_R   0.901201 0.904774 0.206976 0.038284
C41   C     C_R   0.909532 0.119870 0.229869 0.030088
C42   C     C_R   0.098799 0.904777 0.793027 0.038295
C43   C     C_R   0.619255 0.638224 0.502316 -0.026065
C44   C     C_R   0.355592 0.397883 0.496325 -0.043651
C45   C     C_R   0.380742 0.638221 0.497682 -0.026075
C46   C     C_R   0.203434 0.904372 0.447832 -0.372607
C47   C     C_R   0.644409 0.397884 0.503676 -0.043652
C48   C     C_R   0.119258 0.138221 0.502317 -0.026080
C49   C     C_R   0.855592 0.897881 0.496323 -0.043659
C50   C     C_R   0.880746 0.138225 0.497681 -0.026070
C51   C     C_R   0.144408 0.897883 0.503676 -0.043649
C52   C     C_R   0.287462 0.767378 0.425327 -0.126363
C53   C     C_R   0.776129 0.329353 0.583474 -0.189058
C54   C     C_R   0.712526 0.767389 0.574668 -0.126355
C55   C     C_R   0.223875 0.329346 0.416530 -0.189069
C56   C     C_R   0.787467 0.267382 0.425326 -0.126355
C57   C     C_R   0.110939 0.236763 0.433940 -0.291104
C58   C     C_R   0.276125 0.829346 0.583471 -0.189071
C59   C     C_R   0.212538 0.267378 0.574675 -0.126364
C60   C     C_R   0.723876 0.829340 0.416523 -0.189057
C61   C     C_R   0.309626 0.713915 0.423477 -0.105676
C62   C     C_R   0.731662 0.348584 0.580705 -0.188532
C63   C     C_R   0.690364 0.713926 0.576523 -0.105688
C64   C     C_R   0.268341 0.348578 0.419298 -0.188541
C65   C     C_R   0.809631 0.213920 0.423474 -0.105696
C66   C     C_R   0.231659 0.848578 0.580703 -0.188541
C67   C     C_R   0.190374 0.213915 0.576524 -0.105663
C68   C     C_R   0.796562 0.904373 0.552157 -0.372600
C69   C     C_R   0.768344 0.848571 0.419296 -0.188549
C70   C     C_R   0.359460 0.696959 0.495847 0.060188
C71   C     C_R   0.693625 0.383481 0.510162 0.075247
C72   C     C_R   0.640534 0.696963 0.504148 0.060187
C73   C     C_R   0.306375 0.383481 0.489836 0.075260
C74   C     C_R   0.859465 0.196963 0.495846 0.060200
C75   C     C_R   0.193625 0.883480 0.510164 0.075252
C76   C     C_R   0.140540 0.196959 0.504153 0.060175
C77   C     C_R   0.806375 0.883477 0.489833 0.075260
C78   C     C_3   0.583722 0.568856 0.312115 0.131727
C79   C     C_R   0.366603 0.790095 0.568371 0.738352
C80   C     C_3   0.643507 0.568233 0.350541 -0.328203
C81   C     C_3   0.655595 0.535892 0.289642 -0.890382
C82   C     C_3   0.437451 0.352952 0.692952 0.157107
C83   C     C_3   0.393034 0.312194 0.680252 -0.306293
C84   C     C_3   0.415458 0.254895 0.733182 -0.993236
C85   C     C_3   0.416278 0.568861 0.687887 0.131715
C86   C     C_3   0.356493 0.568241 0.649463 -0.328208
C87   C     C_3   0.344405 0.535896 0.710358 -0.890380
C88   C     C_3   0.562542 0.352939 0.307063 0.157136
C89   C     C_3   0.606955 0.312176 0.319761 -0.306311
C90   C     C_R   0.747546 0.384321 0.449463 0.754753
C91   C     C_3   0.584527 0.254869 0.266855 -0.993286
C92   C     C_3   0.083725 0.068865 0.312116 0.131717
C93   C     C_3   0.143511 0.068251 0.350547 -0.328230
C94   C     C_3   0.155606 0.035910 0.289657 -0.890369
C95   C     C_3   0.937456 0.852962 0.692961 0.157087
C96   C     C_3   0.893041 0.812182 0.680220 -0.306314
C97   C     C_3   0.915471 0.754891 0.733170 -0.993239
C98   C     C_3   0.916277 0.068863 0.687884 0.131714
C99   C     C_3   0.856491 0.068243 0.649453 -0.328205
C100  C     C_3   0.844399 0.035900 0.710345 -0.890375
C101  C     C_R   0.633393 0.790092 0.431610 0.738337
C102  C     C_3   0.062547 0.852948 0.307053 0.157125
C103  C     C_3   0.106961 0.812189 0.319748 -0.306319
C104  C     C_3   0.084535 0.754886 0.266830 -0.993228
C105  C     C_3   0.919620 0.392455 0.066355 0.194844
C106  C     C_3   0.905476 0.458238 0.062802 -0.248472
C107  C     C_3   0.954781 0.495710 0.122844 -0.991637
C108  C     C_3   0.185468 0.736550 0.179888 0.238903
C109  C     C_3   0.129089 0.725408 0.099816 -0.393943
C110  C     C_3   0.111636 0.661489 0.097996 -0.957243
C111  C     C_3   0.080362 0.392534 0.933474 0.194827
C112  C     C_R   0.454302 0.421317 0.255896 -0.147133
C113  C     C_R   0.252451 0.384325 0.550529 0.754760
C114  C     C_3   0.094533 0.458305 0.936991 -0.248509
C115  C     C_3   0.045244 0.495789 0.876908 -0.991633
C116  C     C_3   0.814521 0.736586 0.820084 0.238752
C117  C     C_3   0.870879 0.725434 0.900214 -0.393915
C118  C     C_3   0.888356 0.661533 0.902000 -0.957282
C119  C     C_3   0.419627 0.892513 0.066440 0.194847
C120  C     C_3   0.405468 0.958294 0.062858 -0.248440
C121  C     C_3   0.454765 0.995781 0.122884 -0.991691
C122  C     C_3   0.685475 0.236583 0.179902 0.238823
C123  C     C_3   0.629102 0.225450 0.099803 -0.393920
C124  C     C_R   0.866605 0.290096 0.568374 0.738330
C125  C     C_3   0.611619 0.161550 0.098006 -0.957319
C126  C     C_3   0.580388 0.892480 0.933639 0.194920
C127  C     C_3   0.594533 0.958276 0.937328 -0.248456
C128  C     C_3   0.545239 0.995752 0.877246 -0.991716
C129  C     C_3   0.314541 0.236540 0.820119 0.238845
C130  C     C_3   0.370912 0.225392 0.900212 -0.393924
C131  C     C_3   0.388371 0.161479 0.902017 -0.957265
C132  C     C_R   0.247549 0.884324 0.449471 0.754763
C133  C     C_R   0.133398 0.290095 0.431630 0.738348
C134  C     C_R   0.752445 0.884327 0.550513 0.754750
C135  C     C_R   0.314614 0.804115 0.499717 -0.036020
C136  C     C_R   0.782636 0.344273 0.515111 -0.016244
C137  C     C_R   0.685378 0.804118 0.500269 -0.036015
C138  C     C_R   0.217365 0.344271 0.484888 -0.016226
C139  C     C_R   0.814617 0.304117 0.499718 -0.036014
C140  C     C_R   0.458558 0.592829 0.267811 -0.094204
C141  C     C_R   0.282635 0.844271 0.515113 -0.016231
C142  C     C_R   0.185386 0.304115 0.500285 -0.036025
C143  C     C_R   0.717360 0.844270 0.484874 -0.016241
C144  C     C_R   0.392102 0.674036 0.175247 0.082209
C145  C     C_R   0.631220 0.387815 0.887107 0.085645
C146  C     C_R   0.607903 0.674022 0.824771 0.082211
C147  C     C_R   0.368787 0.387810 0.112894 0.085640
C148  C     C_R   0.892088 0.174008 0.175206 0.082214
C149  C     C_R   0.131216 0.887814 0.887108 0.085638
C150  C     C_R   0.107897 0.174038 0.824747 0.082211
C151  C     C_R   0.545699 0.421317 0.744105 -0.147128
C152  C     C_R   0.868782 0.887811 0.112896 0.085647
C153  C     C_R   0.405999 0.750163 0.095663 -0.100823
C154  C     C_R   0.640254 0.359078 0.023418 -0.105193
C155  C     C_R   0.594017 0.750131 0.904392 -0.100820
C156  C     C_R   0.359773 0.359043 0.976607 -0.105211
C157  C     C_R   0.905972 0.250114 0.095578 -0.100861
C158  C     C_R   0.140236 0.859055 0.023402 -0.105223
C159  C     C_R   0.093993 0.250176 0.904311 -0.100845
C160  C     C_R   0.859750 0.859074 0.976586 -0.105186
C161  C     C_R   0.419730 0.695741 0.139208 -0.160076
C162  C     C_R   0.041442 0.092829 0.732189 -0.094196
C163  C     C_R   0.609482 0.381891 0.937910 -0.202284
C164  C     C_R   0.580286 0.695712 0.860839 -0.160064
C165  C     C_R   0.390538 0.381863 0.062112 -0.202273
C166  C     C_R   0.919703 0.195695 0.139132 -0.160051
C167  C     C_R   0.109469 0.881872 0.937896 -0.202264
C168  C     C_R   0.080264 0.195751 0.860773 -0.160073
C169  C     C_R   0.890522 0.881887 0.062095 -0.202287
C170  C     C_R   0.351249 0.708158 0.168368 -0.109800
C171  C     C_R   0.684864 0.374932 0.925640 -0.101944
C172  C     C_R   0.648746 0.708154 0.831634 -0.109820
C173  C     C_R   0.954301 0.921316 0.255896 -0.147131
C174  C     C_R   0.315138 0.374943 0.074341 -0.101958
C175  C     C_R   0.851247 0.208141 0.168343 -0.109821
C176  C     C_R   0.184864 0.874945 0.925657 -0.101958
C177  C     C_R   0.148754 0.208155 0.831633 -0.109792
C178  C     C_R   0.815138 0.874927 0.074362 -0.101944
C179  C     C_R   0.337916 0.764026 0.127572 0.121411
C180  C     C_R   0.717007 0.354700 0.012396 0.103359
C181  C     C_R   0.662083 0.764017 0.872448 0.121414
C182  C     C_R   0.283003 0.354702 0.987588 0.103371
C183  C     C_R   0.837912 0.264004 0.127533 0.121412
C184  C     C_R   0.958554 0.092818 0.267799 -0.094148
C185  C     C_R   0.217002 0.854707 0.012412 0.103368
C186  C     C_R   0.162086 0.264026 0.872421 0.121419
C187  C     C_R   0.782996 0.854699 0.987604 0.103349
C188  C     C_R   0.364672 0.784253 0.088044 -0.114843
C189  C     C_R   0.693124 0.341633 0.059115 -0.083530
C190  C     C_R   0.635337 0.784230 0.911998 -0.114854
C191  C     C_R   0.306896 0.341615 0.940891 -0.083504
C192  C     C_R   0.864658 0.284217 0.087981 -0.114847
C193  C     C_R   0.193111 0.841625 0.059114 -0.083502
C194  C     C_R   0.135325 0.284261 0.911934 -0.114863
C195  C     C_R   0.045699 0.921318 0.744105 -0.147147
C196  C     C_R   0.806879 0.841633 0.940886 -0.083532
C197  C     C_R   0.294403 0.796790 0.116077 -0.254511
C198  C     C_R   0.770414 0.339087 0.047805 -0.267936
C199  C     C_R   0.705593 0.796787 0.883938 -0.254495
C200  C     C_R   0.229590 0.339101 0.952160 -0.267936
C201  C     C_R   0.794406 0.296778 0.116051 -0.254505
C202  C     C_R   0.270413 0.839103 0.047835 -0.267927
C203  C     C_R   0.205603 0.296786 0.883921 -0.254509
C204  C     C_R   0.729587 0.839091 0.952190 -0.267927
C205  C     C_R   0.629870 0.605747 0.574583 -0.216945
C206  C     C_R   0.389061 0.736763 0.566061 -0.291099
C207  C     C_R   0.356452 0.415184 0.424671 -0.229942
C208  C     C_R   0.370127 0.605745 0.425416 -0.216942
C209  C     C_R   0.643549 0.415185 0.575329 -0.229944
C210  C     C_R   0.129873 0.105745 0.574584 -0.216944
C211  C     C_R   0.856452 0.915182 0.424670 -0.229939
C212  C     C_R   0.870130 0.105748 0.425416 -0.216946
C213  C     C_R   0.143548 0.915184 0.575329 -0.229943
C214  C     C_R   0.800053 0.362697 0.015489 0.641753
C215  C     C_R   0.272304 0.787051 0.166530 0.605235
C216  C     C_R   0.199942 0.362729 0.984444 0.641726
F1    F     F_    0.784212 0.412693 0.965305 -0.709516
F2    F     F_    0.253513 0.899619 0.383165 -0.675975
F3    F     F_    0.106336 0.325588 0.359549 -0.693386
F4    F     F_    0.746476 0.899628 0.616812 -0.675968
F5    F     F_    0.393665 0.825587 0.640453 -0.693381
F6    F     F_    0.753507 0.399612 0.383152 -0.675968
F7    F     F_    0.606334 0.825577 0.359519 -0.693396
F8    F     F_    0.246487 0.399620 0.616835 -0.675983
F9    F     F_    0.301032 0.760557 0.246859 -0.705547
F10   F     F_    0.215782 0.412730 0.034619 -0.709512
F11   F     F_    0.698950 0.760576 0.753135 -0.705539
F12   F     F_    0.284219 0.912725 0.965363 -0.709526
F13   F     F_    0.801047 0.260561 0.246851 -0.705538
F14   F     F_    0.715795 0.912692 0.034703 -0.709537
F15   F     F_    0.198977 0.260545 0.753146 -0.705557
F16   F     F_    0.893666 0.325587 0.640458 -0.693403
H1    H     H_    0.517019 0.594776 0.757856 0.136210
H2    H     H_    0.328577 0.689718 0.192228 0.156951
H3    H     H_    0.559048 0.264807 0.195225 0.265516
H4    H     H_    0.061849 0.074568 0.239491 0.142293
H5    H     H_    0.070434 0.025558 0.322987 0.125909
H6    H     H_    0.158555 0.114570 0.359979 0.223412
H7    H     H_    0.164648 0.046018 0.415959 0.185583
H8    H     H_    0.135818 0.991846 0.270180 0.272438
H9    H     H_    0.199117 0.029569 0.323845 0.288622
H10   H     H_    0.141248 0.062580 0.229118 0.255806
H11   H     H_    0.966196 0.858460 0.765049 0.129491
H12   H     H_    0.959666 0.831093 0.667484 0.092363
H13   H     H_    0.299477 0.374781 0.114971 0.158789
H14   H     H_    0.869718 0.835449 0.702032 0.233989
H15   H     H_    0.866371 0.800098 0.609687 0.197731
H16   H     H_    0.939247 0.730781 0.713017 0.271467
H17   H     H_    0.882367 0.725775 0.720851 0.266682
H18   H     H_    0.940899 0.764849 0.804798 0.265512
H19   H     H_    0.938152 0.074568 0.760508 0.142291
H20   H     H_    0.929571 0.025559 0.677015 0.125924
H21   H     H_    0.841444 0.114560 0.640019 0.223411
H22   H     H_    0.835355 0.046009 0.584042 0.185582
H23   H     H_    0.864189 0.991837 0.729825 0.272446
H24   H     H_    0.671407 0.689726 0.807747 0.156972
H25   H     H_    0.800889 0.029555 0.676159 0.288631
H26   H     H_    0.858756 0.062570 0.770884 0.255804
H27   H     H_    0.033784 0.858437 0.234971 0.129469
H28   H     H_    0.040363 0.831065 0.332570 0.092358
H29   H     H_    0.130251 0.835467 0.297880 0.234001
H30   H     H_    0.133661 0.800118 0.390281 0.197747
H31   H     H_    0.060815 0.730751 0.287074 0.271473
H32   H     H_    0.117639 0.725797 0.279081 0.266712
H33   H     H_    0.059054 0.764831 0.195203 0.265486
H34   H     H_    0.950060 0.388443 0.050272 0.138692
H35   H     H_    0.200523 0.874777 0.885022 0.158785
H36   H     H_    0.938330 0.374977 0.134800 0.098516
H37   H     H_    0.885799 0.474737 0.994023 0.233957
H38   H     H_    0.877509 0.463449 0.084005 0.222696
H39   H     H_    0.974754 0.480473 0.192222 0.284520
H40   H     H_    0.943143 0.542970 0.119116 0.273525
H41   H     H_    0.982966 0.492460 0.101816 0.272001
H42   H     H_    0.186507 0.725011 0.240153 0.118713
H43   H     H_    0.213864 0.705809 0.178263 0.098382
H44   H     H_    0.101014 0.756062 0.102080 0.218035
H45   H     H_    0.127575 0.733985 0.038297 0.199706
H46   H     H_    0.828584 0.189713 0.192230 0.156976
H47   H     H_    0.138731 0.629944 0.094525 0.267338
H48   H     H_    0.070828 0.654834 0.039117 0.272801
H49   H     H_    0.111590 0.651933 0.157895 0.267431
H50   H     H_    0.049913 0.388564 0.949541 0.138709
H51   H     H_    0.061656 0.375032 0.865042 0.098533
H52   H     H_    0.114206 0.474827 0.005757 0.233977
H53   H     H_    0.122510 0.463473 0.915802 0.222680
H54   H     H_    0.025274 0.480524 0.807543 0.284515
H55   H     H_    0.056901 0.543039 0.880607 0.273530
H56   H     H_    0.017051 0.492583 0.897923 0.272000
H57   H     H_    0.799488 0.874741 0.115009 0.158778
H58   H     H_    0.813529 0.725072 0.759854 0.118772
H59   H     H_    0.786103 0.705834 0.821623 0.098441
H60   H     H_    0.898973 0.756118 0.898053 0.218002
H61   H     H_    0.872340 0.733959 0.961699 0.199684
H62   H     H_    0.861219 0.629953 0.905294 0.267337
H63   H     H_    0.929132 0.654856 0.960958 0.272796
H64   H     H_    0.888494 0.652047 0.842168 0.267449
H65   H     H_    0.450077 0.888503 0.050379 0.138698
H66   H     H_    0.438329 0.875045 0.134888 0.098504
H67   H     H_    0.385788 0.974779 0.994072 0.233968
H68   H     H_    0.171430 0.189711 0.807784 0.156940
H69   H     H_    0.377499 0.963503 0.084057 0.222698
H70   H     H_    0.474740 0.980557 0.192269 0.284513
H71   H     H_    0.443116 0.043039 0.119135 0.273531
H72   H     H_    0.482950 0.992531 0.101857 0.272004
H73   H     H_    0.686490 0.225056 0.240149 0.118755
H74   H     H_    0.713874 0.205828 0.178311 0.098391
H75   H     H_    0.601027 0.256135 0.102014 0.218029
H76   H     H_    0.627617 0.233987 0.038300 0.199690
H77   H     H_    0.638740 0.129970 0.094667 0.267334
H78   H     H_    0.570834 0.154886 0.039069 0.272801
H79   H     H_    0.568299 0.392288 0.910858 0.110650
H80   H     H_    0.611504 0.152052 0.157856 0.267453
H81   H     H_    0.549920 0.888415 0.949651 0.138640
H82   H     H_    0.561714 0.875063 0.865171 0.098501
H83   H     H_    0.614146 0.974724 0.006121 0.233854
H84   H     H_    0.622554 0.963541 0.916249 0.222848
H85   H     H_    0.525348 0.980590 0.807848 0.284498
H86   H     H_    0.556875 0.043027 0.881118 0.273522
H87   H     H_    0.516984 0.992420 0.898120 0.272028
H88   H     H_    0.313517 0.225006 0.759866 0.118742
H89   H     H_    0.286136 0.205798 0.821717 0.098403
H90   H     H_    0.451876 0.670825 0.144112 0.123450
H91   H     H_    0.398995 0.256056 0.897988 0.218027
H92   H     H_    0.372405 0.233949 0.961718 0.199695
H93   H     H_    0.361243 0.129920 0.905372 0.267333
H94   H     H_    0.429156 0.154804 0.960951 0.272801
H95   H     H_    0.388478 0.151960 0.842165 0.267449
H96   H     H_    0.431724 0.392245 0.089178 0.110643
H97   H     H_    0.478290 0.429058 0.229774 0.119143
H98   H     H_    0.548149 0.670786 0.855950 0.123426
H99   H     H_    0.068283 0.892257 0.910833 0.110640
H100  H     H_    0.951838 0.170767 0.144018 0.123419
H101  H     H_    0.931705 0.892283 0.089148 0.110648
H102  H     H_    0.048115 0.170838 0.855864 0.123457
H103  H     H_    0.427203 0.764834 0.066541 0.153866
H104  H     H_    0.621729 0.352521 0.059562 0.155828
H105  H     H_    0.572822 0.764791 0.933534 0.153865
H106  H     H_    0.378307 0.352468 0.940482 0.155829
H107  H     H_    0.927165 0.264772 0.066431 0.153863
H108  H     H_    0.482982 0.594783 0.242148 0.136221
H109  H     H_    0.121704 0.852482 0.059532 0.155836
H110  H     H_    0.072785 0.264853 0.933423 0.153877
H111  H     H_    0.878276 0.852517 0.940444 0.155828
H112  H     H_    0.658987 0.616431 0.642237 0.141959
H113  H     H_    0.322580 0.418639 0.357369 0.146228
H114  H     H_    0.341008 0.616425 0.357763 0.141970
H115  H     H_    0.677421 0.418641 0.642631 0.146234
H116  H     H_    0.158993 0.116425 0.642237 0.141973
H117  H     H_    0.822581 0.918636 0.357368 0.146237
H118  H     H_    0.841015 0.116431 0.357761 0.141974
H119  H     H_    0.521712 0.429056 0.770229 0.119129
H120  H     H_    0.177420 0.918639 0.642631 0.146228
H121  H     H_    0.344128 0.597924 0.245886 0.088694
H122  H     H_    0.659271 0.420454 0.761669 0.114887
H123  H     H_    0.655873 0.597919 0.754120 0.088693
H124  H     H_    0.340729 0.420447 0.238329 0.114856
H125  H     H_    0.844124 0.097910 0.245872 0.088698
H126  H     H_    0.159271 0.920450 0.761670 0.114861
H127  H     H_    0.155871 0.097924 0.754113 0.088693
H128  H     H_    0.840729 0.920452 0.238330 0.114893
H129  H     H_    0.246912 0.777150 0.372801 0.170905
H130  H     H_    0.017018 0.094782 0.757853 0.136216
H131  H     H_    0.802359 0.297737 0.633922 0.170288
H132  H     H_    0.753075 0.777165 0.627199 0.170908
H133  H     H_    0.197648 0.297725 0.366087 0.170271
H134  H     H_    0.746917 0.277154 0.372799 0.170902
H135  H     H_    0.302352 0.797726 0.633915 0.170274
H136  H     H_    0.253089 0.277149 0.627201 0.170913
H137  H     H_    0.697650 0.797718 0.366082 0.170281
H138  H     H_    0.286309 0.684431 0.367978 0.128555
H139  H     H_    0.725334 0.333019 0.630616 0.146375
H140  H     H_    0.713679 0.684448 0.632029 0.128555
H141  H     H_    0.978288 0.929056 0.229772 0.119133
H142  H     H_    0.274673 0.333008 0.369393 0.146366
H143  H     H_    0.786315 0.184437 0.367974 0.128555
H144  H     H_    0.225327 0.833009 0.630608 0.146369
H145  H     H_    0.213691 0.184430 0.632022 0.128565
H146  H     H_    0.774678 0.832998 0.369395 0.146375
H147  H     H_    0.428833 0.725943 0.620471 0.199425
H148  H     H_    0.675755 0.433625 0.395608 0.205228
H149  H     H_    0.571165 0.725937 0.379511 0.199426
H150  H     H_    0.324237 0.433638 0.604375 0.205224
H151  H     H_    0.928836 0.225945 0.620474 0.199417
H152  H     H_    0.982979 0.094768 0.242137 0.136203
H153  H     H_    0.175762 0.933635 0.395622 0.205220
H154  H     H_    0.071167 0.225943 0.379530 0.199427
H155  H     H_    0.824231 0.933639 0.604364 0.205227
H156  H     H_    0.561845 0.574558 0.239490 0.142293
H157  H     H_    0.570428 0.525552 0.322989 0.125899
H158  H     H_    0.658557 0.614550 0.359979 0.223414
H159  H     H_    0.664644 0.545996 0.415950 0.185579
H160  H     H_    0.635802 0.491831 0.270158 0.272436
H161  H     H_    0.699105 0.529544 0.323826 0.288631
H162  H     H_    0.641239 0.562566 0.229107 0.255808
H163  H     H_    0.021711 0.929057 0.770227 0.119123
H164  H     H_    0.466211 0.358443 0.765034 0.129478
H165  H     H_    0.459637 0.331067 0.667440 0.092356
H166  H     H_    0.369739 0.335475 0.702106 0.234008
H167  H     H_    0.366340 0.300118 0.609720 0.197738
H168  H     H_    0.439190 0.230760 0.712961 0.271469
H169  H     H_    0.382352 0.225804 0.720917 0.266699
H170  H     H_    0.440927 0.264845 0.804808 0.265493
H171  H     H_    0.438156 0.574565 0.760512 0.142291
H172  H     H_    0.429571 0.525556 0.677015 0.125916
H173  H     H_    0.341447 0.614559 0.640033 0.223412
H174  H     H_    0.700514 0.374748 0.884993 0.158773
H175  H     H_    0.335356 0.546009 0.584050 0.185582
H176  H     H_    0.364195 0.491834 0.729834 0.272443
H177  H     H_    0.300895 0.529551 0.676175 0.288629
H178  H     H_    0.358763 0.562565 0.770898 0.255806
H179  H     H_    0.533777 0.358423 0.234981 0.129466
H180  H     H_    0.540361 0.331061 0.332589 0.092358
H181  H     H_    0.630243 0.335449 0.297883 0.233986
H182  H     H_    0.633658 0.300112 0.390295 0.197752
H183  H     H_    0.560804 0.230743 0.287102 0.271483
H184  H     H_    0.617630 0.225775 0.279115 0.266698
N1    N     N_R   0.532910 0.558440 0.665240 -0.049218
N2    N     N_R   0.402970 0.441090 0.454460 -0.065081
N3    N     N_R   0.402970 0.558910 0.454460 -0.065859
N4    N     N_R   0.597030 0.441090 0.545540 -0.065081
N5    N     N_R   0.097030 0.058910 0.545540 -0.065861
N6    N     N_R   0.902970 0.941090 0.454460 -0.065081
N7    N     N_R   0.902970 0.058910 0.454460 -0.065860
N8    N     N_R   0.097030 0.941090 0.545540 -0.065081
N9    N     N_R   0.566200 0.559270 0.454460 -0.109995
N10   N     N_R   0.433800 0.440730 0.545540 -0.098313
N11   N     N_R   0.433800 0.559270 0.545540 -0.109993
N12   N     N_R   0.467090 0.441560 0.334760 -0.044171
N13   N     N_R   0.566200 0.440730 0.454460 -0.098317
N14   N     N_R   0.066200 0.059270 0.454460 -0.109993
N15   N     N_R   0.933800 0.940730 0.545540 -0.098314
N16   N     N_R   0.933800 0.059270 0.545540 -0.109992
N17   N     N_R   0.066200 0.940730 0.454460 -0.098314
N18   N     N_R   0.421050 0.559750 0.334770 -0.035816
N19   N     N_R   0.578950 0.440250 0.665230 -0.037912
N20   N     N_R   0.578950 0.559750 0.665230 -0.035813
N21   N     N_R   0.421050 0.440250 0.334770 -0.037911
N22   N     N_R   0.921050 0.059750 0.334770 -0.035815
N23   N     N_R   0.467090 0.558440 0.334760 -0.049218
N24   N     N_R   0.078950 0.940250 0.665230 -0.037910
N25   N     N_R   0.078950 0.059750 0.665230 -0.035817
N26   N     N_R   0.921050 0.940250 0.334770 -0.037912
N27   N     N_R   0.532910 0.441560 0.665240 -0.044171
N28   N     N_R   0.032910 0.058440 0.665240 -0.049217
N29   N     N_R   0.967090 0.941560 0.334760 -0.044170
N30   N     N_R   0.967090 0.058440 0.334760 -0.049218
N31   N     N_R   0.032910 0.941560 0.665240 -0.044172
N32   N     N_R   0.597030 0.558910 0.545540 -0.065858
Ni1   Ni    Ni4+2 0.483090 0.500000 0.604440 0.216054
Ni2   Ni    Ni4+2 0.516910 0.500000 0.395560 0.216050
Ni3   Ni    Ni4+2 0.983090 0.000000 0.604440 0.216053
Ni4   Ni    Ni4+2 0.016910 0.000000 0.395560 0.216055
Ni5   Ni    Ni4+2 0.586780 0.500000 0.604440 0.209617
Ni6   Ni    Ni4+2 0.413220 0.500000 0.395560 0.209617
Ni7   Ni    Ni4+2 0.086780 0.000000 0.604440 0.209614
Ni8   Ni    Ni4+2 0.913220 0.000000 0.395560 0.209617
O1    O     O_3   0.569975 0.617542 0.344766 -0.696551
O2    O     O_3   0.199390 0.797439 0.186012 -0.617245
O3    O     O_3   0.125378 0.359752 0.997663 -0.625254
O4    O     O_3   0.800588 0.797471 0.813967 -0.617209
O5    O     O_3   0.374606 0.859726 0.002278 -0.625269
O6    O     O_3   0.699415 0.297466 0.186032 -0.617199
O7    O     O_3   0.625409 0.859689 0.997789 -0.625274
O8    O     O_3   0.300620 0.297430 0.813997 -0.617247
O9    O     O_3   0.418375 0.410390 0.656979 -0.703948
O10   O     O_3   0.430027 0.617544 0.655234 -0.696540
O11   O     O_3   0.581620 0.410379 0.343020 -0.703947
O12   O     O_3   0.069971 0.117545 0.344764 -0.696536
O13   O     O_3   0.918371 0.910395 0.656976 -0.703945
O14   O     O_3   0.930027 0.117546 0.655233 -0.696550
O15   O     O_3   0.081623 0.910386 0.343021 -0.703945
O16   O     O_3   0.874588 0.359680 0.002198 -0.625257

loop_
_geom_bond_atom_site_label_1
_geom_bond_atom_site_label_2
_ccdc_geom_bond_type
C159  C194  A    
C126  C127  S    
N17   Ni4   S    
C53   H131  S    
C114  C115  S    
C110  H49   S    
C105  H36   S    
C53   C136  A    
C39   C150  S    
N6    N15   A    
C121  H71   S    
C57   C76   A    
C35   C124  A    
C31   C42   A    
C8    C214  A    
C87   H176  S    
C98   H19   S    
C144  C161  A    
C9    C193  A    
C54   C63   A    
C108  C109  S    
N15   Ni3   S    
C2    C90   A    
C7    C203  A    
C134  C143  A    
C14   C189  A    
C59   C142  A    
C1    H1    S    
C122  H73   S    
C4    C12   A    
N3    N11   A    
C21   O12   S    
C54   H132  S    
C160  C196  A    
C21   C48   A    
N18   Ni6   S    
C62   H139  S    
C166  H100  S    
C86   H175  S    
C178  H57   S    
C57   C133  A    
C158  C167  A    
C59   H136  S    
C130  H92   S    
C51   C213  A    
C78   H157  S    
C158  C193  A    
C211  H117  S    
N22   Ni8   S    
C22   O13   S    
C101  C137  A    
N25   N28   A    
C97   H17   S    
C179  C188  A    
N19   Ni5   S    
C187  C204  A    
C92   H4    S    
C216  F10   S    
C177  C186  A    
C153  C161  A    
C185  C202  A    
C17   O1    S    
C17   C43   A    
C27   H122  S    
C18   C44   A    
C31   N24   A    
C181  C190  A    
C154  C163  A    
N24   Ni7   S    
C150  C168  A    
C85   O10   S    
C103  H29   S    
C212  N7    A    
C133  F3    S    
N1    N20   A    
C151  N27   A    
C47   C71   S    
C124  F16   S    
C22   C49   A    
C88   H180  S    
C154  C189  A    
C19   N11   A    
C117  H60   S    
C199  C204  A    
C111  H50   S    
C17   N9    A    
C119  H66   S    
C156  H106  S    
C2    C71   A    
C162  H130  S    
C120  H69   S    
C126  H82   S    
C131  H94   S    
C80   H158  S    
C175  C183  A    
C110  H47   S    
C68   C77   A    
C100  H25   S    
C172  H24   S    
C96   C97   S    
C107  H40   S    
C154  H104  S    
C13   C72   A    
C91   H183  S    
C52   C61   A    
C82   O9    S    
C130  C131  S    
N5    N14   A    
C105  O16   S    
C158  H109  S    
C206  H147  S    
C34   C146  S    
C58   C141  A    
C60   H137  S    
C8    C192  A    
C68   C134  A    
C102  H28   S    
C132  F2    S    
C26   N18   A    
C42   C195  A    
C107  H41   S    
C195  N31   A    
C20   C47   A    
C3    C11   A    
C31   H126  S    
C88   C89   S    
C98   C99   S    
C106  C107  S    
C86   H173  S    
C173  H141  S    
C104  H32   S    
N9    N32   A    
N7    N16   A    
C127  H83   S    
C37   C144  S    
C48   C76   S    
C124  C139  A    
C69   C77   A    
N29   Ni4   S    
C175  H46   S    
C108  H43   S    
C174  C182  A    
C25   C51   A    
C65   H143  S    
C87   H178  S    
C113  F8    S    
C85   C86   S    
C9    C215  A    
C133  C142  A    
C63   H140  S    
C118  H64   S    
C151  H119  S    
C180  C189  A    
C184  H152  S    
C60   C143  A    
C46   C132  A    
C95   O13   S    
C78   C80   S    
C207  H113  S    
C184  N30   A    
C147  C174  A    
C91   H3    S    
C26   H121  S    
C40   C152  S    
C116  H58   S    
N20   Ni5   S    
C147  C165  A    
C29   H124  S    
C59   C67   A    
C172  C181  A    
C16   O8    S    
C177  H68   S    
C64   C73   A    
C208  N3    A    
C89   C91   S    
C96   H15   S    
N30   Ni4   S    
C50   C212  A    
N27   Ni1   S    
C162  N28   A    
C112  N12   A    
N21   Ni6   S    
C30   H125  S    
C173  N29   A    
C46   C75   A    
C1    C34   A    
C33   C40   A    
C102  O15   S    
C89   H182  S    
C180  C198  A    
C104  H33   S    
N28   Ni3   S    
C21   N14   A    
C115  H55   S    
C145  C163  A    
N32   Ni5   S    
C213  N8    A    
C146  C164  A    
C44   C207  A    
C65   C74   A    
C123  H76   S    
C23   O14   S    
C129  H89   S    
C16   C191  A    
C167  H99   S    
C83   C84   S    
C85   H172  S    
N24   N31   A    
C197  C202  A    
C84   H169  S    
C39   C162  A    
C29   N21   A    
C112  H97   S    
C150  C177  A    
C161  H90   S    
C45   C208  A    
C128  H86   S    
C6    F14   S    
C181  C199  A    
C38   C151  A    
N13   Ni2   S    
C120  C121  S    
C129  C130  S    
C20   O11   S    
C132  C141  A    
C108  O2    S    
C111  H51   S    
C186  C194  A    
C27   N19   A    
C88   O11   S    
N10   Ni1   S    
C131  H95   S    
C19   C45   A    
C119  O5    S    
N2    Ni6   S    
C121  H70   S    
C170  C179  A    
C47   C209  A    
C66   H144  S    
C117  C118  S    
C98   H20   S    
C10   C216  A    
C41   C148  S    
C164  H98   S    
C60   C69   A    
C93   H7    S    
C134  F4    S    
C56   H134  S    
C200  C216  A    
C49   C77   S    
C62   C71   A    
C5    F13   S    
C18   N10   A    
C102  C103  S    
N6    Ni8   S    
C140  N23   A    
C156  C191  A    
C135  C141  S    
C106  H37   S    
C111  O3    S    
C122  H74   S    
C61   C70   A    
C68   H155  S    
C35   C74   A    
N14   Ni4   S    
N8    Ni7   S    
C187  C196  A    
C148  C166  A    
N12   Ni2   S    
C20   N13   A    
C149  C167  A    
C126  O7    S    
N11   Ni1   S    
C183  C192  A    
C176  C185  A    
C7    F15   S    
C35   H151  S    
C28   N20   A    
C93   C94   S    
C94   H9    S    
C99   H22   S    
C108  H42   S    
C10   C194  A    
C24   C73   A    
C123  C125  S    
C54   C137  A    
C27   C38   A    
C209  H115  S    
C144  C170  A    
C165  H96   S    
C81   H162  S    
C42   C149  S    
N3    Ni6   S    
C8    O16   S    
C37   C140  A    
C36   C112  A    
C83   H166  S    
C160  C169  A    
C79   F5    S    
C95   H12   S    
C28   C34   A    
C119  H65   S    
C136  C139  S    
C96   H14   S    
C131  H93   S    
C118  H62   S    
C157  H107  S    
C110  H48   S    
C11   O4    S    
C209  N4    A    
C100  H26   S    
C32   H127  S    
C121  H72   S    
C9    O2    S    
C107  H39   S    
C210  H116  S    
C11   C196  A    
C138  C142  S    
C56   C139  A    
C86   C87   S    
C23   C50   A    
C205  N32   A    
C214  F1    S    
C215  F9    S    
C183  C201  A    
C120  H67   S    
C6    C204  A    
C155  C190  A    
C33   H128  S    
C122  O6    S    
C36   C147  S    
C109  H45   S    
C115  H56   S    
C46   H153  S    
C182  C200  A    
N4    N13   A    
N25   Ni7   S    
C5    C14   A    
C178  C187  A    
C94   H8    S    
C7    C16   A    
C182  C191  A    
C84   H168  S    
C163  H79   S    
C127  C128  S    
C3    F11   S    
C155  H105  S    
C64   H142  S    
N4    Ni5   S    
C130  H91   S    
C78   H156  S    
C82   H164  S    
C45   C70   S    
C119  C120  S    
C87   H177  S    
C26   C37   A    
C33   N26   A    
C153  C188  A    
C79   C135  A    
C105  C106  S    
C149  C176  A    
C13   H149  S    
C50   C74   S    
C98   O14   S    
C157  C192  A    
C212  H118  S    
C109  C110  S    
C24   H150  S    
C152  C169  A    
C30   N22   A    
N5    Ni7   S    
C156  C165  A    
C82   H165  S    
C66   C75   A    
C67   H145  S    
C92   C93   S    
C116  O4    S    
C103  H30   S    
C111  C114  S    
C4    F12   S    
N16   Ni3   S    
C44   C73   S    
C168  H102  S    
C88   H179  S    
C25   O15   S    
C63   C72   A    
C82   C83   S    
C117  H61   S    
C103  C104  S    
C113  C138  A    
C23   N16   A    
N22   N30   A    
C125  H78   S    
C126  H81   S    
C56   C65   A    
C174  H13   S    
C12   C188  A    
C102  H27   S    
C145  C171  A    
C43   C72   S    
C146  C172  A    
C43   C205  A    
C195  H163  S    
C95   C96   S    
C97   H16   S    
C97   H18   S    
C116  C117  S    
C170  H2    S    
C29   C36   A    
C91   H184  S    
C55   C138  A    
C28   H123  S    
C51   C75   S    
C52   H129  S    
C90   F6    S    
C14   O6    S    
C208  H114  S    
C40   C173  A    
C211  N6    A    
C92   O12   S    
N19   N27   A    
C115  H54   S    
N8    N17   A    
C19   O10   S    
N23   Ni2   S    
C159  C168  A    
C81   H160  S    
C123  H75   S    
C176  H35   S    
C6    C15   A    
C4    C202  A    
N12   N21   A    
C58   C66   A    
C85   H171  S    
C186  C203  A    
C3    C199  A    
C89   H181  S    
C104  H31   S    
C2    H148  S    
C100  H23   S    
N18   N23   A    
C197  C215  A    
C12   O5    S    
C128  H87   S    
C127  H84   S    
C137  C143  S    
C24   C113  A    
C83   H167  S    
N26   Ni8   S    
C171  H174  S    
C69   H146  S    
C169  H101  S    
C213  H120  S    
C92   H5    S    
C148  C175  A    
C207  N2    A    
N1    Ni1   S    
C109  H44   S    
C118  H63   S    
C140  H108  S    
C61   H138  S    
C5    C201  A    
C179  C197  A    
C105  H34   S    
C205  H112  S    
C15   O7    S    
C81   H161  S    
C129  H88   S    
C38   C145  S    
C90   C136  A    
C53   C62   A    
C99   C100  S    
N2    N10   A    
C78   O1    S    
C93   H6    S    
N7    Ni8   S    
C55   C64   A    
C49   C211  A    
C198  C201  A    
C22   N15   A    
C30   C41   A    
C159  H110  S    
C41   C184  A    
C125  H80   S    
C80   H159  S    
C32   N25   A    
C114  H52   S    
C15   C190  A    
C48   C210  A    
C106  H38   S    
C84   H170  S    
C25   N17   A    
C171  C180  A    
C13   C101  A    
C129  O8    S    
C160  H111  S    
C185  C193  A    
C80   C81   S    
C210  N5    A    
C157  C166  A    
C114  H53   S    
N9    Ni2   S    
C155  C164  A    
C70   C206  A    
C79   C206  A    
C10   O3    S    
C116  H59   S    
N26   N29   A    
C94   H10   S    
C1    N1    A    
C99   H21   S    
C55   H133  S    
C101  F7    S    
C200  C203  A    
C152  C178  A    
N31   Ni3   S    
C58   H135  S    
C57   H154  S    
C18   O9    S    
C128  H85   S    
C32   C39   A    
C52   C135  A    
C67   C76   A    
C122  C123  S    
C153  H103  S    
C125  H77   S    
C95   H11   S    
C198  C214  A    
