data_mof_unit_43752.cif
_audit_creation_date              2012-12-10T20:36:37-0500
_audit_creation_method            fapswitch 2.2
_symmetry_space_group_name_H-M    P1
_symmetry_Int_Tables_number       1
_space_group_crystal_system       triclinic
_cell_length_a                    10.50283
_cell_length_b                    10.669162
_cell_length_c                    9.878279
_cell_angle_alpha                 89.779656
_cell_angle_beta                  89.552674
_cell_angle_gamma                 90.142138
_cell_volume                      1106.87892078

loop_
_atom_site_label
_atom_site_type_symbol
_atom_type_description
_atom_site_fract_x
_atom_site_fract_y
_atom_site_fract_z
_atom_type_partial_charge
C1    C     C_R   0.503985 0.260001 0.500213 0.876030
C2    C     C_3   0.961047 0.492302 0.370722 -0.163067
C3    C     C_3   0.042366 0.393781 0.445285 -0.169177
C4    C     C_3   0.122551 0.501043 0.501420 0.029095
C5    C     C_R   0.519618 0.063104 0.623007 0.120097
C6    C     C_R   0.524117 0.128607 0.501020 -0.107867
C7    C     C_R   0.552840 0.065402 0.380271 -0.246374
C8    C     C_R   0.552525 0.935718 0.379906 -0.236261
C9    C     C_R   0.523246 0.871349 0.500220 -0.091896
C10   C     C_R   0.518610 0.935471 0.622395 0.166135
C11   C     C_3   0.425089 0.927215 0.736761 -0.477001
C12   C     C_R   0.257406 0.500124 0.500515 0.868637
C13   C     C_3   0.426309 0.069296 0.737827 -0.501177
C14   C     C_R   0.388934 0.486088 0.072264 0.228255
C15   C     C_R   0.608095 0.524740 0.070851 -0.153269
C16   C     C_R   0.608096 0.524614 0.927122 -0.140124
C17   C     C_R   0.388824 0.486286 0.929837 0.218363
C18   C     C_3   0.300444 0.376765 0.926046 -0.520879
C19   C     C_3   0.300682 0.376763 0.079759 -0.511760
C20   C     C_R   0.503780 0.739946 0.499759 0.879237
C21   C     C_R   0.742595 0.500778 0.499412 0.867192
C22   C     C_3   0.039652 0.510711 0.629035 -0.189726
C23   C     C_3   0.956597 0.403414 0.572595 -0.194842
C24   C     C_3   0.877556 0.501884 0.498178 -0.003243
C25   C     C_3   0.958743 0.608059 0.553491 0.037516
C26   C     C_3   0.044311 0.599714 0.426638 -0.222940
H1    H     H_    0.916513 0.323464 0.631434 0.134006
H2    H     H_    0.467601 0.884903 0.828929 0.207015
H3    H     H_    0.333866 0.111568 0.708176 0.203140
H4    H     H_    0.469971 0.108565 0.830664 0.201016
H5    H     H_    0.695899 0.542926 0.123757 0.145759
H6    H     H_    0.695879 0.542386 0.872686 0.152090
H7    H     H_    0.206416 0.401421 0.883100 0.195270
H8    H     H_    0.345444 0.292483 0.881291 0.213481
H9    H     H_    0.207008 0.402207 0.124947 0.201795
H10   H     H_    0.346022 0.292265 0.124483 0.214294
H11   H     H_    0.075524 0.519345 0.733869 0.129936
H12   H     H_    0.085548 0.679022 0.367690 0.131091
H13   H     H_    0.925370 0.484633 0.265560 0.135638
H14   H     H_    0.081607 0.306283 0.401232 0.127615
H15   H     H_    0.566866 0.115036 0.285422 0.172669
H16   H     H_    0.566611 0.887015 0.284957 0.170438
H17   H     H_    0.332103 0.886622 0.705949 0.202154
N1    N     N_R   0.499140 0.499140 0.142800 -0.106342
N2    N     N_R   0.499140 0.499180 0.857150 -0.105866
O1    O     O_R   0.500020 0.316790 0.614690 -0.615873
O2    O     O_R   0.500000 0.316760 0.385350 -0.622882
O3    O     O_R   0.313960 0.499990 0.614650 -0.625523
O4    O     O_R   0.313940 0.499950 0.385310 -0.620051
O5    O     O_R   0.500000 0.683240 0.614650 -0.611072
O6    O     O_R   0.499980 0.683210 0.385310 -0.624358
O7    O     O_R   0.686060 0.500050 0.614690 -0.628046
O8    O     O_R   0.686040 0.500010 0.385350 -0.635120
Zn1   Zn    Zn3+2 0.500010 0.500020 0.653130 0.941085
Zn2   Zn    Zn3+2 0.499990 0.499980 0.346870 0.934059
C27   C     C_R   0.907784 0.727704 0.612973 0.109569
C28   C     C_R   0.881750 0.735828 0.752296 -0.137138
C29   C     C_R   0.836897 0.847817 0.807902 -0.141364
C30   C     C_R   0.818519 0.952542 0.725036 -0.112261
C31   C     C_R   0.843038 0.944845 0.586071 -0.128581
C32   C     C_R   0.886600 0.832602 0.529876 -0.173004
H18   H     H_    0.896606 0.655886 0.818004 0.105610
H19   H     H_    0.816940 0.853554 0.915358 0.120406
H20   H     H_    0.784189 0.039317 0.768248 0.122321
H21   H     H_    0.827531 0.025687 0.521787 0.134431
H22   H     H_    0.904291 0.827904 0.421916 0.121639

loop_
_geom_bond_atom_site_label_1
_geom_bond_atom_site_label_2
_ccdc_geom_bond_type
C16   N2    A    
C15   N1    A    
C4    C26   S    
C23   C24   S    
C30   C31   A    
C15   H5    S    
C6    C7    A    
C27   C32   A    
C23   H1    S    
C16   H6    S    
C4    C22   S    
C9    C10   A    
C2    H13   S    
C9    C20   S    
C3    C23   S    
C14   C19   S    
N1    Zn2   S    
C25   C27   S    
C12   O3    A    
O1    Zn1   S    
C7    H15   S    
C12   O4    A    
C30   H20   S    
O2    Zn2   S    
C7    C8    A    
C2    C26   S    
C19   H9    S    
C24   C25   S    
O3    Zn1   S    
C11   C13   S    
C14   C17   A    
C28   C29   A    
O5    Zn1   S    
C11   H2    S    
C18   H8    S    
C21   O8    A    
C13   H3    S    
O7    Zn1   S    
N2    Zn1   S    
C17   C18   S    
C20   O6    A    
C2    C3    S    
C19   H10   S    
O8    Zn2   S    
C2    C24   S    
C5    C6    A    
C18   H7    S    
C1    O1    A    
C29   C30   A    
C4    C12   S    
C10   C11   S    
C8    H16   S    
C1    C6    S    
C13   H4    S    
C5    C10   A    
C27   C28   A    
C31   C32   A    
C14   N1    A    
C18   C19   S    
C21   C24   S    
C29   H19   S    
C22   C23   S    
C26   H12   S    
C20   O5    A    
C11   H17   S    
C3    H14   S    
O6    Zn2   S    
C28   H18   S    
C25   C26   S    
O4    Zn2   S    
C22   H11   S    
C5    C13   S    
C32   H22   S    
C21   O7    A    
C1    O2    A    
C3    C4    S    
C15   C16   A    
C17   N2    A    
C8    C9    A    
C31   H21   S    
C22   C25   S    
