data_mof_unit_40888.cif
_audit_creation_date              2012-12-10T16:56:29-0500
_audit_creation_method            fapswitch 2.2
_symmetry_space_group_name_H-M    P1
_symmetry_Int_Tables_number       1
_space_group_crystal_system       triclinic
_cell_length_a                    7.76587
_cell_length_b                    8.625862
_cell_length_c                    15.710364
_cell_angle_alpha                 90.925362
_cell_angle_beta                  86.04447
_cell_angle_gamma                 93.329278
_cell_volume                      1048.03846048

loop_
_atom_site_label
_atom_site_type_symbol
_atom_type_description
_atom_site_fract_x
_atom_site_fract_y
_atom_site_fract_z
_atom_type_partial_charge
C1    C     C_R   0.544876 0.794257 0.496469 0.880157
C2    C     C_3   0.382797 0.389767 0.030946 -0.247647
C3    C     C_1   0.506982 0.498384 0.750601 -0.130420
C4    C     C_1   0.493018 0.501616 0.249399 -0.130430
C5    C     C_3   0.342365 0.527873 0.974661 -0.249923
C6    C     C_3   0.657635 0.472126 0.025339 -0.249925
C7    C     C_3   0.504874 0.497299 0.916778 0.174541
C8    C     C_3   0.495126 0.502701 0.083222 0.174542
C9    C     C_1   0.507719 0.497450 0.825849 0.018963
C10   C     C_1   0.492281 0.502550 0.174151 0.018961
C11   C     C_2   0.404543 0.796746 0.058056 0.371031
C12   C     C_R   0.455125 0.205743 0.503539 0.880146
C13   C     C_2   0.595457 0.203254 0.941944 0.371034
C14   C     C_R   0.502357 0.499826 0.661933 0.902066
C15   C     C_R   0.497643 0.500173 0.338067 0.902074
C16   C     C_2   0.563570 0.956214 0.482986 0.199626
C17   C     C_2   0.436438 0.043787 0.517040 0.199601
C18   C     C_3   0.455296 0.638968 0.028274 0.067718
C19   C     C_3   0.544704 0.361032 0.971726 0.067716
C20   C     C_3   0.617203 0.610233 0.969054 -0.247645
H1    H     H_    0.712389 0.700652 0.942231 0.156977
H2    H     H_    0.230979 0.066914 0.595300 0.351240
H3    H     H_    0.287610 0.299348 0.057769 0.156976
H4    H     H_    0.786124 0.448634 0.047619 0.152498
H5    H     H_    0.213876 0.551366 0.952380 0.152499
H6    H     H_    0.013678 0.382188 0.436549 0.209872
H7    H     H_    0.986322 0.617812 0.563450 0.209871
H8    H     H_    0.378394 0.882475 0.011597 0.060217
H9    H     H_    0.621606 0.117525 0.988403 0.060215
H10   H     H_    0.769047 0.933090 0.404744 0.351237
N1    N     N_2   0.950320 0.457950 0.477300 -0.161636
N2    N     N_2   0.049680 0.542050 0.522700 -0.161638
O1    O     O_R   0.389250 0.738570 0.505570 -0.553758
O2    O     O_2   0.607699 0.170235 0.866051 -0.561202
O3    O     O_3   0.698055 0.017590 0.428376 -0.764253
O4    O     O_3   0.301963 0.982413 0.571669 -0.764242
O5    O     O_R   0.610750 0.261430 0.494430 -0.553732
O6    O     O_R   0.678390 0.711630 0.491020 -0.648958
O7    O     O_R   0.321610 0.288370 0.508980 -0.648949
O8    O     O_R   0.355460 0.513480 0.630490 -0.606567
O9    O     O_R   0.644540 0.486520 0.369510 -0.606568
O10   O     O_R   0.644600 0.486540 0.615950 -0.621351
O11   O     O_R   0.355400 0.513460 0.384050 -0.621348
O12   O     O_2   0.392301 0.829764 0.133949 -0.561206
Zn1   Zn    Zn3+2 0.306940 0.517990 0.509710 1.000809
Zn2   Zn    Zn3+2 0.693060 0.482010 0.490290 1.000811

loop_
_geom_bond_atom_site_label_1
_geom_bond_atom_site_label_2
_ccdc_geom_bond_type
C12   C17   S    
C13   O2    D    
O9    Zn2   S    
C11   C18   S    
C3    C9    T    
C17   O4    S    
O1    Zn1   S    
N2    Zn1   S    
C18   C20   S    
N1    N2    D    
O7    Zn1   S    
C14   O10   A    
C6    H4    S    
C7    C9    S    
C2    H3    S    
C12   O7    A    
H7    N2    S    
C15   O11   A    
C11   O12   D    
C1    C16   S    
C6    C19   S    
O11   Zn1   S    
C3    C14   S    
C1    O6    A    
C4    C15   S    
C5    H5    S    
C11   H8    S    
C13   H9    S    
C7    C19   S    
C16   O3    S    
O8    Zn1   S    
C2    C8    S    
O6    Zn2   S    
C2    C5    S    
C13   C19   S    
C14   O8    A    
H10   O3    S    
H6    N1    S    
C6    C20   S    
C20   H1    S    
C15   O9    A    
C8    C10   S    
C7    C20   S    
O10   Zn2   S    
C12   O5    A    
C5    C7    S    
H2    O4    S    
C6    C8    S    
C5    C18   S    
O5    Zn2   S    
C2    C19   S    
C4    C10   T    
C8    C18   S    
C1    O1    A    
C16   C17   D    
N1    Zn2   S    
