data_mof_unit_16850.cif
_audit_creation_date              2012-12-10T17:48:52-0500
_audit_creation_method            fapswitch 2.2
_symmetry_space_group_name_H-M    P1
_symmetry_Int_Tables_number       1
_space_group_crystal_system       triclinic
_cell_length_a                    10.729457
_cell_length_b                    14.732546
_cell_length_c                    14.839781
_cell_angle_alpha                 64.800983
_cell_angle_beta                  104.484358
_cell_angle_gamma                 103.333884
_cell_volume                      2034.32465449

loop_
_atom_site_label
_atom_site_type_symbol
_atom_type_description
_atom_site_fract_x
_atom_site_fract_y
_atom_site_fract_z
_atom_type_partial_charge
C1    C     C_R   0.475000 0.119628 0.312566 0.779190
C2    C     C_3   0.879468 0.999547 0.502295 -0.013625
C3    C     C_3   0.956683 0.970052 0.613993 0.945600
C4    C     C_3   0.938324 0.105588 0.429183 0.319311
C5    C     C_R   0.457417 0.187527 0.205550 -0.056733
C6    C     C_R   0.534232 0.815280 0.797408 -0.099099
C7    C     C_R   0.418597 0.219500 0.027980 -0.204646
C8    C     C_R   0.435273 0.151674 0.128651 -0.205751
C9    C     C_R   0.464675 0.291063 0.180618 -0.244993
C10   C     C_R   0.469565 0.361776 0.081677 0.080005
C11   C     C_R   0.434142 0.324066 0.004094 0.174665
C12   C     C_R   0.259937 0.999993 0.499551 0.806429
C13   C     C_R   0.504168 0.468332 0.057200 0.000774
C14   C     C_R   0.475629 0.535641 0.953604 0.061306
C15   C     C_R   0.425057 0.493838 0.879481 -0.224110
C16   C     C_R   0.411148 0.390678 0.903882 -0.231691
C17   C     C_R   0.573459 0.510638 0.129750 -0.031590
C18   C     C_R   0.603200 0.614934 0.100907 -0.259253
C19   C     C_R   0.573538 0.680459 0.000869 0.126630
C20   C     C_R   0.507260 0.642469 0.926276 0.094643
C21   C     C_R   0.616449 0.784138 0.974514 -0.241099
C22   C     C_R   0.600945 0.851398 0.873677 -0.010234
C23   C     C_R   0.520895 0.880624 0.688119 0.808788
C24   C     C_R   0.480439 0.713076 0.825965 -0.295330
C25   C     C_R   0.759785 0.312822 0.616005 -0.300706
C26   C     C_R   0.707497 0.219036 0.611345 0.150287
C27   C     C_R   0.508774 0.279953 0.516892 0.022093
C28   C     C_R   0.555628 0.377264 0.520405 -0.011108
C29   C     C_R   0.685624 0.392753 0.568845 0.166681
C30   C     C_R   0.480589 0.459905 0.476253 0.072862
C31   C     C_R   0.536400 0.554747 0.485166 0.102916
C32   C     C_R   0.670855 0.569195 0.521775 -0.214603
C33   C     C_R   0.742708 0.488934 0.565988 -0.225318
C34   C     C_R   0.740157 0.000261 0.499788 0.847691
C35   C     C_R   0.352756 0.451841 0.422599 -0.221873
C36   C     C_R   0.282640 0.533253 0.379459 -0.136462
C37   C     C_R   0.332761 0.623073 0.394567 0.040009
C38   C     C_R   0.456958 0.633311 0.453072 -0.125126
C39   C     C_R   0.258059 0.702232 0.352514 -0.418867
C40   C     C_R   0.303915 0.791208 0.370831 0.624811
C41   C     C_R   0.491525 0.719464 0.480853 0.519833
C42   C     C_3   0.032853 0.916575 0.465615 -0.395712
C43   C     C_3   0.890398 0.919310 0.462994 -0.542926
C44   C     C_3   0.104597 0.977567 0.608345 -0.484958
C45   C     C_3   0.080893 0.103434 0.427242 -0.440567
C46   C     C_3   0.122037 0.999069 0.500158 0.015409
Cu1   Cu    Cu3+1 0.465900 0.918260 0.475680 1.003374
Cu2   Cu    Cu3+1 0.534100 0.081740 0.524320 0.981139
H1    H     H_    0.058723 0.840209 0.518121 0.192856
H2    H     H_    0.162032 0.041656 0.628437 0.186738
H3    H     H_    0.379020 0.362731 0.843821 0.142491
H4    H     H_    0.417568 0.690795 0.768022 0.141352
H5    H     H_    0.656904 0.645545 0.156748 0.148242
H6    H     H_    0.395020 0.190470 0.968875 0.134980
H7    H     H_    0.427901 0.071627 0.146086 0.153763
H8    H     H_    0.460842 0.314961 0.238946 0.167770
H9    H     H_    0.045964 0.929216 0.388853 0.224328
H10   H     H_    0.400143 0.538739 0.800580 0.129344
H11   H     H_    0.667717 0.812275 0.032604 0.132765
H12   H     H_    0.844549 0.502624 0.597374 0.143694
H13   H     H_    0.186226 0.524646 0.336134 0.132584
H14   H     H_    0.859263 0.323705 0.653520 0.141386
H15   H     H_    0.767359 0.159208 0.643511 0.183276
H16   H     H_    0.414385 0.263825 0.475841 0.116403
H17   H     H_    0.836816 0.938047 0.384030 0.180823
H18   H     H_    0.722988 0.642689 0.516766 0.193918
H19   H     H_    0.304988 0.384146 0.410470 0.122680
H20   H     H_    0.163746 0.694415 0.306353 0.162783
H21   H     H_    0.845873 0.842315 0.509405 0.258742
H22   H     H_    0.152926 0.911433 0.662533 0.120666
H23   H     H_    0.146243 0.164310 0.448787 0.198142
H24   H     H_    0.091441 0.119348 0.348929 0.128743
H25   H     H_    0.880393 0.118351 0.351809 0.051110
N1    N     N_R   0.585360 0.204570 0.560800 -0.191767
N2    N     N_R   0.414550 0.795430 0.439160 -0.250804
O1    O     O_R   0.455060 0.022100 0.338110 -0.561809
O2    O     O_R   0.512640 0.160150 0.379180 -0.583957
O3    O     O_R   0.288900 0.930980 0.479450 -0.544908
O4    O     O_R   0.346480 0.069030 0.520520 -0.609950
O5    O     O_R   0.487360 0.839850 0.620820 -0.559716
O6    O     O_R   0.544940 0.977900 0.661890 -0.577359
O7    O     O_R   0.653520 0.930970 0.479480 -0.553096
O8    O     O_R   0.711100 0.069020 0.520550 -0.528441
O9    O     O_3   0.932722 0.183012 0.460511 -0.523834
C47   C     C_3   0.925036 0.276657 0.377033 -0.270260
H26   H     H_    0.831579 0.274237 0.324134 0.173773
H27   H     H_    0.008450 0.298499 0.336530 0.128887
H28   H     H_    0.928504 0.336135 0.405085 0.203266
O10   O     O_3   0.945308 0.043880 0.648727 -0.563554
C48   C     C_3   0.983789 0.013448 0.754455 -0.292525
H29   H     H_    0.083075 0.991630 0.780967 0.132146
H30   H     H_    0.912154 0.951115 0.795230 0.200714
H31   H     H_    0.985865 0.078599 0.774012 0.177228
C49   C     C_1   0.656665 0.955925 0.852687 0.247027
N3    N     N_1   0.701532 0.039477 0.836820 -0.323412
C50   C     C_1   0.633069 0.452913 0.231663 0.202254
N4    N     N_1   0.681049 0.407867 0.313520 -0.301174
O11   O     O_3   0.597323 0.725608 0.554636 -0.564000
C51   C     C_3   0.569485 0.654811 0.650210 -0.260822
H32   H     H_    0.595664 0.579742 0.668523 0.154677
H33   H     H_    0.465462 0.645257 0.655574 0.130357
H34   H     H_    0.629617 0.681992 0.708812 0.205010
O12   O     O_3   0.232364 0.871258 0.328785 -0.551050
C52   C     C_3   0.198471 0.901889 0.222833 -0.367449
H35   H     H_    0.176037 0.980673 0.189851 0.189905
H36   H     H_    0.109319 0.853664 0.202741 0.160065
H37   H     H_    0.279214 0.901985 0.187908 0.149888
O13   O     O_3   0.890071 0.873178 0.671852 -0.606620
C53   C     C_3   0.967489 0.797090 0.736905 -0.398657
H38   H     H_    0.008793 0.769792 0.692992 0.171883
H39   H     H_    0.903909 0.731372 0.782595 0.201994
H40   H     H_    0.043539 0.821980 0.791093 0.158441

loop_
_geom_bond_atom_site_label_1
_geom_bond_atom_site_label_2
_ccdc_geom_bond_type
C24   H4    S    
C45   H23   S    
C1    O2    A    
C39   H20   S    
C19   C20   A    
C16   H3    S    
C52   H36   S    
C7    C8    A    
C45   C46   S    
Cu2   O6    S    
C7    C11   A    
C30   C35   A    
C1    C5    S    
Cu2   O4    S    
C28   C29   A    
C19   C21   A    
Cu1   O1    S    
C21   H11   S    
C53   H39   S    
C30   C31   A    
C15   C16   A    
C6    C22   A    
C12   O4    A    
C29   C33   A    
O13   C53   S    
C42   H9    S    
C18   C19   A    
C42   C46   S    
Cu1   O7    S    
C20   C24   A    
C18   H5    S    
C51   H32   S    
C12   O3    A    
C44   H22   S    
C23   O5    A    
C27   N1    A    
C9    C10   A    
C2    C34   S    
C43   H21   S    
C21   C22   A    
C45   H24   S    
C22   C49   S    
Cu1   O5    S    
C8    H7    S    
C52   H35   S    
C44   C46   S    
C4    C45   S    
C47   H27   S    
C25   C29   A    
C3    C44   S    
Cu2   N1    S    
O9    C47   S    
C38   C41   A    
C12   C46   S    
C10   C11   A    
C53   H40   S    
C39   C40   A    
C9    H8    S    
C25   C26   A    
C47   H26   S    
C35   C36   A    
Cu2   O2    S    
C2    C4    S    
C26   H15   S    
C40   N2    A    
C5    C9    A    
C37   C38   A    
C14   C20   A    
C41   N2    A    
C11   C16   A    
C48   H30   S    
Cu1   Cu2   S    
C4    O9    S    
C35   H19   S    
C2    C43   S    
C43   H17   S    
C6    C24   A    
C50   N4    T    
C17   C18   A    
C17   C50   S    
C4    H25   S    
C51   H33   S    
C33   H12   S    
C15   H10   S    
C34   O8    A    
C36   H13   S    
O12   C52   S    
C48   H31   S    
C32   H18   S    
C47   H28   S    
C44   H2    S    
C36   C37   A    
C23   O6    A    
C14   C15   A    
C1    O1    A    
C31   C32   A    
C10   C13   A    
C5    C8    A    
C31   C38   A    
C3    O13   S    
C7    H6    S    
Cu2   O8    S    
C13   C17   A    
C3    O10   S    
C32   C33   A    
C28   C30   A    
C2    C3    S    
Cu1   N2    S    
C37   C39   A    
C53   H38   S    
C40   O12   S    
C48   H29   S    
C6    C23   S    
C26   N1    A    
C25   H14   S    
C49   N3    T    
C27   H16   S    
C42   H1    S    
C51   H34   S    
O11   C51   S    
C42   C43   S    
C27   C28   A    
C41   O11   S    
C34   O7    A    
Cu1   O3    S    
O10   C48   S    
C13   C14   A    
C52   H37   S    
