data_mof_unit_55509.cif
_audit_creation_date              2013-03-05T16:35:15-0500
_audit_creation_method            fapswitch 2.2
_symmetry_space_group_name_H-M    P1
_symmetry_Int_Tables_number       1
_space_group_crystal_system       triclinic
_cell_length_a                    11.006452
_cell_length_b                    9.047065
_cell_length_c                    8.082136
_cell_angle_alpha                 90.001729
_cell_angle_beta                  91.232929
_cell_angle_gamma                 90.000589
_cell_volume                      804.601151837

loop_
_atom_site_label
_atom_site_type_symbol
_atom_site_description
_atom_site_fract_x
_atom_site_fract_y
_atom_site_fract_z
_atom_type_partial_charge
O1    O     O_R   0.500000 0.288400 0.642760 -0.580917
O2    O     O_R   0.500000 0.288400 0.357240 -0.580917
C1    C     C_R   0.500000 0.221296 0.499998 0.801214
O3    O     O_R   0.317700 0.499990 0.642790 -0.595071
O4    O     O_R   0.317700 0.499990 0.357210 -0.589744
O5    O     O_R   0.682300 0.499990 0.642790 -0.589752
O6    O     O_R   0.682300 0.499990 0.357210 -0.595082
N1    N     N_1   0.500000 0.499970 0.076820 -0.071698
N2    N     N_1   0.500000 0.499970 0.923180 -0.071712
C2    C     C_R   0.260686 0.492759 0.498575 0.821248
C3    C     C_R   0.739307 0.492725 0.501426 0.821164
Cu1   Cu    Cu3+1 0.500000 0.500010 0.669080 0.955674
Cu2   Cu    Cu3+1 0.500000 0.500010 0.330920 0.955676
O7    O     O_R   0.500000 0.711620 0.642810 -0.573723
O8    O     O_R   0.500000 0.711620 0.357190 -0.573754
C4    C     C_R   0.500000 0.778709 0.500001 0.813702
C5    C     C_1   0.500000 0.065750 0.499998 -0.180046
C6    C     C_3   0.076473 0.407235 0.668126 0.335372
C7    C     C_3   0.071223 0.385195 0.343567 0.331464
C8    C     C_3   0.928773 0.385189 0.656422 0.331455
C9    C     C_3   0.923523 0.407238 0.331860 0.335310
C10   C     C_1   0.500000 0.934272 0.500002 -0.177774
C11   C     C_3   0.072264 0.663100 0.483809 0.325163
C12   C     C_3   0.927685 0.663096 0.516241 0.325253
C13   C     C_3   0.122389 0.487800 0.497320 -0.106251
C14   C     C_3   0.877598 0.487788 0.502684 -0.106273
C15   C     C_3   0.122157 0.503823 0.818710 -0.825666
H1    H     H_    0.196905 0.450914 0.890403 0.244087
H2    H     H_    0.175461 0.599363 0.796163 0.245159
H3    H     H_    0.054800 0.542635 0.900934 0.206254
C16   C     C_3   0.131957 0.414103 0.175635 -0.818324
H4    H     H_    0.222326 0.360703 0.158956 0.253573
H5    H     H_    0.076323 0.357440 0.081000 0.226412
H6    H     H_    0.151501 0.526669 0.142044 0.235531
C17   C     C_3   0.868010 0.414053 0.824355 -0.818364
H7    H     H_    0.777658 0.360603 0.840985 0.253569
H8    H     H_    0.923632 0.357443 0.919025 0.226383
H9    H     H_    0.848380 0.526595 0.857925 0.235570
C18   C     C_3   0.877849 0.503852 0.181296 -0.825802
H10   H     H_    0.803033 0.451008 0.109669 0.244217
H11   H     H_    0.824689 0.599481 0.203916 0.245142
H12   H     H_    0.945188 0.542559 0.098984 0.206249
C19   C     C_3   0.141183 0.255026 0.716334 -0.804630
H13   H     H_    0.116263 0.151720 0.657270 0.204612
H14   H     H_    0.241337 0.260515 0.708002 0.241955
H15   H     H_    0.121007 0.225742 0.846414 0.215850
C20   C     C_3   0.116206 0.217949 0.355792 -0.819633
H16   H     H_    0.211978 0.211522 0.401581 0.221979
H17   H     H_    0.064444 0.137119 0.419059 0.199702
H18   H     H_    0.114475 0.158175 0.234783 0.214606
C21   C     C_3   0.883843 0.217944 0.644132 -0.819854
H19   H     H_    0.935621 0.137240 0.580720 0.199904
H20   H     H_    0.885681 0.158122 0.765108 0.214662
H21   H     H_    0.788056 0.211472 0.598404 0.221965
C22   C     C_3   0.858791 0.255033 0.283643 -0.804353
H22   H     H_    0.883887 0.151665 0.342467 0.204553
H23   H     H_    0.758651 0.260454 0.292325 0.241858
H24   H     H_    0.878732 0.225875 0.153448 0.215801
C23   C     C_3   0.141794 0.783045 0.596120 -0.809087
H25   H     H_    0.117772 0.796557 0.726460 0.205858
H26   H     H_    0.241808 0.770782 0.589858 0.228378
H27   H     H_    0.121672 0.898292 0.557034 0.212974
C24   C     C_3   0.103965 0.735643 0.312841 -0.839702
H28   H     H_    0.085727 0.856476 0.306862 0.218848
H29   H     H_    0.201959 0.725556 0.285706 0.246900
H30   H     H_    0.049219 0.700560 0.207820 0.214378
C25   C     C_3   0.895978 0.735604 0.687230 -0.839599
H31   H     H_    0.797981 0.725547 0.714349 0.246949
H32   H     H_    0.950680 0.700497 0.792248 0.214319
H33   H     H_    0.914271 0.856415 0.693272 0.218805
C26   C     C_3   0.858106 0.783050 0.403975 -0.809236
H34   H     H_    0.877923 0.898314 0.443280 0.213022
H35   H     H_    0.882259 0.796777 0.273714 0.205831
H36   H     H_    0.758100 0.770483 0.409892 0.228414

loop_
_geom_bond_atom_site_label_1
_geom_bond_atom_site_label_2
_geom_bond_distance
_ccdc_geom_bond_type
C18   H12   1.065708 S    
C26   H36   1.108625 S    
O6    C3    1.313434 A    
C9    C14   1.650052 S    
C24   H29   1.109013 S    
N1    Cu2   2.053670 S    
C21   H19   1.064461 S    
O7    C4    1.304077 A    
C15   H2    1.062603 S    
O4    C2    1.316928 A    
O4    Cu2   2.022238 S    
C5    C10   1.189493 T    
C9    C18   1.572026 S    
C11   C12   1.618301 S    
C21   H21   1.111189 S    
C7    C16   1.548046 S    
C26   H34   1.110371 S    
C25   H33   1.112251 S    
C22   H22   1.082245 S    
C16   H5    1.096613 S    
O2    C1    1.303779 A    
C24   H30   1.078074 S    
C9    C22   1.594874 S    
C23   H25   1.098427 S    
C18   H11   1.062489 S    
C22   H23   1.107011 S    
C6    C19   1.594823 S    
C15   H3    1.065695 S    
C11   C23   1.599117 S    
C8    C21   1.594268 S    
C19   H14   1.106952 S    
O5    C3    1.316894 A    
C6    C13   1.649990 S    
C8    C14   1.640940 S    
C2    C13   1.522642 S    
C11   C24   1.575629 S    
C7    C9    1.638550 S    
C12   C14   1.681887 S    
C1    C5    1.407237 S    
C20   H18   1.117347 S    
C6    C8    1.638549 S    
Cu2   O8    1.926180 S    
C19   H13   1.082099 S    
O5    Cu1   2.022237 S    
C7    C13   1.640983 S    
C19   H15   1.111238 S    
C7    C20   1.594441 S    
C23   H26   1.108612 S    
O3    Cu1   2.013145 S    
O8    C4    1.304067 A    
C21   H20   1.117354 S    
O3    C2    1.313433 A    
C25   H31   1.108999 S    
C18   H10   1.105092 S    
C20   H16   1.111165 S    
O6    Cu2   2.013144 S    
C11   C13   1.681954 S    
C16   H6    1.076854 S    
Cu1   Cu2   2.733056 S    
C20   H17   1.064595 S    
C3    C14   1.522565 S    
C22   H24   1.111273 S    
C25   H32   1.077877 S    
C15   H1    1.105097 S    
C26   H35   1.098405 S    
O2    Cu2   1.926239 S    
C17   H9    1.076789 S    
N1    N2    1.241740 T    
C23   H27   1.110388 S    
C4    C10   1.407381 S    
C12   C25   1.575631 S    
C17   H8    1.096538 S    
N2    Cu1   2.053670 S    
C8    C17   1.548121 S    
O1    Cu1   1.926226 S    
C6    C15   1.572000 S    
C16   H4    1.116543 S    
C12   C26   1.599268 S    
Cu1   O7    1.926192 S    
C24   H28   1.112320 S    
O1    C1    1.303769 A    
C17   H7    1.116504 S    
