data_mof_unit_48489.cif
_audit_creation_date              2013-03-05T15:50:44-0500
_audit_creation_method            fapswitch 2.2
_symmetry_space_group_name_H-M    P1
_symmetry_Int_Tables_number       1
_space_group_crystal_system       triclinic
_cell_length_a                    22.835828
_cell_length_b                    7.242735
_cell_length_c                    20.790203
_cell_angle_alpha                 89.960443
_cell_angle_beta                  93.352509
_cell_angle_gamma                 90.049761
_cell_volume                      3432.68510663

loop_
_atom_site_label
_atom_site_type_symbol
_atom_site_description
_atom_site_fract_x
_atom_site_fract_y
_atom_site_fract_z
_atom_type_partial_charge
O1    O     O_R   0.438030 0.494310 0.439340 -0.585098
O2    O     O_R   0.561970 0.994310 0.560660 -0.585762
O3    O     O_R   0.556900 0.822900 0.435960 -0.574097
O4    O     O_R   0.443100 0.322900 0.564040 -0.580606
C1    C     C_R   0.575793 0.655595 0.421154 0.955320
C2    C     C_R   0.424200 0.155386 0.578829 0.959367
O5    O     O_R   0.438170 0.823950 0.431660 -0.598564
O6    O     O_R   0.561830 0.323950 0.568340 -0.599183
O7    O     O_R   0.442390 0.995390 0.556340 -0.585615
O8    O     O_R   0.557610 0.495390 0.443660 -0.584215
C3    C     C_R   0.418420 0.655333 0.415697 0.932585
C4    C     C_R   0.581570 0.155356 0.584315 0.933241
O9    O     O_3   0.501520 0.661170 0.540910 -0.289920
O10   O     O_3   0.498480 0.161170 0.459090 -0.285938
V1    V     V_3+5 0.499720 0.935580 0.492410 1.178628
V2    V     V_3+5 0.500280 0.435580 0.507590 1.174345
C5    C     C_R   0.829534 0.937984 0.856636 -0.175809
C6    C     C_R   0.170425 0.438134 0.143387 -0.189884
C7    C     C_R   0.869871 0.083742 0.864921 -0.155820
C8    C     C_R   0.130115 0.583777 0.135099 -0.154626
C9    C     C_R   0.863214 0.240765 0.825199 -0.133279
C10   C     C_R   0.136777 0.740628 0.174845 -0.140234
C11   C     C_R   0.817637 0.252606 0.776442 -0.032881
C12   C     C_R   0.182337 0.752398 0.223628 -0.034729
C13   C     C_R   0.775728 0.108242 0.770918 0.025115
C14   C     C_R   0.224227 0.608181 0.229144 0.025012
C15   C     C_R   0.782083 0.950351 0.810799 0.218647
C16   C     C_R   0.217862 0.450463 0.189241 0.222095
C17   C     C_R   0.812065 0.405750 0.733706 0.317511
C18   C     C_R   0.187913 0.905329 0.266397 0.317663
C19   C     C_R   0.762366 0.419229 0.690630 -0.282636
C20   C     C_R   0.237602 0.918793 0.309493 -0.273636
C21   C     C_R   0.720178 0.278597 0.686033 0.084090
C22   C     C_R   0.279781 0.778342 0.314065 0.080610
C23   C     C_R   0.727475 0.120615 0.725249 0.049500
C24   C     C_R   0.272474 0.620532 0.274822 0.048046
C25   C     C_R   0.686564 0.974451 0.718679 0.176328
C26   C     C_R   0.313374 0.474526 0.281369 0.177564
C27   C     C_R   0.693907 0.817776 0.758019 -0.221750
C28   C     C_R   0.306015 0.318007 0.242013 -0.221930
C29   C     C_R   0.741031 0.806272 0.803877 -0.183054
C30   C     C_R   0.258892 0.306519 0.196152 -0.192913
C31   C     C_R   0.671690 0.291195 0.641302 -0.177123
C32   C     C_R   0.328275 0.790950 0.358787 -0.172930
C33   C     C_R   0.631132 0.145229 0.633841 -0.142809
C34   C     C_R   0.368834 0.645166 0.366205 -0.144187
C35   C     C_R   0.639152 0.986878 0.672681 -0.242876
C36   C     C_R   0.360796 0.486961 0.327354 -0.239430
H1    H     H_    0.834211 0.816540 0.887025 0.124143
H2    H     H_    0.165740 0.316814 0.112984 0.121664
H3    H     H_    0.893687 0.353843 0.833130 0.178672
H4    H     H_    0.106319 0.853616 0.166918 0.179030
H5    H     H_    0.757730 0.537306 0.658678 0.194692
H6    H     H_    0.242240 0.036709 0.341471 0.198212
H7    H     H_    0.666438 0.412637 0.610993 0.142749
H8    H     H_    0.333537 0.912259 0.389117 0.145507
H9    H     H_    0.608125 0.873695 0.667552 0.139329
H10   H     H_    0.391820 0.373915 0.332458 0.139894
H11   H     H_    0.663129 0.703928 0.753369 0.133862
H12   H     H_    0.336783 0.204276 0.246649 0.133429
H13   H     H_    0.745633 0.683713 0.833672 0.121791
H14   H     H_    0.254279 0.184086 0.166341 0.118376
C37   C     C_3   0.232723 0.313090 0.787813 0.251435
C38   C     C_3   0.743317 0.753013 0.184804 0.270232
C39   C     C_3   0.256925 0.982783 0.809851 -0.496364
C40   C     C_3   0.762978 0.426818 0.216320 -0.428193
C41   C     C_3   0.308176 0.003355 0.764117 -0.470221
C42   C     C_3   0.710023 0.442290 0.260010 -0.464957
H15   H     H_    0.318469 0.389285 0.752888 0.138525
H16   H     H_    0.654130 0.775382 0.217656 0.156369
H17   H     H_    0.258981 0.333569 0.834169 0.060886
H18   H     H_    0.718166 0.682832 0.144233 0.073957
H19   H     H_    0.241557 0.837201 0.809571 0.235991
H20   H     H_    0.794902 0.324344 0.237097 0.260696
H21   H     H_    0.273478 0.013175 0.860159 0.180199
H22   H     H_    0.747240 0.374358 0.168142 0.237816
H23   H     H_    0.347168 0.062513 0.791415 0.187038
H24   H     H_    0.668423 0.420703 0.230328 0.198801
H25   H     H_    0.321003 0.864315 0.747030 0.183550
H26   H     H_    0.712907 0.330355 0.296777 0.223476
C43   C     C_1   0.378188 0.146148 0.624017 -0.247402
C44   C     C_1   0.621665 0.647162 0.375785 -0.243098
C45   C     C_3   0.205260 0.114507 0.789283 0.005154
C46   C     C_3   0.793639 0.617125 0.209262 -0.057150
C47   C     C_3   0.277016 0.324894 0.732930 -0.467031
C48   C     C_3   0.699878 0.782963 0.239126 -0.454549
C49   C     C_3   0.290211 0.129978 0.705803 0.159988
C50   C     C_3   0.709042 0.634818 0.293187 0.122218
C51   C     C_3   0.232672 0.046150 0.672497 0.097271
C52   C     C_3   0.770817 0.662449 0.328989 0.103060
C53   C     C_3   0.181525 0.052765 0.720292 0.070391
C54   C     C_3   0.819708 0.670381 0.278453 0.111798
C55   C     C_1   0.338998 0.138270 0.661070 0.062785
C56   C     C_1   0.660644 0.640798 0.338439 0.092059
C57   C     C_1   0.158730 0.097405 0.836561 0.117381
C58   C     C_1   0.840724 0.597346 0.162767 0.136634
C59   C     C_1   0.120780 0.085017 0.874987 -0.159471
C60   C     C_1   0.878994 0.584435 0.124755 -0.166289
H27   H     H_    0.165905 0.908719 0.725133 0.174191
H28   H     H_    0.852433 0.561668 0.293057 0.118250
H29   H     H_    0.260845 0.414924 0.692731 0.257737
H30   H     H_    0.705460 0.923694 0.259687 0.237884
H31   H     H_    0.242386 0.897628 0.663849 0.104051
H32   H     H_    0.779090 0.535897 0.358723 0.100848
O11   O     O_R   0.942420 0.735670 0.056390 -0.567885
O12   O     O_R   0.057580 0.235670 0.943610 -0.569527
O13   O     O_R   0.061840 0.404850 0.068350 -0.586438
O14   O     O_R   0.938160 0.904850 0.931650 -0.584867
C61   C     C_R   0.081424 0.573610 0.084501 0.935628
C62   C     C_R   0.918572 0.073586 0.915507 0.947741
O15   O     O_R   0.943100 0.406010 0.064050 -0.573413
O16   O     O_R   0.056900 0.906010 0.935950 -0.571831
O17   O     O_R   0.938020 0.234710 0.939330 -0.600197
O18   O     O_R   0.061980 0.734710 0.060670 -0.602611
C63   C     C_R   0.924369 0.574463 0.078857 0.938323
C64   C     C_R   0.075613 0.074650 0.921130 0.936429
O19   O     O_3   0.998500 0.567790 0.959120 -0.271805
O20   O     O_3   0.001500 0.067790 0.040880 -0.275455
V3    V     V_3+5 0.000280 0.293330 0.007580 1.228465
V4    V     V_3+5 0.999720 0.793330 0.992420 1.230781
N1    N     N_R   0.130055 0.160368 0.696462 0.280699
O21   O     O_R   0.078023 0.087623 0.697920 -0.277968
O22   O     O_R   0.135332 0.321064 0.669520 -0.230548
N2    N     N_R   0.851512 0.846951 0.278856 0.291747
O23   O     O_R   0.908565 0.847284 0.284287 -0.285233
O24   O     O_R   0.823858 0.003869 0.278736 -0.338014
N3    N     N_R   0.215468 0.124067 0.608707 0.275291
O25   O     O_R   0.239475 0.272978 0.587041 -0.352687
O26   O     O_R   0.176673 0.037374 0.571623 -0.265951
N4    N     N_R   0.774523 0.818107 0.374660 0.273819
O27   O     O_R   0.733844 0.943655 0.375785 -0.390018
O28   O     O_R   0.819152 0.828247 0.416388 -0.281751
N5    N     N_R   0.188521 0.461193 0.784638 0.256566
O29   O     O_R   0.157166 0.490499 0.833901 -0.400732
O30   O     O_R   0.187570 0.584910 0.739288 -0.390787
N6    N     N_R   0.761985 0.931005 0.158582 0.250050
O31   O     O_R   0.816596 0.967473 0.149007 -0.365047
O32   O     O_R   0.721864 0.042419 0.134290 -0.439224
N7    N     N_R   0.857562 0.542791 0.730504 0.241740
O33   O     O_R   0.844278 0.710438 0.712518 -0.362072
O34   O     O_R   0.912241 0.492039 0.731065 -0.310210
N8    N     N_R   0.142430 0.042153 0.269608 0.242300
O35   O     O_R   0.155729 0.209760 0.287632 -0.360856
O36   O     O_R   0.087743 0.991167 0.269007 -0.315880

loop_
_geom_bond_atom_site_label_1
_geom_bond_atom_site_label_2
_geom_bond_distance
_ccdc_geom_bond_type
C42   H26   1.113220 S    
C40   C42   1.558450 S    
C38   N6    1.471751 S    
C44   C56   1.215814 T    
O12   V3    1.964831 S    
O14   V4    2.004411 S    
O1    C3    1.332913 A    
C29   H13   1.083739 S    
O2    C4    1.332988 A    
C2    O7    1.326004 A    
C47   H29   1.106159 S    
C27   C29   1.397860 A    
O5    C3    1.336819 A    
C54   H28   1.115682 S    
C28   H12   1.083712 S    
C11   C17   1.421808 A    
N2    O24   1.300590 A    
C23   C25   1.412695 A    
C12   C14   1.417041 A    
C54   N2    1.469928 S    
C48   C50   1.558686 S    
C39   C45   1.558014 S    
O16   C64   1.335431 A    
C40   H20   1.110199 S    
C39   H19   1.110909 S    
O15   V3    1.982885 S    
C46   C58   1.494332 S    
O13   V3    2.004130 S    
C32   H8    1.084303 S    
O20   V3    1.773343 S    
C38   C46   1.575006 S    
C5    C7    1.404500 A    
O17   V3    1.994709 S    
C58   C60   1.215752 T    
C39   C41   1.557438 S    
C41   H23   1.113122 S    
C19   C21   1.400858 A    
O11   V4    1.963959 S    
C51   C53   1.577901 S    
C30   H14   1.083745 S    
C26   C36   1.404891 A    
C33   C35   1.408097 A    
C27   H11   1.083705 S    
O6    V2    2.004335 S    
C2    C43   1.451313 S    
C51   H31   1.115355 S    
O13   C61   1.337454 A    
C20   H6    1.083978 S    
C32   C34   1.407573 A    
C50   C56   1.493397 S    
C47   C49   1.556774 S    
C42   H24   1.113105 S    
C17   N7    1.440577 S    
C34   C36   1.408059 A    
C38   C48   1.561507 S    
C5    C15   1.403412 A    
C6    C16   1.403355 A    
N6    O32   1.300855 A    
O19   V4    1.774179 S    
C5    H1    1.084320 S    
O16   V4    1.981281 S    
C4    C33   1.486689 S    
O5    V1    2.004055 S    
C37   C45   1.569572 S    
C20   C22   1.400870 A    
O4    V2    1.981018 S    
N4    O28   1.301223 A    
N3    O26   1.301280 A    
H15   C47   1.113243 S    
C35   H9    1.084265 S    
C43   C55   1.215777 T    
C15   C29   1.403993 A    
C52   C54   1.578193 S    
O6    C4    1.336954 A    
C45   C57   1.494066 S    
C41   H25   1.113235 S    
O1    V2    1.994833 S    
O18   V4    1.994814 S    
C19   H5    1.083967 S    
C59   C64   1.450956 S    
O2    V1    1.994724 S    
C31   C33   1.407556 A    
C62   O17   1.333625 A    
C52   H32   1.115270 S    
N1    O21   1.301314 A    
C61   O18   1.333576 A    
C13   C23   1.414701 A    
C14   C24   1.414677 A    
C37   H17   1.114822 S    
C9    C11   1.412359 A    
N5    O29   1.301177 A    
C42   C50   1.556879 S    
C10   C12   1.412393 A    
O4    C2    1.329247 A    
C25   C35   1.404932 A    
C8    C10   1.408134 A    
N3    O25   1.301470 A    
H16   C48   1.113130 S    
C37   N5    1.472354 S    
C9    H3    1.080725 S    
N8    O36   1.301336 A    
O3    V1    1.982621 S    
C6    H2    1.084324 S    
C10   H4    1.080735 S    
C51   N3    1.473129 S    
C7    C62   1.487119 S    
C31   H7    1.084292 S    
C22   C32   1.406667 A    
C16   C30   1.403995 A    
C7    C9    1.408125 A    
O10   V1    1.773837 S    
C41   C49   1.555678 S    
O11   C63   1.331259 A    
C50   C52   1.568750 S    
N6    O31   1.301172 A    
O3    C1    1.328975 A    
C18   N8    1.440579 S    
N7    O33   1.301118 A    
C57   C59   1.215725 T    
C36   H10   1.084272 S    
C13   C15   1.414623 A    
C45   C53   1.568633 S    
C14   C16   1.414612 A    
C39   H21   1.113198 S    
C24   C26   1.412719 A    
N4    O27   1.301677 A    
O7    V1    1.968107 S    
C1    O8    1.326217 A    
C17   C19   1.407408 A    
O8    V2    1.967201 S    
C18   C20   1.407417 A    
C1    C44   1.451378 S    
N7    O34   1.301325 A    
C60   C63   1.450979 S    
C26   C28   1.402749 A    
C49   C55   1.493552 S    
C28   C30   1.397829 A    
C21   C23   1.408866 A    
C22   C24   1.408864 A    
O14   C62   1.337581 A    
C6    C8    1.404504 A    
C38   H18   1.114958 S    
C12   C18   1.421826 A    
N1    O22   1.299860 A    
C40   C46   1.556168 S    
C8    C61   1.487106 S    
C52   N4    1.473664 S    
C11   C13   1.417019 A    
C25   C27   1.402760 A    
C53   N1    1.472153 S    
O9    V2    1.774672 S    
O12   C64   1.331244 A    
N5    O30   1.299533 A    
C49   C51   1.570778 S    
N8    O35   1.301135 A    
C3    C34   1.486605 S    
O15   C63   1.335323 A    
C46   C54   1.572476 S    
C53   H27   1.108700 S    
C21   C31   1.406694 A    
C37   C47   1.570664 S    
C40   H22   1.111296 S    
N2    O23   1.301137 A    
C48   H30   1.109904 S    
