data_mof_unit_24517.cif
_audit_creation_date              2012-12-10T18:11:47-0500
_audit_creation_method            fapswitch 2.2
_symmetry_space_group_name_H-M    P1
_symmetry_Int_Tables_number       1
_space_group_crystal_system       triclinic
_cell_length_a                    10.473942
_cell_length_b                    12.707684
_cell_length_c                    13.0937
_cell_angle_alpha                 81.930489
_cell_angle_beta                  91.821402
_cell_angle_gamma                 101.615253
_cell_volume                      1690.16284594

loop_
_atom_site_label
_atom_site_type_symbol
_atom_type_description
_atom_site_fract_x
_atom_site_fract_y
_atom_site_fract_z
_atom_type_partial_charge
C1    C     C_R   0.489400 0.439029 0.691109 0.840884
C2    C     C_R   0.501620 0.447321 0.974341 0.086498
C3    C     C_R   0.547454 0.464885 0.872294 0.097907
C4    C     C_R   0.741818 0.500087 0.500367 0.842410
C5    C     C_R   0.546399 0.528433 0.037866 0.083773
C6    C     C_R   0.650353 0.616128 0.005039 0.183963
C7    C     C_R   0.707126 0.622930 0.908984 -0.267854
C8    C     C_R   0.656461 0.547982 0.843322 -0.215707
C9    C     C_R   0.489334 0.525287 0.132944 -0.255637
C10   C     C_R   0.646941 0.683037 0.168962 -0.202671
C11   C     C_R   0.481536 0.399661 0.801117 -0.109485
C12   C     C_3   0.065751 0.598205 0.517410 -0.131879
C13   C     C_R   0.327983 0.094121 0.338087 -0.312655
C14   C     C_R   0.631774 0.789305 0.644647 0.035447
C15   C     C_R   0.616751 0.872019 0.698521 -0.254027
C16   C     C_R   0.516121 0.560732 0.309094 0.849321
C17   C     C_R   0.543973 0.946798 0.654285 -0.201211
C18   C     C_R   0.499513 0.947468 0.550940 0.028553
C19   C     C_R   0.498769 0.851792 0.507578 0.228674
C20   C     C_R   0.450324 0.034387 0.490832 -0.021509
C21   C     C_R   0.377976 0.012570 0.399701 0.152244
C22   C     C_R   0.359571 0.910052 0.368602 -0.277508
C23   C     C_3   0.966935 0.521217 0.592459 -0.187168
C24   C     C_R   0.422002 0.831783 0.420337 -0.218004
C25   C     C_R   0.479937 0.144251 0.510120 0.281208
C26   C     C_R   0.356355 0.198945 0.362350 -0.026528
C27   C     C_R   0.258174 0.499917 0.499710 0.851147
C28   C     C_3   0.934224 0.401896 0.482797 -0.132818
C29   C     C_3   0.026593 0.423494 0.574972 -0.175769
C30   C     C_3   0.122685 0.500252 0.499886 0.030725
C31   C     C_3   0.033009 0.478885 0.407749 -0.183543
C32   C     C_3   0.973367 0.576606 0.425237 -0.176541
C33   C     C_3   0.569731 0.178216 0.597078 -0.871822
C34   C     C_3   0.877287 0.499825 0.500309 0.035238
C35   C     C_R   0.697826 0.694310 0.070056 -0.212548
C36   C     C_R   0.545131 0.596020 0.200898 -0.048415
C37   C     C_R   0.392466 0.304070 0.835689 -0.202619
C38   C     C_R   0.362018 0.277478 0.939687 -0.153217
C39   C     C_R   0.413067 0.349401 0.008457 -0.189043
H1    H     H_    0.053079 0.361265 0.635728 0.135005
H2    H     H_    0.682532 0.727542 0.680001 0.132426
H3    H     H_    0.876775 0.321676 0.468805 0.149592
H4    H     H_    0.519368 0.999437 0.704417 0.161907
H5    H     H_    0.655490 0.875015 0.775953 0.150032
H6    H     H_    0.407130 0.755764 0.391370 0.209377
H7    H     H_    0.064691 0.461632 0.332758 0.130647
H8    H     H_    0.946837 0.638814 0.364471 0.133548
H9    H     H_    0.123213 0.678435 0.531382 0.153130
H10   H     H_    0.935154 0.538467 0.667430 0.127693
H11   H     H_    0.691699 0.738025 0.221967 0.155433
H12   H     H_    0.404607 0.464703 0.158678 0.135419
H13   H     H_    0.789346 0.687126 0.883905 0.139182
H14   H     H_    0.777932 0.760917 0.046208 0.133009
H15   H     H_    0.614791 0.262491 0.587759 0.290423
H16   H     H_    0.514467 0.164955 0.670124 0.217054
H17   H     H_    0.655735 0.139185 0.601949 0.212733
H18   H     H_    0.342855 0.251953 0.781901 0.155145
H19   H     H_    0.384159 0.325030 0.087978 0.127224
H20   H     H_    0.294067 0.203225 0.966435 0.137517
H21   H     H_    0.704036 0.554775 0.769858 0.145980
H22   H     H_    0.319236 0.262773 0.314501 0.133475
H23   H     H_    0.302019 0.891987 0.300629 0.153230
H24   H     H_    0.270375 0.077496 0.269825 0.145410
N1    N     N_R   0.432930 0.222190 0.444670 -0.099262
N2    N     N_R   0.566370 0.776980 0.554790 -0.134675
O1    O     O_R   0.467970 0.366730 0.627150 -0.621718
O2    O     O_R   0.510820 0.544830 0.662520 -0.607090
O3    O     O_R   0.664630 0.410960 0.482340 -0.635280
O4    O     O_R   0.707470 0.589060 0.517710 -0.624520
O5    O     O_R   0.489180 0.455170 0.337480 -0.608606
O6    O     O_R   0.532030 0.633270 0.372850 -0.639725
O7    O     O_R   0.292530 0.410940 0.482290 -0.614016
O8    O     O_R   0.335370 0.589040 0.517660 -0.629999
Zn1   Zn    Zn3+2 0.471390 0.381080 0.476380 0.927489
Zn2   Zn    Zn3+2 0.528610 0.618920 0.523620 0.922993

loop_
_geom_bond_atom_site_label_1
_geom_bond_atom_site_label_2
_ccdc_geom_bond_type
C33   H16   S    
C35   H14   S    
C9    H12   S    
C12   H9    S    
C7    C8    A    
C12   C23   S    
C37   C38   A    
C24   H6    S    
C23   C29   S    
C28   C29   S    
C26   H22   S    
C7    H13   S    
C2    C3    A    
C5    C6    A    
C23   H10   S    
C20   C25   A    
O3    Zn1   S    
O1    Zn1   S    
C6    C35   A    
C18   C19   A    
C11   C37   A    
C26   N1    A    
C2    C39   A    
C31   H7    S    
C1    C11   S    
O5    Zn1   S    
C9    C36   A    
O4    Zn2   S    
C10   C35   A    
C33   H17   S    
C28   C34   S    
C21   C22   A    
C12   C32   S    
C27   C30   S    
O8    Zn2   S    
C16   O6    A    
C4    O4    A    
C1    O1    A    
C38   C39   A    
C4    C34   S    
C16   O5    A    
O7    Zn1   S    
C3    C8    A    
C4    O3    A    
C39   H19   S    
C25   N1    A    
C32   C34   S    
C17   H4    S    
C5    C9    A    
C29   C30   S    
C22   H23   S    
C31   C32   S    
C13   H24   S    
C23   C34   S    
C17   C18   A    
C13   C21   A    
C14   H2    S    
C32   H8    S    
C22   C24   A    
C13   C26   A    
C2    C5    A    
O2    Zn2   S    
C10   H11   S    
C33   H15   S    
C15   C17   A    
C12   C30   S    
C28   C31   S    
C15   H5    S    
C6    C7    A    
N2    Zn2   S    
C19   C24   A    
C16   C36   S    
O6    Zn2   S    
C30   C31   S    
C29   H1    S    
C28   H3    S    
C1    O2    A    
C14   N2    A    
C19   N2    A    
C18   C20   A    
C37   H18   S    
C3    C11   A    
C38   H20   S    
C20   C21   A    
N1    Zn1   S    
C14   C15   A    
C10   C36   A    
C27   O8    A    
C8    H21   S    
C27   O7    A    
C25   C33   S    
