data_mof_unit_27666.cif
_audit_creation_date              2013-03-05T16:30:28-0500
_audit_creation_method            fapswitch 2.2
_symmetry_space_group_name_H-M    P1
_symmetry_Int_Tables_number       1
_space_group_crystal_system       triclinic
_cell_length_a                    8.624107
_cell_length_b                    15.012894
_cell_length_c                    14.161205
_cell_angle_alpha                 89.748219
_cell_angle_beta                  97.422514
_cell_angle_gamma                 89.86366
_cell_volume                      1818.10155699

loop_
_atom_site_label
_atom_site_type_symbol
_atom_site_description
_atom_site_fract_x
_atom_site_fract_y
_atom_site_fract_z
_atom_type_partial_charge
O1    O     O_R   0.500010 0.369070 0.579480 -0.639444
O2    O     O_R   0.499990 0.630930 0.420520 -0.633015
O3    O     O_R   0.500010 0.369060 0.420520 -0.602773
O4    O     O_R   0.499990 0.630940 0.579480 -0.615858
C1    C     C_R   0.506350 0.327872 0.500706 0.864295
C2    C     C_R   0.501341 0.671720 0.499890 0.878519
O5    O     O_R   0.271750 0.500000 0.560890 -0.584238
O6    O     O_R   0.728250 0.500000 0.439110 -0.599307
O7    O     O_R   0.271750 0.499990 0.401930 -0.605607
O8    O     O_R   0.728250 0.500010 0.598070 -0.591934
C3    C     C_R   0.201778 0.498830 0.476176 0.987043
C4    C     C_R   0.798240 0.500681 0.523887 0.936139
Zn1   Zn    Zn3+2 0.500000 0.500010 0.606140 0.996155
Zn2   Zn    Zn3+2 0.500000 0.499990 0.393860 0.982150
C5    C     C_2   0.040545 0.483671 0.466379 0.055323
C6    C     C_2   0.959668 0.514822 0.534153 0.047140
C7    C     C_R   0.584525 0.092848 0.582522 -0.212841
C8    C     C_R   0.384861 0.907073 0.449155 -0.219357
H1    H     H_    0.632606 0.056312 0.645720 0.129397
H2    H     H_    0.288295 0.944199 0.411090 0.136717
C9    C     C_R   0.592913 0.185317 0.582685 -0.001682
C10   C     C_R   0.382041 0.814974 0.445613 -0.006656
C11   C     C_R   0.520416 0.232092 0.501745 -0.067299
C12   C     C_R   0.502738 0.766861 0.499330 -0.047703
C13   C     C_R   0.457593 0.186458 0.419805 -0.179621
C14   C     C_R   0.627859 0.809686 0.552289 -0.227182
H3    H     H_    0.405225 0.221655 0.356576 0.168838
H4    H     H_    0.722106 0.771923 0.592065 0.166487
C15   C     C_R   0.459734 0.094845 0.418626 -0.182144
C16   C     C_R   0.634886 0.901428 0.551134 -0.170247
H5    H     H_    0.414218 0.061278 0.353414 0.130622
H6    H     H_    0.736945 0.933400 0.588713 0.137315
C17   C     C_R   0.518394 0.047522 0.500850 0.109145
C18   C     C_R   0.512393 0.950695 0.500779 0.107584
C19   C     C_R   0.369862 0.465985 0.096106 -0.281350
C20   C     C_R   0.516106 0.577565 0.896543 -0.268364
H7    H     H_    0.268738 0.438462 0.052981 0.155226
H8    H     H_    0.531044 0.640203 0.934120 0.151077
C21   C     C_R   0.375199 0.465517 0.195621 0.010215
C22   C     C_R   0.521637 0.576911 0.798000 0.066069
H9    H     H_    0.278553 0.437670 0.227420 0.167516
H10   H     H_    0.542234 0.638507 0.761927 0.141046
N1    N     N_R   0.500000 0.499980 0.252470 -0.097619
N2    N     N_R   0.500000 0.500020 0.747530 -0.093994
C23   C     C_R   0.621378 0.536433 0.213166 -0.000452
C24   C     C_R   0.470405 0.422549 0.792413 -0.008565
H11   H     H_    0.717494 0.564544 0.259821 0.136690
H12   H     H_    0.450556 0.362595 0.750722 0.146063
C25   C     C_R   0.623664 0.536500 0.113515 -0.077274
C26   C     C_R   0.466422 0.418911 0.891940 -0.074822
C27   C     C_R   0.495275 0.500478 0.053062 0.064969
C28   C     C_R   0.491847 0.498288 0.946057 0.072225
Cl1   Cl    Cl    0.967262 0.409241 0.373752 -0.663250
Cl2   Cl    Cl    0.032629 0.589720 0.626483 -0.656718
C29   C     C_R   0.688138 0.229619 0.664358 0.115860
C30   C     C_R   0.807544 0.289452 0.648275 -0.097260
C31   C     C_R   0.899485 0.329685 0.724847 -0.108662
C32   C     C_R   0.876092 0.308839 0.818148 -0.137727
C33   C     C_R   0.761471 0.247333 0.834955 -0.142462
C34   C     C_R   0.666805 0.208394 0.758657 -0.175708
H13   H     H_    0.829671 0.304792 0.576429 0.124586
H14   H     H_    0.989849 0.376407 0.711817 0.156492
H15   H     H_    0.947859 0.339566 0.877450 0.125124
H16   H     H_    0.746389 0.229560 0.907211 0.144701
H17   H     H_    0.577047 0.161806 0.773157 0.138315
C35   C     C_R   0.255667 0.769260 0.384526 0.085318
C36   C     C_R   0.283018 0.738926 0.294492 -0.115761
C37   C     C_R   0.177721 0.680773 0.243671 -0.112622
C38   C     C_R   0.042856 0.654773 0.281270 -0.079913
C39   C     C_R   0.010136 0.689053 0.368207 -0.155448
C40   C     C_R   0.117359 0.745484 0.420554 -0.143629
H18   H     H_    0.390228 0.756120 0.266438 0.122367
H19   H     H_    0.202906 0.654000 0.176457 0.137668
H20   H     H_    0.965637 0.606783 0.243701 0.153753
H21   H     H_    0.904656 0.669274 0.396600 0.149247
H22   H     H_    0.095583 0.767857 0.490279 0.163647
C41   C     C_R   0.761494 0.572536 0.074173 0.102477
C42   C     C_R   0.856209 0.516376 0.026601 -0.113849
C43   C     C_R   0.980222 0.551653 0.984047 -0.124713
C44   C     C_R   0.011069 0.642945 0.989120 -0.103384
C45   C     C_R   0.917612 0.699179 0.036543 -0.141797
C46   C     C_R   0.793117 0.664218 0.078999 -0.202898
H23   H     H_    0.832844 0.445657 0.021405 0.117565
H24   H     H_    0.051676 0.508333 0.946493 0.133288
H25   H     H_    0.107326 0.670097 0.956275 0.138393
H26   H     H_    0.941624 0.769880 0.040400 0.134571
H27   H     H_    0.720466 0.708514 0.114691 0.128587
C47   C     C_R   0.434802 0.331817 0.935793 0.103988
C48   C     C_R   0.533060 0.298501 0.015205 -0.134866
C49   C     C_R   0.500805 0.216723 0.055935 -0.142904
C50   C     C_R   0.371148 0.167132 0.017473 -0.119628
C51   C     C_R   0.273814 0.199088 0.937975 -0.132184
C52   C     C_R   0.305619 0.280835 0.897085 -0.184268
H28   H     H_    0.635308 0.335238 0.045188 0.131954
H29   H     H_    0.576696 0.191670 0.117187 0.139877
H30   H     H_    0.346371 0.103833 0.049107 0.123131
H31   H     H_    0.173493 0.160598 0.908060 0.136937
H32   H     H_    0.228748 0.304778 0.835708 0.127189

loop_
_geom_bond_atom_site_label_1
_geom_bond_atom_site_label_2
_geom_bond_distance
_ccdc_geom_bond_type
C29   C30   1.407983 A    
C45   C46   1.398704 A    
C49   C50   1.396939 A    
C31   H14   1.082579 S    
C21   H9    1.081306 S    
C41   C42   1.405638 A    
O5    C3    1.271540 A    
C33   H16   1.080402 S    
O1    C1    1.285156 A    
C5    Cl1   1.780638 S    
C19   H7    1.081928 S    
C12   C14   1.392346 A    
C43   H24   1.082272 S    
C5    C6    1.342277 D    
C15   C17   1.398322 A    
O4    Zn1   1.999932 S    
C30   C31   1.398301 A    
C36   H18   1.083733 S    
C48   H28   1.081507 S    
C10   C35   1.473885 S    
C50   H30   1.082307 S    
C3    C5    1.398729 S    
C42   H23   1.082167 S    
C4    C6    1.397761 S    
C37   C38   1.396060 A    
C25   C27   1.418912 A    
C26   C28   1.421728 A    
C39   C40   1.398025 A    
C22   N2    1.360878 A    
C45   H26   1.082190 S    
C20   C28   1.408436 A    
C26   C47   1.485938 S    
C23   H11   1.079043 S    
C35   C36   1.403898 A    
C33   C34   1.398424 A    
C29   C34   1.406635 A    
O2    C2    1.281076 A    
C7    C17   1.401526 A    
N2    C24   1.363334 A    
C51   H31   1.082465 S    
C8    C18   1.404599 A    
C13   C15   1.375661 A    
C24   H12   1.080421 S    
C16   C18   1.403042 A    
C36   C37   1.394708 A    
C20   C22   1.402520 A    
O4    C2    1.281664 A    
C50   C51   1.396910 A    
C9    C29   1.489442 S    
C42   C43   1.397812 A    
C21   N1    1.362592 A    
C37   H19   1.082152 S    
C7    C9    1.390285 A    
C27   C28   1.512292 S    
C19   C21   1.404039 A    
O7    Zn2   1.986452 S    
C44   H25   1.082281 S    
N1    C23   1.362205 A    
C35   C40   1.402891 A    
C1    C11   1.442597 S    
C23   C25   1.413865 A    
O6    C4    1.272264 A    
C2    C12   1.428410 S    
C17   C18   1.454708 S    
C38   H20   1.076897 S    
O7    C3    1.278180 A    
O3    Zn2   1.999932 S    
O8    C4    1.277421 A    
C34   H17   1.083034 S    
C14   C16   1.378902 A    
C9    C11   1.415446 A    
C19   C27   1.407033 A    
C10   C12   1.403891 A    
O1    Zn1   2.003344 S    
C32   H15   1.082402 S    
C47   C52   1.406204 A    
O6    Zn2   1.989854 S    
C8    C10   1.383952 A    
C44   C45   1.398192 A    
O3    C1    1.285460 A    
O8    Zn1   1.986450 S    
C49   H29   1.082361 S    
C13   H3    1.084040 S    
C24   C26   1.415085 A    
C14   H4    1.084454 S    
C20   H8    1.082286 S    
C32   C33   1.396289 A    
C15   H5    1.082702 S    
C16   H6    1.082368 S    
C31   C32   1.396381 A    
C40   H22   1.083304 S    
C41   C46   1.404058 A    
C22   H10   1.080624 S    
C51   C52   1.397536 A    
C7    H1    1.082813 S    
C25   C41   1.479025 S    
C8    H2    1.083492 S    
C11   C13   1.398456 A    
C38   C39   1.398143 A    
O2    Zn2   2.003344 S    
C6    Cl2   1.781448 S    
C43   C44   1.397149 A    
O5    Zn1   1.989856 S    
C47   C48   1.407022 A    
C39   H21   1.082625 S    
C30   H13   1.083016 S    
C48   C49   1.397931 A    
C52   H32   1.082323 S    
Zn1   N2    2.002255 S    
C46   H27   1.083076 S    
Zn2   N1    2.002255 S    
