data_mof_unit_54367.cif
_audit_creation_date              2012-12-10T17:46:15-0500
_audit_creation_method            fapswitch 2.2
_symmetry_space_group_name_H-M    P1
_symmetry_Int_Tables_number       1
_space_group_crystal_system       triclinic
_cell_length_a                    14.131536
_cell_length_b                    10.626577
_cell_length_c                    10.001656
_cell_angle_alpha                 90.619592
_cell_angle_beta                  89.914018
_cell_angle_gamma                 92.495981
_cell_volume                      1500.43377397

loop_
_atom_site_label
_atom_site_type_symbol
_atom_type_description
_atom_site_fract_x
_atom_site_fract_y
_atom_site_fract_z
_atom_type_partial_charge
C1    C     C_R   0.501544 0.261094 0.499372 0.900761
C2    C     C_R   0.424801 0.062923 0.543245 -0.113301
C3    C     C_R   0.422121 0.933268 0.545360 -0.058063
C4    C     C_R   0.329490 0.499653 0.500101 0.910259
C5    C     C_R   0.503092 0.871939 0.501635 -0.179017
C6    C     C_R   0.344190 0.386341 0.136473 0.065850
C7    C     C_R   0.257177 0.383672 0.070486 -0.210236
C8    C     C_R   0.257283 0.377368 0.932374 -0.339938
C9    C     C_R   0.343963 0.384657 0.863678 0.520628
C10   C     C_R   0.424488 0.442673 0.927845 0.089737
C11   C     C_R   0.424791 0.442334 0.071459 -0.122542
C12   C     C_1   0.772060 0.500571 0.499751 -0.159579
C13   C     C_R   0.570039 0.560935 0.074026 0.518706
C14   C     C_R   0.571000 0.559409 0.929604 -0.123056
C15   C     C_R   0.500424 0.739046 0.500576 0.809353
C16   C     C_R   0.670524 0.500717 0.499907 0.837784
C17   C     C_1   0.227952 0.499537 0.500276 -0.161462
C18   C     C_1   0.142630 0.499511 0.500241 0.015880
C19   C     C_1   0.042668 0.499656 0.500066 0.030298
C20   C     C_1   0.957338 0.499911 0.499897 0.028646
C21   C     C_1   0.857379 0.500289 0.499757 0.019696
C22   C     C_2   0.649530 0.624432 0.857144 0.434121
C23   C     C_R   0.669036 0.137996 0.410871 -0.167359
C24   C     C_2   0.333880 0.863752 0.590009 0.440329
C25   C     C_2   0.354284 0.277917 0.224600 0.497528
C26   C     C_R   0.749078 0.075497 0.370320 -0.120947
C27   C     C_R   0.748749 0.944633 0.373216 -0.124411
C28   C     C_R   0.668326 0.875948 0.416444 -0.147174
C29   C     C_R   0.585991 0.937897 0.456816 0.097472
C30   C     C_R   0.586726 0.069579 0.454305 0.076885
C31   C     C_R   0.505198 0.128996 0.497989 -0.158676
H1    H     H_    0.363395 0.113485 0.574513 0.209831
H2    H     H_    0.327876 0.761863 0.586023 0.051861
H3    H     H_    0.663872 0.699217 0.095564 0.334602
H4    H     H_    0.413392 0.217440 0.209641 0.069867
H5    H     H_    0.192717 0.345434 0.881862 0.173143
H6    H     H_    0.672495 0.239731 0.408538 0.135620
H7    H     H_    0.811676 0.128798 0.337313 0.152171
H8    H     H_    0.811118 0.896154 0.342504 0.157083
H9    H     H_    0.671749 0.774540 0.418742 0.155036
H10   H     H_    0.192708 0.353451 0.122019 0.203071
H11   H     H_    0.291429 0.275354 0.722229 0.321809
H12   H     H_    0.635095 0.683786 0.773080 0.105673
N1    N     N_R   0.499190 0.498800 0.142780 -0.125578
N2    N     N_R   0.499160 0.498720 0.857170 -0.145665
O1    O     O_R   0.500000 0.316780 0.614690 -0.530348
O2    O     O_2   0.731679 0.610849 0.889678 -0.560305
O3    O     O_2   0.266094 0.919937 0.631815 -0.559170
O4    O     O_3   0.637742 0.627657 0.148427 -0.718073
O5    O     O_2   0.294062 0.249902 0.308192 -0.601105
O6    O     O_R   0.499990 0.316750 0.385360 -0.647437
O7    O     O_R   0.373720 0.500010 0.614690 -0.571074
O8    O     O_R   0.373710 0.499990 0.385360 -0.592380
O9    O     O_R   0.500010 0.683250 0.614640 -0.650510
O10   O     O_R   0.500000 0.683220 0.385310 -0.572998
O11   O     O_R   0.626290 0.500010 0.614640 -0.606975
O12   O     O_R   0.626280 0.499990 0.385310 -0.544365
O13   O     O_3   0.353983 0.312758 0.750147 -0.726304
Zn1   Zn    Zn3+2 0.500010 0.500020 0.653130 0.978163
Zn2   Zn    Zn3+2 0.499990 0.499980 0.346870 0.996184

loop_
_geom_bond_atom_site_label_1
_geom_bond_atom_site_label_2
_ccdc_geom_bond_type
C8    C9    A    
C16   O11   A    
C6    C7    A    
O7    Zn1   S    
O1    Zn1   S    
H3    O4    S    
C9    C10   A    
C19   C20   T    
C22   H12   S    
O11   Zn1   S    
C16   O12   A    
C26   H7    S    
H11   O13   S    
C10   N2    A    
C22   O2    D    
C26   C27   A    
C11   N1    A    
C23   H6    S    
C13   C14   A    
C1    O6    A    
C14   C22   S    
C3    C24   S    
C29   C30   A    
N1    Zn2   S    
C13   O4    S    
C4    C17   S    
C2    H1    S    
C28   C29   A    
O8    Zn2   S    
C25   H4    S    
C4    O7    A    
C14   N2    A    
C5    C29   A    
O9    Zn1   S    
C7    H10   S    
C30   C31   A    
C4    O8    A    
C1    O1    A    
C5    C15   S    
C6    C25   S    
C7    C8    A    
C10   C11   A    
C28   H9    S    
C24   O3    D    
C23   C30   A    
C12   C16   S    
C1    C31   S    
C20   C21   S    
C17   C18   T    
C18   C19   S    
C8    H5    S    
C23   C26   A    
C6    C11   A    
C25   O5    D    
C9    O13   S    
O12   Zn2   S    
C2    C3    A    
O6    Zn2   S    
C3    C5    A    
O10   Zn2   S    
C15   O9    A    
C12   C21   T    
C13   N1    A    
N2    Zn1   S    
C24   H2    S    
C27   H8    S    
C2    C31   A    
C27   C28   A    
C15   O10   A    
