data_mof_unit_48080.cif
_audit_creation_date              2012-12-10T16:52:05-0500
_audit_creation_method            fapswitch 2.2
_symmetry_space_group_name_H-M    P1
_symmetry_Int_Tables_number       1
_space_group_crystal_system       triclinic
_cell_length_a                    7.809759
_cell_length_b                    8.739337
_cell_length_c                    14.846407
_cell_angle_alpha                 91.916574
_cell_angle_beta                  86.236077
_cell_angle_gamma                 93.676526
_cell_volume                      1008.59716104

loop_
_atom_site_label
_atom_site_type_symbol
_atom_type_description
_atom_site_fract_x
_atom_site_fract_y
_atom_site_fract_z
_atom_type_partial_charge
C1    C     C_R   0.544910 0.793530 0.495331 0.894296
C2    C     C_R   0.455020 0.206268 0.503285 0.923203
C3    C     C_R   0.545946 0.789907 0.956874 -0.052842
C4    C     C_R   0.247490 0.287304 0.051537 -0.100900
C5    C     C_2   0.569787 0.955556 0.494904 -0.329291
C6    C     C_2   0.430340 0.044068 0.500142 -0.306688
C7    C     C_R   0.501758 0.500306 0.672714 0.887660
C8    C     C_R   0.497344 0.499646 0.327285 0.844315
C9    C     C_R   0.388192 0.385342 0.189162 -0.075618
C10   C     C_R   0.553473 0.634327 0.814998 -0.045115
C11   C     C_R   0.488009 0.502186 0.231279 -0.144559
C12   C     C_R   0.498195 0.499871 0.769374 -0.174999
C13   C     C_R   0.564596 0.628096 0.184920 -0.122033
C14   C     C_R   0.399340 0.381081 0.813049 -0.091614
C15   C     C_R   0.525664 0.646128 0.094959 0.071419
C16   C     C_R   0.363038 0.392389 0.907501 0.010501
C17   C     C_R   0.436664 0.522349 0.049399 0.038684
C18   C     C_R   0.435844 0.521967 0.955009 0.021255
C19   C     C_R   0.356530 0.396359 0.097298 -0.000963
C20   C     C_R   0.512885 0.650180 0.908200 0.073283
C21   C     C_R   0.562006 0.786423 0.050060 -0.056976
C22   C     C_R   0.253339 0.283697 0.956427 -0.072722
N1    N     N_2   0.950330 0.457950 0.475660 -0.196395
N2    N     N_2   0.049670 0.542050 0.524340 -0.202087
O1    O     O_R   0.389250 0.738570 0.505970 -0.631599
O2    O     O_R   0.610750 0.261430 0.494030 -0.638984
O3    O     O_R   0.678390 0.711620 0.490370 -0.610687
O4    O     O_R   0.321610 0.288380 0.509630 -0.581013
O5    O     O_R   0.355420 0.513510 0.639950 -0.565669
O6    O     O_R   0.644580 0.486490 0.360050 -0.615473
O7    O     O_R   0.644560 0.486560 0.624350 -0.685149
O8    O     O_R   0.355440 0.513440 0.375650 -0.667291
Zn1   Zn    Zn3+2 0.306940 0.517990 0.510420 1.016299
Zn2   Zn    Zn3+2 0.693060 0.482010 0.489580 0.984645
C23   C     C_1   0.342022 0.246395 0.239033 0.223784
N3    N     N_1   0.306433 0.136175 0.279061 -0.167796
C24   C     C_1   0.658369 0.751233 0.765463 0.251501
N4    N     N_1   0.740635 0.844741 0.725942 -0.139068
C25   C     C_2   0.696130 0.730235 0.229533 0.450494
H1    H     H_    0.672290 0.771605 0.298626 0.079143
O9    O     O_2   0.835085 0.763571 0.190150 -0.507883
C26   C     C_2   0.349936 0.242699 0.757516 0.430860
H2    H     H_    0.441079 0.155451 0.743122 0.109278
O10   O     O_2   0.213429 0.232925 0.721452 -0.521712
C27   C     C_1   0.595138 0.930660 0.099418 0.243300
N5    N     N_1   0.622531 0.045938 0.138043 -0.172413
C28   C     C_1   0.130742 0.179682 0.911879 0.365097
N6    N     N_1   0.031688 0.096328 0.877686 -0.116221
C29   C     C_2   0.539274 0.940575 0.914088 0.401717
H3    H     H_    0.622904 0.038333 0.933692 0.072568
O11   O     O_2   0.432637 0.957659 0.859452 -0.582993
C30   C     C_2   0.114714 0.188125 0.102643 0.414889
H4    H     H_    0.041347 0.236207 0.160186 0.128637
O12   O     O_2   0.089742 0.052225 0.082545 -0.514004
C31   C     C_2   0.753600 0.013344 0.496740 0.596710
H5    H     H_    0.797414 0.082464 0.553892 0.105757
O13   O     O_2   0.855856 0.983308 0.433857 -0.533147
C32   C     C_2   0.247223 0.985795 0.494782 0.610701
H6    H     H_    0.208320 0.914280 0.437531 0.090184
O14   O     O_2   0.140205 0.016930 0.555143 -0.500277
C33   C     C_2   0.007991 0.442545 0.383980 0.709117
H7    H     H_    0.063471 0.541358 0.347651 0.031883
O15   O     O_2   0.982248 0.320559 0.343346 -0.580739
C34   C     C_2   0.994350 0.553414 0.616545 0.732526
H8    H     H_    0.933277 0.454621 0.650768 0.041397
O16   O     O_2   0.030635 0.670267 0.660203 -0.550183

loop_
_geom_bond_atom_site_label_1
_geom_bond_atom_site_label_2
_ccdc_geom_bond_type
C2    O4    A    
N1    N2    D    
C24   N4    T    
C7    O5    A    
C4    C22   A    
C5    C31   S    
C6    C32   S    
C18   C20   A    
N2    Zn1   S    
C8    C11   S    
C14   C26   S    
N1    Zn2   S    
C8    O6    A    
C34   H8    S    
C33   H7    S    
C31   H5    S    
C13   C15   A    
C22   C28   S    
C3    C29   S    
O7    Zn2   S    
C3    C20   A    
C2    O2    A    
C27   N5    T    
O8    Zn1   S    
C1    O1    A    
C11   C13   A    
C9    C11   A    
C2    C6    S    
C26   O10   D    
C4    C30   S    
C10   C24   S    
C1    C5    S    
C10   C12   A    
C16   C18   A    
C17   C19   A    
C30   O12   D    
O4    Zn1   S    
C17   C18   A    
C21   C27   S    
C31   O13   D    
O3    Zn2   S    
C5    C6    D    
C14   C16   A    
C7    C12   S    
C13   C25   S    
C3    C21   A    
C26   H2    S    
O6    Zn2   S    
C32   O14   D    
C8    O8    A    
C28   N6    T    
O5    Zn1   S    
C15   C21   A    
C7    O7    A    
C30   H4    S    
C25   O9    D    
C15   C17   A    
C29   H3    S    
N1    C33   S    
C10   C20   A    
C25   H1    S    
C1    O3    A    
C9    C23   S    
C16   C22   A    
C32   H6    S    
C4    C19   A    
O1    Zn1   S    
O2    Zn2   S    
C33   O15   D    
N2    C34   S    
C9    C19   A    
C12   C14   A    
C29   O11   D    
C23   N3    T    
C34   O16   D    
