data_mof_unit_63218.cif
_audit_creation_date              2013-03-05T16:08:55-0500
_audit_creation_method            fapswitch 2.2
_symmetry_space_group_name_H-M    P1
_symmetry_Int_Tables_number       1
_space_group_crystal_system       triclinic
_cell_length_a                    45.056395
_cell_length_b                    31.968745
_cell_length_c                    31.861082
_cell_angle_alpha                 89.999363
_cell_angle_beta                  134.900477
_cell_angle_gamma                 90.002763
_cell_volume                      32507.2785123

loop_
_atom_site_label
_atom_site_type_symbol
_atom_site_description
_atom_site_fract_x
_atom_site_fract_y
_atom_site_fract_z
_atom_type_partial_charge
O1    O     O_R   0.561630 0.000000 0.596420 -0.617261
O2    O     O_R   0.061630 0.500000 0.596420 -0.617454
O3    O     O_R   0.561580 0.000000 0.526800 -0.585844
O4    O     O_R   0.061580 0.500000 0.526800 -0.586012
C1    C     C_R   0.581322 0.000000 0.581273 0.897332
C2    C     C_R   0.081322 0.499999 0.581273 0.897407
O5    O     O_R   0.500020 0.061610 0.534810 -0.599797
O6    O     O_R   0.500020 0.938390 0.534810 -0.600179
O7    O     O_R   0.000020 0.561610 0.534810 -0.600237
O8    O     O_R   0.000020 0.438390 0.534810 -0.599786
O9    O     O_R   0.499970 0.061600 0.465200 -0.594912
O10   O     O_R   0.499970 0.938400 0.465200 -0.594304
O11   O     O_R   0.999970 0.561600 0.465200 -0.594249
O12   O     O_R   0.999970 0.438400 0.465200 -0.594936
C3    C     C_R   0.499983 0.081234 0.499987 0.891211
C4    C     C_R   0.499985 0.918766 0.499990 0.891181
C5    C     C_R   0.999984 0.581234 0.499989 0.891182
C6    C     C_R   0.999985 0.418766 0.499990 0.891225
Zn1   Zn    Zn3+2 0.500030 0.000000 0.546480 1.089358
Zn2   Zn    Zn3+2 0.000030 0.500000 0.546480 1.089324
Zn3   Zn    Zn3+2 0.499960 0.000000 0.453520 1.118074
Zn4   Zn    Zn3+2 0.999960 0.500000 0.453520 1.118128
O13   O     O_R   0.438410 0.000000 0.473200 -0.603656
O14   O     O_R   0.938410 0.500000 0.473200 -0.603512
O15   O     O_R   0.438360 0.000000 0.403580 -0.600067
O16   O     O_R   0.938360 0.500000 0.403580 -0.599840
C7    C     C_R   0.418719 0.999998 0.418779 0.894913
C8    C     C_R   0.918719 0.500005 0.418779 0.894861
C9    C     C_3   0.536555 0.263927 0.550676 0.140150
C10   C     C_3   0.536155 0.736075 0.551324 0.140152
C11   C     C_3   0.036886 0.763928 0.550160 0.140119
C12   C     C_3   0.033495 0.236070 0.553859 0.140330
C13   C     C_3   0.530601 0.236067 0.505762 0.138757
C14   C     C_3   0.531318 0.763937 0.507372 0.138587
C15   C     C_3   0.030036 0.736068 0.504500 0.138916
C16   C     C_3   0.034485 0.263937 0.515441 0.138031
C17   C     C_1   0.499932 0.125406 0.499912 -0.055671
C18   C     C_1   0.499943 0.874594 0.499925 -0.055675
C19   C     C_1   0.999938 0.625406 0.499918 -0.055656
C20   C     C_1   0.999947 0.374594 0.499929 -0.055594
C21   C     C_1   0.499970 0.374605 0.499918 -0.066081
C22   C     C_1   0.499980 0.625395 0.499927 -0.066091
C23   C     C_1   0.999972 0.874605 0.499923 -0.066123
C24   C     C_1   0.999980 0.125395 0.499923 -0.066073
C25   C     C_3   0.505821 0.236099 0.544655 0.144155
C26   C     C_3   0.504727 0.763898 0.543720 0.144235
C27   C     C_3   0.006727 0.736099 0.545415 0.144229
C28   C     C_3   0.998909 0.263894 0.538194 0.144280
C29   C     C_3   0.499866 0.207878 0.499746 -0.224415
C30   C     C_3   0.499890 0.792121 0.499773 -0.224399
C31   C     C_3   0.999877 0.707879 0.499759 -0.224412
C32   C     C_3   0.999900 0.292122 0.499781 -0.224437
C33   C     C_3   0.469156 0.263949 0.493715 0.143120
C34   C     C_3   0.468488 0.736046 0.492156 0.142796
C35   C     C_3   0.969742 0.763949 0.495005 0.143273
C36   C     C_3   0.965335 0.236048 0.484092 0.141502
C37   C     C_3   0.499893 0.292137 0.499738 -0.222820
C38   C     C_3   0.499917 0.707863 0.499762 -0.222796
C39   C     C_3   0.999903 0.792137 0.499752 -0.222830
C40   C     C_3   0.999921 0.207864 0.499758 -0.222779
C41   C     C_3   0.463198 0.236085 0.448797 0.137899
C42   C     C_3   0.463647 0.763912 0.448200 0.137951
C43   C     C_3   0.962889 0.736086 0.449342 0.137663
C44   C     C_3   0.966323 0.263919 0.445671 0.139286
C45   C     C_3   0.493934 0.263923 0.454816 0.149718
C46   C     C_3   0.495076 0.736078 0.455802 0.149862
C47   C     C_3   0.993050 0.763925 0.454085 0.149640
C48   C     C_3   0.000909 0.236084 0.461333 0.150183
C49   C     C_1   0.499891 0.162694 0.499824 0.254271
C50   C     C_1   0.499909 0.837306 0.499845 0.254240
C51   C     C_1   0.999900 0.662694 0.499834 0.254302
C52   C     C_1   0.999916 0.337306 0.499853 0.254445
C53   C     C_1   0.499935 0.337318 0.499818 0.253461
C54   C     C_1   0.499952 0.662681 0.499835 0.253402
C55   C     C_1   0.999940 0.837319 0.499828 0.253440
C56   C     C_1   0.999954 0.162682 0.499829 0.253343
C57   C     C_3   0.764210 0.965703 0.783595 -0.225658
C58   C     C_3   0.764216 0.034966 0.782347 -0.225449
C59   C     C_3   0.264211 0.464940 0.782199 -0.225184
C60   C     C_3   0.264215 0.534197 0.783743 -0.225789
C61   C     C_3   0.736459 0.965851 0.716216 0.229356
C62   C     C_3   0.736465 0.033394 0.715000 0.229539
C63   C     C_3   0.236459 0.466677 0.714857 0.229244
C64   C     C_3   0.236464 0.534214 0.716364 0.229504
H1    H     H_    0.775888 0.937498 0.811870 0.192940
H2    H     H_    0.775898 0.063748 0.809596 0.193106
H3    H     H_    0.275889 0.436093 0.809323 0.193149
H4    H     H_    0.275898 0.562332 0.812140 0.192878
C65   C     C_1   0.625678 0.999994 0.625441 -0.074881
C66   C     C_1   0.125678 0.500000 0.625441 -0.074749
C67   C     C_1   0.874344 0.999995 0.874097 -0.130550
C68   C     C_1   0.374344 0.499997 0.874097 -0.130560
C69   C     C_3   0.736009 0.000691 0.774630 -0.214843
C70   C     C_3   0.236009 0.499131 0.774629 -0.214840
C71   C     C_3   0.708449 0.999973 0.707126 -0.058614
C72   C     C_3   0.208449 0.500016 0.707128 -0.058629
C73   C     C_3   0.791603 0.999975 0.790346 -0.002587
C74   C     C_3   0.291603 0.500010 0.790347 -0.002590
C75   C     C_3   0.764057 0.999269 0.723515 0.196653
C76   C     C_3   0.264056 0.500879 0.723519 0.196597
C77   C     C_1   0.663093 0.999986 0.662456 0.137739
C78   C     C_1   0.163093 0.500005 0.662457 0.137725
C79   C     C_1   0.836929 0.999987 0.836275 0.090259
C80   C     C_1   0.336929 0.500000 0.836275 0.090238
H5    H     H_    0.724046 0.001279 0.795398 0.192311
H6    H     H_    0.224047 0.498408 0.795395 0.192253
C81   C     C_3   0.236308 0.033010 0.258640 0.121917
C82   C     C_3   0.236318 0.964732 0.254850 0.098978
C83   C     C_3   0.736322 0.535355 0.254735 0.099079
C84   C     C_3   0.736309 0.467086 0.258759 0.121281
C85   C     C_3   0.263541 0.035343 0.246228 0.095628
C86   C     C_3   0.263554 0.967045 0.242433 0.115488
C87   C     C_3   0.763555 0.532907 0.242324 0.115907
C88   C     C_3   0.763540 0.464626 0.246350 0.095790
C89   C     C_1   0.374461 0.000034 0.374662 -0.075592
C90   C     C_1   0.874461 0.499982 0.374661 -0.075659
C91   C     C_1   0.125455 0.000000 0.125819 -0.095377
C92   C     C_1   0.625455 0.500009 0.125820 -0.095392
C93   C     C_3   0.264213 0.997807 0.304300 0.335320
C94   C     C_3   0.764214 0.502355 0.304301 0.335065
C95   C     C_3   0.291848 0.000147 0.292032 -0.203649
C96   C     C_3   0.791847 0.499883 0.292033 -0.203558
C97   C     C_3   0.208042 0.999923 0.209088 -0.200619
C98   C     C_3   0.708042 0.500102 0.209092 -0.200600
C99   C     C_3   0.235656 0.002259 0.196784 0.333310
C100  C     C_3   0.735654 0.497633 0.196797 0.333472
C101  C     C_1   0.337106 0.000079 0.337371 0.237378
C102  C     C_1   0.837105 0.499946 0.337370 0.237497
C103  C     C_1   0.162800 0.999978 0.163480 0.235028
C104  C     C_1   0.662800 0.500039 0.163483 0.234998
O17   O     O_R   0.534760 0.500000 0.596460 -0.589237
O18   O     O_R   0.034760 0.000000 0.596460 -0.589078
O19   O     O_R   0.465190 0.500000 0.526830 -0.605148
O20   O     O_R   0.965190 0.000000 0.526830 -0.605307
C105  C     C_R   0.499938 0.499999 0.581334 0.892180
C106  C     C_R   0.999938 0.000003 0.581334 0.892153
O21   O     O_R   0.534770 0.438380 0.534860 -0.597229
O22   O     O_R   0.534770 0.561620 0.534860 -0.597299
O23   O     O_R   0.034770 0.938380 0.534860 -0.597425
O24   O     O_R   0.034770 0.061620 0.534860 -0.597222
O25   O     O_R   0.465210 0.438380 0.465220 -0.598433
O26   O     O_R   0.465210 0.561620 0.465220 -0.598390
O27   O     O_R   0.965210 0.938380 0.465220 -0.598335
O28   O     O_R   0.965210 0.061620 0.465220 -0.598372
C107  C     C_R   0.499987 0.418774 0.500014 0.884513
C108  C     C_R   0.499989 0.581226 0.500016 0.884498
C109  C     C_R   0.999987 0.918774 0.500015 0.884441
C110  C     C_R   0.999990 0.081226 0.500015 0.884591
Zn5   Zn    Zn3+2 0.546440 0.500000 0.546540 1.099057
Zn6   Zn    Zn3+2 0.046440 0.000000 0.546540 1.098952
Zn7   Zn    Zn3+2 0.453540 0.500000 0.453560 1.089018
Zn8   Zn    Zn3+2 0.953540 0.000000 0.453560 1.089123
O29   O     O_R   0.534790 0.500000 0.473270 -0.608402
O30   O     O_R   0.034790 0.000000 0.473270 -0.608220
O31   O     O_R   0.465230 0.500000 0.403640 -0.602124
O32   O     O_R   0.965230 0.000000 0.403640 -0.602314
C111  C     C_R   0.500079 0.500001 0.418795 0.890210
C112  C     C_R   0.000080 0.000002 0.418795 0.890249
O33   O     O_R   0.000030 0.965220 0.061700 -0.607504
O34   O     O_R   0.000030 0.034780 0.061700 -0.606654
O35   O     O_R   0.500030 0.465220 0.061700 -0.606771
O36   O     O_R   0.500030 0.534780 0.061700 -0.607391
C113  C     C_R   0.000015 0.999999 0.081393 0.885690
C114  C     C_R   0.500016 0.500000 0.081394 0.885677
O37   O     O_R   0.938380 0.965210 0.938430 -0.609135
O38   O     O_R   0.938380 0.034790 0.938430 -0.609724
O39   O     O_R   0.438380 0.465210 0.938430 -0.609813
O40   O     O_R   0.438380 0.534790 0.938430 -0.609052
C115  C     C_R   0.918705 0.999999 0.918768 0.889618
C116  C     C_R   0.418705 0.499999 0.918768 0.889614
Zn9   Zn    Zn3+2 0.999990 0.953540 0.000050 1.052728
Zn10  Zn    Zn3+2 0.999990 0.046460 0.000050 1.052278
Zn11  Zn    Zn3+2 0.499990 0.453540 0.000050 1.051896
Zn12  Zn    Zn3+2 0.499990 0.546460 0.000050 1.053096
O41   O     O_R   0.999950 0.965200 0.938400 -0.607580
O42   O     O_R   0.999950 0.034800 0.938400 -0.607846
O43   O     O_R   0.499950 0.465200 0.938400 -0.608063
O44   O     O_R   0.499950 0.534800 0.938400 -0.607361
O45   O     O_R   0.061600 0.965210 0.061670 -0.596099
O46   O     O_R   0.061600 0.034790 0.061670 -0.596715
O47   O     O_R   0.561600 0.465210 0.061670 -0.596787
O48   O     O_R   0.561600 0.534790 0.061670 -0.596019
C117  C     C_R   0.999913 1.000000 0.918660 0.904735
C118  C     C_R   0.499912 0.500000 0.918659 0.904743
C119  C     C_R   0.081213 0.000001 0.081299 0.887189
C120  C     C_R   0.581213 0.500001 0.081299 0.887198
C121  C     C_3   0.019745 0.035461 0.784308 -0.281952
C122  C     C_3   0.022057 0.965941 0.786591 -0.282209
C123  C     C_3   0.521241 0.534570 0.785786 -0.281676
C124  C     C_3   0.520569 0.465015 0.785123 -0.282561
C125  C     C_3   0.481653 0.533977 0.718236 0.454577
C126  C     C_3   0.480999 0.466360 0.717591 0.454896
C127  C     C_3   0.980216 0.033190 0.716819 0.454683
C128  C     C_3   0.982465 0.965607 0.719038 0.454741
H7    H     H_    0.035425 0.064041 0.811996 0.184001
H8    H     H_    0.039601 0.938454 0.816120 0.184134
H9    H     H_    0.538131 0.562461 0.814670 0.184333
H10   H     H_    0.536918 0.436810 0.813473 0.183776
H11   H     H_    0.927553 0.997594 0.703466 0.172976
H12   H     H_    0.427509 0.500688 0.703418 0.172984
C129  C     C_1   0.499962 0.499991 0.625785 -0.086250
C130  C     C_1   0.999962 0.000024 0.625785 -0.086295
C131  C     C_1   0.999986 0.999998 0.874297 -0.150283
C132  C     C_1   0.499982 0.500000 0.874293 -0.150278
C133  C     C_3   0.539809 0.499609 0.776720 0.265329
C134  C     C_3   0.039794 0.001338 0.776702 0.265372
C135  C     C_3   0.501050 0.499977 0.709777 -0.044079
C136  C     C_3   0.001052 0.000064 0.709780 -0.044055
C137  C     C_3   0.000420 0.000011 0.791884 0.001794
C138  C     C_3   0.500412 0.499992 0.791876 0.001833
C139  C     C_3   0.960265 0.998688 0.724340 -0.342261
C140  C     C_3   0.460239 0.500373 0.724311 -0.342238
C141  C     C_1   0.500352 0.499983 0.663647 0.154139
C142  C     C_1   0.000352 0.000046 0.663648 0.154113
C143  C     C_1   0.000132 0.999999 0.836966 0.042821
C144  C     C_1   0.500126 0.499998 0.836959 0.042837
C145  C     C_3   0.020468 0.966009 0.256651 0.311513
C146  C     C_3   0.018960 0.034823 0.255143 0.311506
C147  C     C_3   0.519636 0.465542 0.255824 0.311719
C148  C     C_3   0.519805 0.534370 0.255987 0.311431
C149  C     C_3   0.480141 0.466021 0.244025 0.387410
C150  C     C_3   0.480309 0.534086 0.244188 0.387526
C151  C     C_3   0.980975 0.965526 0.244858 0.387589
C152  C     C_3   0.979481 0.033575 0.243360 0.387288
H13   H     H_    0.926728 0.998374 0.150869 0.172652
H14   H     H_    0.426712 0.500178 0.150853 0.172656
C153  C     C_1   0.500299 0.500004 0.374586 -0.121335
C154  C     C_1   0.000300 0.000005 0.374586 -0.121274
C155  C     C_1   0.999843 0.999994 0.125652 -0.157471
C156  C     C_1   0.499846 0.499999 0.125656 -0.157483
C157  C     C_3   0.540093 0.499910 0.303142 0.221040
C158  C     C_3   0.040085 0.000863 0.303129 0.221066
C159  C     C_3   0.500624 0.500006 0.292031 -0.104718
C160  C     C_3   0.000625 0.000001 0.292031 -0.104654
C161  C     C_3   0.999556 0.999974 0.208230 -0.097007
C162  C     C_3   0.499559 0.500003 0.208234 -0.097071
C163  C     C_3   0.959273 0.999089 0.195596 -0.462147
C164  C     C_3   0.459265 0.500102 0.195588 -0.462128
C165  C     C_1   0.500533 0.500006 0.337350 0.162759
C166  C     C_1   0.000535 0.000005 0.337350 0.162825
C167  C     C_1   0.999675 0.999984 0.162956 0.118426
C168  C     C_1   0.499679 0.500000 0.162960 0.118414
N1    N     N_R   0.564609 0.222426 0.512447 0.277534
O49   O     O_R   0.587930 0.250047 0.516974 -0.276342
O50   O     O_R   0.571896 0.182823 0.513992 -0.309218
N2    N     N_R   0.566094 0.777585 0.515813 0.277685
O51   O     O_R   0.589942 0.749968 0.521542 -0.275457
O52   O     O_R   0.573548 0.817189 0.517748 -0.308289
N3    N     N_R   0.063409 0.722428 0.509773 0.277688
O53   O     O_R   0.086293 0.750049 0.513331 -0.276800
O54   O     O_R   0.070564 0.682825 0.511021 -0.308443
N4    N     N_R   0.072756 0.277584 0.532807 0.277562
O55   O     O_R   0.099013 0.249966 0.544676 -0.272384
O56   O     O_R   0.080936 0.317188 0.536617 -0.309498
N5    N     N_R   0.277402 0.074551 0.241312 0.244854
O57   O     O_R   0.249881 0.102101 0.201949 -0.285351
O58   O     O_R   0.317104 0.082450 0.276381 -0.331719
N6    N     N_R   0.277388 0.930467 0.232719 0.254231
O59   O     O_R   0.249826 0.905453 0.188675 -0.276374
O60   O     O_R   0.317088 0.922646 0.267643 -0.333185
N7    N     N_R   0.777388 0.569392 0.232463 0.254531
O61   O     O_R   0.749826 0.594333 0.188312 -0.276145
O62   O     O_R   0.817089 0.577197 0.267352 -0.332985
N8    N     N_R   0.777400 0.425363 0.241553 0.244615
O63   O     O_R   0.749880 0.397751 0.202326 -0.285895
O64   O     O_R   0.817101 0.417479 0.276591 -0.333045
N9    N     N_R   0.222458 0.069506 0.268452 0.251063
O65   O     O_R   0.250006 0.094496 0.312539 -0.277923
O66   O     O_R   0.182752 0.077177 0.233715 -0.363410
N10   N     N_R   0.222424 0.925566 0.259793 0.239573
O67   O     O_R   0.249910 0.897897 0.298925 -0.286509
O68   O     O_R   0.182722 0.917857 0.225042 -0.361982
N11   N     N_R   0.722430 0.574593 0.259528 0.239675
O69   O     O_R   0.749920 0.602288 0.298598 -0.285895
O70   O     O_R   0.682728 0.582338 0.224706 -0.361809
N12   N     N_R   0.722456 0.430651 0.268666 0.250735
O71   O     O_R   0.750004 0.405708 0.312822 -0.278277
O72   O     O_R   0.682750 0.422980 0.233933 -0.363456
O73   O     O_3   0.217760 0.003555 0.138417 -0.563496
C169  C     C_3   0.249340 0.008950 0.139442 0.135981
H15   H     H_    0.276147 0.987201 0.170957 0.165610
H16   H     H_    0.261014 0.041663 0.151511 0.192645
C170  C     C_3   0.230939 0.000387 0.077896 -0.646088
H17   H     H_    0.204615 0.022230 0.045308 0.268435
H18   H     H_    0.255389 0.004831 0.077908 0.217300
H19   H     H_    0.219213 0.967712 0.064572 0.273242
O74   O     O_3   0.717784 0.496239 0.138449 -0.563602
C171  C     C_3   0.749365 0.490580 0.139522 0.136277
H20   H     H_    0.760611 0.457718 0.151078 0.193288
H21   H     H_    0.776448 0.511966 0.171440 0.164930
C172  C     C_3   0.731170 0.499532 0.078175 -0.646027
H22   H     H_    0.719890 0.532366 0.065387 0.273784
H23   H     H_    0.755610 0.494848 0.078211 0.217304
H24   H     H_    0.704569 0.478063 0.045181 0.268083
O75   O     O_3   0.281707 0.996708 0.362449 -0.554527
C173  C     C_3   0.249894 0.990464 0.360826 0.154301
H25   H     H_    0.240565 0.957013 0.352197 0.188582
H26   H     H_    0.221669 0.010021 0.326568 0.151266
C174  C     C_3   0.266681 0.002018 0.420714 -0.706766
H27   H     H_    0.276038 0.035480 0.430529 0.277760
H28   H     H_    0.242053 0.996840 0.420206 0.194022
H29   H     H_    0.294316 0.982355 0.456028 0.268957
O76   O     O_3   0.781751 0.503639 0.362471 -0.554347
C175  C     C_3   0.749942 0.509786 0.360872 0.153625
H30   H     H_    0.722034 0.489691 0.327263 0.152204
H31   H     H_    0.740069 0.543085 0.351311 0.187956
C176  C     C_3   0.767047 0.499064 0.421169 -0.706091
H32   H     H_    0.794356 0.519301 0.455828 0.269006
H33   H     H_    0.742399 0.504112 0.420648 0.193997
H34   H     H_    0.776990 0.465779 0.431966 0.277488
O77   O     O_3   0.461924 0.569321 0.680887 -0.580593
C177  C     C_3   0.447075 0.595464 0.698451 0.098229
H35   H     H_    0.473325 0.606606 0.744766 0.151082
H36   H     H_    0.423569 0.578879 0.694724 0.156828
C178  C     C_3   0.425963 0.633509 0.658051 -0.652385
H37   H     H_    0.399212 0.623522 0.611424 0.267708
H38   H     H_    0.414121 0.654380 0.671440 0.212975
H39   H     H_    0.448751 0.651106 0.661234 0.273897
O78   O     O_3   0.460588 0.431397 0.679572 -0.580513
C179  C     C_3   0.445252 0.405544 0.696657 0.098106
H40   H     H_    0.422082 0.422577 0.693278 0.156805
H41   H     H_    0.471290 0.393899 0.742749 0.150838
C180  C     C_3   0.423396 0.367912 0.655527 -0.652316
H42   H     H_    0.445826 0.349883 0.658339 0.273836
H43   H     H_    0.411169 0.347270 0.668539 0.212997
H44   H     H_    0.396830 0.378411 0.609103 0.267692
O79   O     O_3   0.958987 0.067671 0.678001 -0.580908
C181  C     C_3   0.943026 0.093123 0.694478 0.099267
H45   H     H_    0.968770 0.105354 0.740309 0.150986
H46   H     H_    0.920246 0.075531 0.691452 0.157093
C182  C     C_3   0.920312 0.130254 0.652513 -0.654833
H47   H     H_    0.894017 0.119156 0.606325 0.267126
H48   H     H_    0.907581 0.150573 0.665035 0.213822
H49   H     H_    0.942332 0.148827 0.654957 0.273591
O80   O     O_3   0.963571 0.929815 0.682512 -0.580455
C183  C     C_3   0.949364 0.903306 0.700706 0.097479
H50   H     H_    0.925491 0.919319 0.696645 0.156582
H51   H     H_    0.975884 0.892767 0.747262 0.151014
C184  C     C_3   0.929136 0.864792 0.661172 -0.651212
H52   H     H_    0.952313 0.847754 0.664709 0.274060
H53   H     H_    0.917810 0.843626 0.675068 0.212526
H54   H     H_    0.902140 0.874164 0.614333 0.268030
N13   N     N_R   0.583204 0.499191 0.805847 0.241131
O81   O     O_R   0.613388 0.498903 0.863385 -0.336778
O82   O     O_R   0.592087 0.499099 0.774886 -0.339389
N14   N     N_R   0.083166 0.002784 0.805804 0.241200
O83   O     O_R   0.113336 0.003770 0.863328 -0.336869
O84   O     O_R   0.092041 0.003098 0.774835 -0.339120
O85   O     O_3   0.460534 0.430788 0.242477 -0.592928
C185  C     C_3   0.437263 0.409487 0.188281 0.078617
H55   H     H_    0.456297 0.403422 0.178589 0.168330
H56   H     H_    0.408955 0.427879 0.151411 0.161095
C186  C     C_3   0.423013 0.367575 0.191536 -0.691347
H57   H     H_    0.403282 0.372477 0.200133 0.276975
H58   H     H_    0.404389 0.350598 0.148933 0.213395
H59   H     H_    0.450657 0.348295 0.227751 0.263543
O86   O     O_3   0.460881 0.569419 0.242813 -0.592972
C187  C     C_3   0.437690 0.590810 0.188701 0.078364
H60   H     H_    0.409287 0.572546 0.151770 0.161222
H61   H     H_    0.456731 0.596766 0.178996 0.168278
C188  C     C_3   0.423657 0.632800 0.192157 -0.690623
H62   H     H_    0.451401 0.651957 0.228432 0.263496
H63   H     H_    0.405092 0.649847 0.149618 0.213650
H64   H     H_    0.403930 0.628008 0.200778 0.276979
O87   O     O_3   0.962240 0.929826 0.244186 -0.593011
C189  C     C_3   0.939468 0.907975 0.190502 0.077534
H65   H     H_    0.958619 0.902382 0.180909 0.168410
H66   H     H_    0.910713 0.925676 0.153217 0.161364
C190  C     C_3   0.926259 0.865723 0.194796 -0.688001
H67   H     H_    0.906457 0.870135 0.203354 0.277590
H68   H     H_    0.908013 0.848314 0.152591 0.213460
H69   H     H_    0.954371 0.847109 0.231429 0.263319
O88   O     O_3   0.959183 0.068424 0.241104 -0.593212
C191  C     C_3   0.935505 0.089250 0.186486 0.080470
H70   H     H_    0.907550 0.070314 0.149993 0.160962
H71   H     H_    0.954412 0.095651 0.176656 0.168340
C192  C     C_3   0.920464 0.130900 0.188911 -0.696445
H72   H     H_    0.947738 0.150716 0.224722 0.263271
H73   H     H_    0.901508 0.147491 0.145967 0.214091
H74   H     H_    0.900842 0.125652 0.197630 0.276096
N15   N     N_R   0.577147 0.277534 0.607053 0.275751
O89   O     O_R   0.604983 0.249890 0.645724 -0.271858
O90   O     O_R   0.585808 0.317130 0.619083 -0.322999
N16   N     N_R   0.576276 0.722470 0.608392 0.275781
O91   O     O_R   0.603789 0.750116 0.647540 -0.271359
O92   O     O_R   0.584835 0.682875 0.620569 -0.322979
N17   N     N_R   0.077832 0.777535 0.605950 0.275744
O93   O     O_R   0.105911 0.749891 0.644219 -0.270706
O94   O     O_R   0.086568 0.817130 0.617855 -0.323238
N18   N     N_R   0.070662 0.222457 0.613730 0.275659
O95   O     O_R   0.096153 0.250097 0.654806 -0.273991
O96   O     O_R   0.078581 0.182860 0.626498 -0.323235
O97   O     O_3   0.041064 0.931383 0.259044 -0.615851
C193  C     C_3   0.054584 0.903711 0.304284 0.097275
H75   H     H_    0.027530 0.886317 0.290504 0.195216
H76   H     H_    0.071203 0.920242 0.346730 0.184040
C194  C     C_3   0.084750 0.872116 0.315462 -0.737945
H77   H     H_    0.112497 0.888494 0.330012 0.255016
H78   H     H_    0.095365 0.849887 0.350641 0.232623
H79   H     H_    0.068949 0.854308 0.274281 0.270754
O98   O     O_3   0.038018 0.070321 0.256008 -0.615780
C195  C     C_3   0.050314 0.098550 0.300033 0.096897
H80   H     H_    0.067693 0.082762 0.343203 0.184735
H81   H     H_    0.022523 0.114700 0.285569 0.195966
C196  C     C_3   0.079000 0.131487 0.309725 -0.731743
H82   H     H_    0.062366 0.148609 0.267772 0.269875
H83   H     H_    0.088665 0.154130 0.343968 0.233580
H84   H     H_    0.107422 0.116381 0.324865 0.256918
O99   O     O_3   0.539389 0.430426 0.257387 -0.615395
C197  C     C_3   0.552214 0.402435 0.301941 0.095988
H85   H     H_    0.524739 0.385677 0.287699 0.195307
H86   H     H_    0.569182 0.418561 0.344766 0.184274
C198  C     C_3   0.581652 0.370149 0.312422 -0.732695
H87   H     H_    0.609792 0.385878 0.327402 0.256983
H88   H     H_    0.591713 0.347671 0.347053 0.232592
H89   H     H_    0.565469 0.352723 0.270834 0.270323
O100  O     O_3   0.539736 0.569386 0.257724 -0.616068
C199  C     C_3   0.552668 0.597336 0.302379 0.097977
H90   H     H_    0.569464 0.581139 0.345101 0.184186
H91   H     H_    0.525269 0.614287 0.288116 0.195412
C200  C     C_3   0.582368 0.629405 0.313152 -0.737406
H92   H     H_    0.566371 0.646889 0.271673 0.270583
H93   H     H_    0.592500 0.651862 0.347845 0.233124
H94   H     H_    0.610445 0.613478 0.328179 0.254902
O101  O     O_3   0.580792 0.499816 0.361142 -0.607238
C201  C     C_3   0.610885 0.499750 0.358723 0.106208
H95   H     H_    0.608047 0.528063 0.335877 0.184584
H96   H     H_    0.607906 0.471460 0.335724 0.185971
C202  C     C_3   0.654454 0.499641 0.421481 -0.770995
H97   H     H_    0.658679 0.471303 0.445420 0.269937
H98   H     H_    0.678458 0.499587 0.420201 0.208167
H99   H     H_    0.658820 0.527953 0.445570 0.269017
O102  O     O_3   0.080777 0.001746 0.361116 -0.607196
C203  C     C_3   0.110859 0.002412 0.358680 0.106043
H100  H     H_    0.107385 0.030700 0.335264 0.186092
H101  H     H_    0.108509 0.974108 0.336244 0.184399
C204  C     C_3   0.154425 0.003223 0.421427 -0.770810
H102  H     H_    0.159282 0.974939 0.445930 0.268607
H103  H     H_    0.178418 0.003757 0.420133 0.208297
H104  H     H_    0.158167 0.031578 0.444958 0.270319
N19   N     N_R   0.487360 0.277548 0.405112 0.271386
O103  O     O_R   0.482835 0.249917 0.370996 -0.287235
O104  O     O_R   0.485974 0.317148 0.394534 -0.351530
N20   N     N_R   0.489733 0.722456 0.407156 0.271400
O105  O     O_R   0.486053 0.750089 0.373767 -0.286672
O106  O     O_R   0.488598 0.682857 0.396792 -0.351730
N21   N     N_R   0.985485 0.777551 0.403555 0.271417
O107  O     O_R   0.980278 0.749920 0.368870 -0.286407
O108  O     O_R   0.983895 0.817151 0.392806 -0.351179
N22   N     N_R   0.002004 0.222468 0.418797 0.271450
O109  O     O_R   0.002766 0.250105 0.389628 -0.287081
O110  O     O_R   0.002186 0.182870 0.409675 -0.352660
N23   N     N_R   0.422607 0.222453 0.392436 0.279004
O111  O     O_R   0.394771 0.250081 0.353724 -0.266579
O112  O     O_R   0.413929 0.182852 0.380488 -0.304725
N24   N     N_R   0.423525 0.777538 0.391147 0.279004
O113  O     O_R   0.396014 0.749907 0.351962 -0.266719
O114  O     O_R   0.414946 0.817138 0.379044 -0.305251
N25   N     N_R   0.921944 0.722456 0.393565 0.279109
O115  O     O_R   0.893863 0.750085 0.355259 -0.265509
O116  O     O_R   0.913198 0.682855 0.381732 -0.305030
N26   N     N_R   0.929148 0.277551 0.385814 0.278689
O117  O     O_R   0.903675 0.249924 0.344704 -0.271382
O118  O     O_R   0.921171 0.317152 0.373118 -0.306845
N27   N     N_R   0.435165 0.277589 0.487070 0.274191
O119  O     O_R   0.411810 0.249968 0.482465 -0.270884
O120  O     O_R   0.427993 0.317192 0.485783 -0.332015
N28   N     N_R   0.433728 0.722401 0.483755 0.274200
O121  O     O_R   0.409848 0.750019 0.477950 -0.271311
O122  O     O_R   0.426385 0.682797 0.482081 -0.331575
N29   N     N_R   0.936388 0.777588 0.489776 0.274044
O123  O     O_R   0.913469 0.749966 0.486139 -0.272958
O124  O     O_R   0.929359 0.817191 0.488806 -0.332537
N30   N     N_R   0.927074 0.222405 0.466753 0.274613
O125  O     O_R   0.900797 0.250025 0.454823 -0.265492
O126  O     O_R   0.918960 0.182802 0.463133 -0.329157
N31   N     N_R   0.512394 0.222508 0.594364 0.275002
O127  O     O_R   0.516882 0.250163 0.628428 -0.285749
O128  O     O_R   0.513799 0.182915 0.604984 -0.325384
N32   N     N_R   0.510065 0.777487 0.592369 0.274998
O129  O     O_R   0.513710 0.749829 0.625705 -0.286573
O130  O     O_R   0.511206 0.817078 0.602764 -0.325501
N33   N     N_R   0.014292 0.722507 0.595951 0.274923
O131  O     O_R   0.019457 0.750162 0.630580 -0.286396
O132  O     O_R   0.015915 0.682915 0.606753 -0.325857
N34   N     N_R   0.997797 0.277477 0.580720 0.275356
O133  O     O_R   0.997020 0.249815 0.609853 -0.287428
O134  O     O_R   0.997555 0.317067 0.589807 -0.324198
N35   N     N_R   0.722508 0.928061 0.680874 0.249150
O135  O     O_R   0.749996 0.901666 0.693971 -0.299360
O136  O     O_R   0.682790 0.920456 0.636294 -0.315077
N36   N     N_R   0.722520 0.070392 0.678311 0.249070
O137  O     O_R   0.750014 0.096252 0.690466 -0.300334
O138  O     O_R   0.682804 0.077817 0.633461 -0.315625
N37   N     N_R   0.222506 0.429774 0.678010 0.249232
O139  O     O_R   0.249995 0.403978 0.690047 -0.300036
O140  O     O_R   0.182788 0.422363 0.633144 -0.314104
N38   N     N_R   0.222519 0.572094 0.681186 0.249100
O141  O     O_R   0.250012 0.598548 0.694400 -0.299498
O142  O     O_R   0.182803 0.579719 0.636636 -0.315704
N39   N     N_R   0.778075 0.998488 0.693985 0.252903
O143  O     O_R   0.750646 0.997947 0.636435 -0.278868
O144  O     O_R   0.817817 0.998331 0.724684 -0.352166
N40   N     N_R   0.278073 0.501840 0.693991 0.252890
O145  O     O_R   0.250644 0.502510 0.636443 -0.279006
O146  O     O_R   0.317815 0.502032 0.724690 -0.352153

loop_
_geom_bond_atom_site_label_1
_geom_bond_atom_site_label_2
_geom_bond_distance
_ccdc_geom_bond_type
N25   O115  1.300221 A    
N5    O58   1.300151 A    
O86   C187  1.410208 S    
C76   N40   1.457324 S    
C35   C39   1.546420 S    
H13   C163  1.109708 S    
O101  C201  1.411366 S    
O26   C108  1.274696 A    
C172  H22   1.110767 S    
O19   Zn7   1.998827 S    
N32   O129  1.300235 A    
C186  H59   1.110741 S    
C59   H3    1.110081 S    
C92   C120  1.412022 S    
C204  H102  1.110745 S    
C118  C132  1.415780 S    
C174  H28   1.110677 S    
C131  C143  1.194075 T    
O30   C112  1.275230 A    
C17   C49   1.192065 T    
C194  H78   1.110507 S    
C61   C71   1.533182 S    
N26   O118  1.300138 A    
C127  C139  1.544666 S    
C9    C13   1.539797 S    
O18   Zn6   1.997081 S    
C187  C188  1.520590 S    
C114  C156  1.415624 S    
C5    C19   1.412124 S    
C11   C39   1.546369 S    
C88   N8    1.457297 S    
C192  H74   1.110707 S    
C8    C90   1.412498 S    
C57   H1    1.110083 S    
C73   C75   1.531002 S    
O9    C3    1.273408 A    
C187  H60   1.112314 S    
C175  C176  1.520509 S    
C87   C96   1.548488 S    
Zn8   O32   1.997449 S    
C68   C116  1.415834 S    
C14   N2    1.456990 S    
C124  C126  1.547385 S    
Zn7   O31   1.997449 S    
C195  H81   1.110080 S    
O25   C107  1.274690 A    
C190  H69   1.110734 S    
O5    C3    1.273532 A    
C89   C101  1.192198 T    
C90   C102  1.192204 T    
C198  H88   1.110501 S    
C127  C136  1.533110 S    
C29   C49   1.444490 S    
C121  C127  1.547373 S    
C12   N18   1.456986 S    
C128  O80   1.410544 S    
C31   C51   1.444499 S    
C186  H58   1.110459 S    
C203  H100  1.110876 S    
O36   C114  1.276931 A    
O37   C115  1.277200 A    
C188  H64   1.110712 S    
C14   C30   1.546481 S    
C180  H42   1.110777 S    
C64   C76   1.527490 S    
C179  C180  1.520684 S    
C27   N33   1.456965 S    
C33   N27   1.456992 S    
C42   C46   1.539996 S    
N18   O96   1.300115 A    
C61   C75   1.527490 S    
C40   C56   1.444403 S    
C9    C25   1.539704 S    
O26   Zn7   2.004791 S    
Zn1   O13   2.002034 S    
N21   O108  1.300153 A    
C32   C52   1.444487 S    
C93   O75   1.411884 S    
C58   C62   1.543541 S    
O76   C175  1.411452 S    
C158  C160  1.548970 S    
N38   O141  1.300223 A    
O34   Zn10  1.998158 S    
C98   C104  1.443985 S    
C130  C142  1.193989 T    
C70   C72   1.548504 S    
C86   C99   1.543324 S    
C73   C79   1.446739 S    
C173  H25   1.110274 S    
O5    Zn1   2.004321 S    
C63   C76   1.527496 S    
C15   C31   1.546473 S    
N15   O89   1.300221 A    
C47   N21   1.457099 S    
O17   Zn5   1.997081 S    
N17   O93   1.300230 A    
C152  O88   1.410680 S    
N40   O145  1.300241 A    
O41   C117  1.277390 A    
C204  H104  1.110744 S    
C123  H9    1.110077 S    
C65   C77   1.194153 T    
C67   C79   1.194210 T    
C183  H50   1.113257 S    
N16   O92   1.300119 A    
C48   N22   1.457078 S    
C16   C48   1.539962 S    
C75   N39   1.457324 S    
O43   C118  1.277408 A    
O97   C193  1.411274 S    
O23   Zn6   2.004793 S    
O32   C112  1.276047 A    
C124  C138  1.548338 S    
C60   H4    1.110084 S    
C196  H82   1.110744 S    
N30   O125  1.300217 A    
O8    C6    1.273524 A    
C16   N4    1.457007 S    
C146  O98   1.411539 S    
C30   C50   1.444493 S    
N34   O133  1.300234 A    
C10   N16   1.456992 S    
N19   O104  1.300154 A    
C193  H75   1.110084 S    
C68   C80   1.194213 T    
O80   C183  1.409878 S    
C41   C45   1.540004 S    
C28   C32   1.546379 S    
N37   O139  1.300228 A    
N31   O128  1.300111 A    
O19   C105  1.276133 A    
C19   C51   1.192065 T    
C149  O85   1.410662 S    
O99   C197  1.411279 S    
O87   C189  1.410213 S    
C44   N26   1.457011 S    
C1    C65   1.415618 S    
C83   C94   1.544202 S    
C171  H21   1.112958 S    
N4    O55   1.300214 A    
C7    C89   1.412488 S    
O37   Zn9   2.001386 S    
N22   O110  1.300149 A    
N2    O52   1.300130 A    
O38   Zn10  2.001344 S    
O85   C185  1.410209 S    
C106  C130  1.415497 S    
C10   C14   1.539811 S    
Zn12  O48   2.001386 S    
O98   C195  1.411297 S    
C105  C129  1.415497 S    
C202  H97   1.110748 S    
O40   Zn12  2.001344 S    
N25   O116  1.300145 A    
N3    O53   1.300219 A    
C137  C143  1.445544 S    
C112  C154  1.415570 S    
C12   C16   1.539821 S    
C172  H23   1.110516 S    
C146  C161  1.547493 S    
C154  C166  1.193864 T    
C123  C138  1.548340 S    
N29   O124  1.300120 A    
N7    O61   1.300221 A    
C88   C100  1.544120 S    
N10   O68   1.300128 A    
C177  H35   1.113254 S    
C133  N13   1.456944 S    
C37   C53   1.444400 S    
C123  C125  1.547379 S    
C191  H70   1.112314 S    
C161  C167  1.446287 S    
Zn5   O29   1.998827 S    
C39   C47   1.546472 S    
C33   C41   1.539902 S    
C173  C174  1.520474 S    
C121  C137  1.548328 S    
C177  H36   1.113254 S    
N8    O63   1.300318 A    
C35   C43   1.539902 S    
C36   C44   1.539870 S    
C57   C73   1.547591 S    
C91   C103  1.191915 T    
C84   C88   1.533842 S    
C94   O76   1.411928 S    
C16   C32   1.546482 S    
C175  H31   1.110249 S    
C42   N24   1.457029 S    
C69   C71   1.548503 S    
N39   O143  1.300236 A    
C134  N14   1.456944 S    
C170  H19   1.110768 S    
C96   C102  1.444418 S    
Zn9   O45   2.001344 S    
C159  C165  1.446768 S    
C183  C184  1.520684 S    
N11   O69   1.300327 A    
C199  H91   1.110084 S    
C93   C95   1.547842 S    
O22   Zn5   2.004832 S    
O6    Zn1   2.004332 S    
C67   C115  1.415834 S    
O10   C4    1.273414 A    
C169  H15   1.112838 S    
C59   C70   1.560441 S    
C151  C163  1.550554 S    
C196  H84   1.110762 S    
O8    Zn2   2.004332 S    
C160  C166  1.446781 S    
C87   C100  1.543239 S    
C2    C66   1.415618 S    
O9    Zn3   2.004070 S    
N20   O105  1.300219 A    
C180  H43   1.110512 S    
C191  C192  1.520587 S    
C179  H41   1.113252 S    
C85   C99   1.544196 S    
C156  C168  1.193891 T    
C199  C200  1.520190 S    
O4    Zn4   2.002032 S    
N14   O84   1.300223 A    
N33   O131  1.300233 A    
C15   C47   1.539951 S    
O18   C106  1.275315 A    
C58   C73   1.547588 S    
C125  C135  1.533124 S    
C187  H61   1.114602 S    
N35   O136  1.300214 A    
C189  C190  1.520623 S    
C146  C158  1.538741 S    
C197  H85   1.110083 S    
N8    O64   1.300150 A    
C200  H94   1.110765 S    
C138  C140  1.552298 S    
N13   O82   1.300241 A    
C126  C135  1.533120 S    
C13   N1    1.456988 S    
C38   C54   1.444394 S    
C98   C100  1.547750 S    
C195  H80   1.113224 S    
C202  H99   1.110747 S    
Zn3   O15   2.000113 S    
N2    O51   1.300217 A    
C24   C110  1.412033 S    
C178  H39   1.110778 S    
C62   C71   1.533183 S    
C20   C52   1.192061 T    
C148  C157  1.538724 S    
C149  C159  1.542307 S    
C81   C85   1.533794 S    
C10   C26   1.539710 S    
O14   C8    1.273521 A    
C147  C157  1.538727 S    
C181  H45   1.113258 S    
N17   O94   1.300114 A    
N32   O130  1.300109 A    
O47   C120  1.276246 A    
C132  C144  1.194081 T    
C177  C178  1.520688 S    
O11   C5    1.273414 A    
C176  H34   1.110738 S    
C28   N34   1.456965 S    
O12   Zn4   2.004065 S    
C82   N10   1.457244 S    
N6    O59   1.300219 A    
C86   C95   1.548604 S    
O28   Zn8   2.004791 S    
C66   C78   1.194149 T    
C194  H77   1.110767 S    
C81   N9    1.457357 S    
O22   C108  1.274790 A    
C63   C72   1.533182 S    
O40   C116  1.277206 A    
N27   O120  1.300120 A    
C182  H49   1.110776 S    
C45   N19   1.457091 S    
C192  H73   1.110469 S    
C21   C53   1.192011 T    
C184  H54   1.110735 S    
C36   C40   1.546406 S    
N28   O121  1.300219 A    
O6    C4    1.273529 A    
C41   N23   1.457011 S    
C170  H17   1.110812 S    
C63   N37   1.457159 S    
Zn10  O42   1.998046 S    
C190  H68   1.110465 S    
C178  H38   1.110513 S    
C18   C50   1.192065 T    
C145  C151  1.537471 S    
C198  H87   1.110765 S    
O24   Zn6   2.004832 S    
O31   C111  1.276041 A    
C62   C75   1.527489 S    
C169  C170  1.520622 S    
C81   C97   1.547471 S    
C60   C64   1.543535 S    
C186  H57   1.110709 S    
C188  H63   1.110460 S    
C122  C134  1.540716 S    
C200  H92   1.110729 S    
O33   Zn9   1.998166 S    
O1    C1    1.274611 A    
O21   C107  1.274799 A    
C95   C101  1.444406 S    
C145  C158  1.538761 S    
C34   C38   1.546420 S    
C134  C136  1.529889 S    
C97   C99   1.547846 S    
C85   C95   1.547530 S    
C201  H95   1.110872 S    
C13   C29   1.546470 S    
N1    O49   1.300217 A    
C126  O78   1.410547 S    
N36   O137  1.300228 A    
C28   C36   1.539751 S    
O48   C120  1.276239 A    
N23   O112  1.300143 A    
C152  C160  1.542321 S    
C189  H65   1.114596 S    
C84   C98   1.547587 S    
C123  C133  1.540715 S    
N38   O142  1.300213 A    
O73   C169  1.410599 S    
Zn12  O44   1.998046 S    
C158  O102  1.411950 S    
O39   Zn11  2.001386 S    
Zn10  O46   2.001386 S    
C173  H26   1.113512 S    
Zn11  O47   2.001344 S    
C178  H37   1.110739 S    
C11   C27   1.539706 S    
C23   C55   1.192005 T    
C12   C28   1.539721 S    
C82   C93   1.544127 S    
C145  C161  1.547503 S    
C181  C182  1.520660 S    
C81   C93   1.543222 S    
N40   O146  1.300178 A    
C185  H55   1.114596 S    
C204  H103  1.110659 S    
O1    Zn1   2.000112 S    
C29   C41   1.546485 S    
O2    Zn2   2.000112 S    
C176  H32   1.110729 S    
C125  O77   1.410548 S    
C3    C17   1.412115 S    
C183  H51   1.113250 S    
O34   C113  1.276946 A    
C32   C44   1.546483 S    
C194  H79   1.110744 S    
O75   C173  1.411527 S    
C33   C37   1.546423 S    
N26   O117  1.300221 A    
C27   C31   1.546386 S    
C34   C42   1.539895 S    
C185  C186  1.520589 S    
N21   O107  1.300219 A    
C150  O86   1.410660 S    
N29   O123  1.300214 A    
C171  C172  1.520591 S    
N31   O127  1.300232 A    
C92   C104  1.191915 T    
C151  C160  1.542334 S    
C46   N20   1.457095 S    
O35   Zn11  1.998166 S    
C122  C137  1.548348 S    
C124  C133  1.540715 S    
N30   O126  1.300116 A    
C184  H52   1.110777 S    
C57   C61   1.543545 S    
N9    O65   1.300212 A    
C153  C165  1.193854 T    
C26   C34   1.539756 S    
C36   N30   1.456974 S    
C31   C43   1.546493 S    
C157  C159  1.548919 S    
C72   C78   1.447670 S    
N34   O134  1.300111 A    
C129  C141  1.193985 T    
C193  H76   1.113234 S    
O4    C2    1.274340 A    
O27   Zn8   2.004835 S    
N33   O132  1.300109 A    
C9    C37   1.546369 S    
C198  H89   1.110734 S    
C74   C76   1.531005 S    
C11   C15   1.539803 S    
C12   C40   1.546394 S    
C82   C97   1.546690 S    
C60   C70   1.560437 S    
C22   C108  1.412027 S    
C44   C48   1.539975 S    
O35   C114  1.276935 A    
C26   N32   1.456969 S    
C124  H10   1.110076 S    
N4    O56   1.300134 A    
C136  C142  1.447731 S    
C60   C74   1.547591 S    
C37   C45   1.546469 S    
O3    C1    1.274339 A    
C193  C194  1.520210 S    
C148  O100  1.411517 S    
C146  C152  1.537478 S    
N18   O95   1.300224 A    
O45   C119  1.276243 A    
C128  C136  1.533131 S    
C149  C164  1.550553 S    
N28   O122  1.300122 A    
O79   C181  1.409906 S    
C182  H47   1.110735 S    
C91   C119  1.412025 S    
C179  H40   1.113254 S    
C59   C63   1.543550 S    
N9    O66   1.300139 A    
N13   O81   1.300237 A    
C138  C144  1.445540 S    
C57   C69   1.560443 S    
C162  C164  1.557486 S    
O11   Zn4   2.004070 S    
C147  O99   1.411512 S    
O29   C111  1.275229 A    
C191  H71   1.114600 S    
C111  C153  1.415564 S    
O78   C179  1.409898 S    
C82   C86   1.534038 S    
C21   C107  1.412030 S    
C40   C48   1.546459 S    
N24   O114  1.300144 A    
Zn4   O16   2.000113 S    
N15   O90   1.300110 A    
N10   O67   1.300327 A    
C83   N11   1.457239 S    
O42   C117  1.277421 A    
O77   C177  1.409892 S    
C150  C159  1.542296 S    
H14   C164  1.109704 S    
C170  H18   1.110521 S    
O12   C6    1.273415 A    
C59   C74   1.547592 S    
C15   N3    1.456988 S    
O28   C110  1.274700 A    
N16   O91   1.300237 A    
O24   C110  1.274789 A    
C85   N5    1.457300 S    
C148  C150  1.537459 S    
O100  C199  1.411285 S    
N19   O103  1.300214 A    
C13   C45   1.539945 S    
O27   C109  1.274696 A    
O23   C109  1.274787 A    
H12   C140  1.109994 S    
C185  H56   1.112314 S    
C169  H16   1.110235 S    
C190  H67   1.110713 S    
O17   C105  1.275315 A    
C196  H83   1.110512 S    
C61   N35   1.457159 S    
C58   C69   1.560439 S    
C135  C141  1.447737 S    
C155  C167  1.193882 T    
N20   O106  1.300151 A    
C64   C72   1.533178 S    
C162  C168  1.446294 S    
O7    Zn2   2.004321 S    
C69   H5    1.110053 S    
C128  C139  1.544669 S    
C38   C46   1.546476 S    
C126  C140  1.544675 S    
Zn2   O14   2.002034 S    
N1    O50   1.300125 A    
N11   O70   1.300134 A    
O13   C7    1.273517 A    
N35   O135  1.300225 A    
C197  H86   1.113243 S    
C83   C87   1.533986 S    
C125  C140  1.544677 S    
C86   N6    1.457421 S    
C58   H2    1.110086 S    
N22   O109  1.300216 A    
O20   Zn8   1.998827 S    
C200  H93   1.110500 S    
C100  O74   1.411779 S    
C97   C103  1.443991 S    
C161  C163  1.557462 S    
O21   Zn5   2.004793 S    
O2    C2    1.274606 A    
C14   C46   1.539962 S    
C174  H29   1.110720 S    
C94   C96   1.547950 S    
O39   C116  1.277205 A    
C145  O97   1.411534 S    
C202  H98   1.110651 S    
C43   C47   1.540000 S    
N3    O54   1.300125 A    
C62   N36   1.457154 S    
C172  H24   1.110803 S    
C197  C198  1.520185 S    
C181  H46   1.113254 S    
C84   C94   1.543323 S    
N7    O62   1.300154 A    
C174  H27   1.110737 S    
N24   O113  1.300231 A    
O20   C106  1.276133 A    
C99   O73   1.411798 S    
Zn9   O41   1.998038 S    
O10   Zn3   2.004065 S    
C150  C164  1.550562 S    
C176  H33   1.110684 S    
N6    O60   1.300150 A    
C9    N15   1.456967 S    
C147  C149  1.537470 S    
C195  C196  1.520185 S    
C25   C29   1.546375 S    
Zn11  O43   1.998038 S    
C152  C163  1.550537 S    
N27   O119  1.300215 A    
N37   O140  1.300217 A    
C87   N7    1.457411 S    
N12   O71   1.300218 A    
C182  H48   1.110512 S    
C192  H72   1.110739 S    
C22   C54   1.192008 T    
C43   N25   1.457018 S    
C84   N12   1.457362 S    
O7    C5    1.273532 A    
C175  H30   1.113344 S    
C184  H53   1.110508 S    
N12   O72   1.300145 A    
N39   O144  1.300174 A    
O74   C171  1.410656 S    
C35   N29   1.457003 S    
C30   C42   1.546500 S    
O33   C113  1.276911 A    
O3    Zn3   2.002032 S    
N5    O57   1.300316 A    
C122  C128  1.547384 S    
C39   C55   1.444394 S    
O25   Zn7   2.004835 S    
C27   C35   1.539752 S    
C199  H90   1.113269 S    
C151  O87   1.410678 S    
C157  O101  1.411939 S    
C70   H6    1.110053 S    
C11   N17   1.456977 S    
C121  H7    1.110077 S    
C127  O79   1.410539 S    
C147  C162  1.547484 S    
C148  C162  1.547471 S    
C113  C155  1.415621 S    
C203  H101  1.110893 S    
C83   C98   1.546754 S    
O36   Zn12  1.998158 S    
O15   C7    1.273825 A    
C188  H62   1.110737 S    
C26   C30   1.546387 S    
O16   C8    1.273824 A    
C180  H44   1.110737 S    
C117  C131  1.415783 S    
C171  H20   1.110240 S    
C34   N28   1.456991 S    
C25   N31   1.456962 S    
C64   N38   1.457159 S    
O88   C191  1.410253 S    
N14   O83   1.300241 A    
C201  H96   1.110885 S    
C74   C80   1.446739 S    
C10   C38   1.546387 S    
C121  C134  1.540718 S    
C137  C139  1.552291 S    
N36   O138  1.300213 A    
H11   C139  1.109995 S    
N23   O111  1.300214 A    
C189  H66   1.112317 S    
C203  C204  1.519997 S    
C23   C109  1.412023 S    
O46   C119  1.276242 A    
C25   C33   1.539751 S    
C88   C96   1.547484 S    
C71   C77   1.447671 S    
C6    C20   1.412111 S    
C122  H8    1.110076 S    
O38   C115  1.277208 A    
O102  C203  1.411397 S    
Zn6   O30   1.998827 S    
C24   C56   1.192014 T    
C133  C135  1.529885 S    
O44   C118  1.277406 A    
C4    C18   1.412121 S    
C201  C202  1.519983 S    
