data_mof_unit_65945.cif
_audit_creation_date              2013-03-05T16:56:19-0500
_audit_creation_method            fapswitch 2.2
_symmetry_space_group_name_H-M    P1
_symmetry_Int_Tables_number       1
_space_group_crystal_system       triclinic
_cell_length_a                    17.412295
_cell_length_b                    16.722083
_cell_length_c                    10.643118
_cell_angle_alpha                 90.258126
_cell_angle_beta                  90.453054
_cell_angle_gamma                 90.240737
_cell_volume                      3098.79883895

loop_
_atom_site_label
_atom_site_type_symbol
_atom_site_description
_atom_site_fract_x
_atom_site_fract_y
_atom_site_fract_z
_atom_type_partial_charge
O1    O     O_R   0.389130 0.566570 0.500000 -0.605607
O2    O     O_R   0.389130 0.433430 0.500000 -0.590087
C1    C     C_R   0.352283 0.500049 0.505498 0.880174
O3    O     O_R   0.500000 0.566540 0.314800 -0.652398
O4    O     O_R   0.500000 0.433460 0.314800 -0.603585
C2    C     C_R   0.497881 0.499594 0.257159 0.918416
Zn1   Zn    Zn3+2 0.500020 0.588860 0.500010 0.939524
Zn2   Zn    Zn3+2 0.500020 0.411140 0.500010 0.956864
O5    O     O_R   0.610900 0.566520 0.500010 -0.620958
O6    O     O_R   0.610900 0.433480 0.500010 -0.624650
O7    O     O_R   0.500030 0.566540 0.685210 -0.634879
O8    O     O_R   0.500030 0.433460 0.685210 -0.641402
C3    C     C_R   0.647250 0.500181 0.496698 0.858609
C4    C     C_R   0.498671 0.500000 0.742772 0.876295
C5    C     C_3   0.429414 0.552282 0.071298 0.389741
C6    C     C_3   0.486523 0.410747 0.069818 0.409735
H1    H     H_    0.440999 0.614739 0.105056 0.032198
H2    H     H_    0.538502 0.376827 0.100680 0.032426
C7    C     C_3   0.430408 0.552207 0.926392 -0.468037
C8    C     C_3   0.484659 0.412852 0.926342 -0.473510
H3    H     H_    0.374831 0.529327 0.887779 0.177323
H4    H     H_    0.428516 0.390190 0.889713 0.184629
H5    H     H_    0.437194 0.614782 0.892783 0.140329
H6    H     H_    0.530271 0.372338 0.890590 0.141979
H7    H     H_    0.582345 0.594830 0.108698 0.206563
H8    H     H_    0.622235 0.496118 0.110241 0.188806
H9    H     H_    0.584670 0.594199 0.895519 0.188451
H10   H     H_    0.622719 0.494452 0.896108 0.179520
C9    C     C_3   0.573577 0.532544 0.073802 -0.613108
C10   C     C_3   0.495966 0.498390 0.120757 0.033273
C11   C     C_3   0.497207 0.499522 0.878739 0.082613
C12   C     C_3   0.574540 0.532270 0.929868 -0.428474
C13   C     C_R   0.845947 0.574610 0.430524 -0.168346
C14   C     C_R   0.846013 0.429430 0.424678 -0.167724
H11   H     H_    0.876277 0.631161 0.424024 0.130984
H12   H     H_    0.876416 0.373443 0.413598 0.131273
C15   C     C_R   0.768628 0.573899 0.461014 -0.204892
C16   C     C_R   0.768656 0.428483 0.455151 -0.210900
H13   H     H_    0.739545 0.630408 0.474267 0.156928
H14   H     H_    0.739555 0.371411 0.463653 0.156016
C17   C     C_R   0.729612 0.500772 0.474098 -0.040406
C18   C     C_R   0.884229 0.502439 0.412613 0.165036
C19   C     C_1   0.964990 0.503042 0.402478 -0.078349
C20   C     C_1   0.033217 0.503177 0.407268 -0.045289
C21   C     C_R   0.150949 0.574487 0.452593 -0.222125
C22   C     C_R   0.149085 0.430069 0.451648 -0.216130
H15   H     H_    0.119506 0.630213 0.445723 0.139208
H16   H     H_    0.115911 0.375092 0.445085 0.138868
C23   C     C_R   0.227371 0.574850 0.492552 -0.014602
C24   C     C_R   0.225304 0.428133 0.492579 -0.007098
C25   C     C_R   0.267411 0.500911 0.502098 -0.166784
C26   C     C_R   0.113344 0.502623 0.428583 0.119654
C27   C     C_R   0.469669 0.831866 0.397800 -0.281339
C28   C     C_R   0.524918 0.167660 0.394025 -0.282693
H17   H     H_    0.445140 0.862553 0.317682 0.128137
H18   H     H_    0.543919 0.136681 0.310314 0.133854
C29   C     C_R   0.469699 0.747614 0.400190 0.039622
C30   C     C_R   0.524740 0.251919 0.396731 0.004268
H19   H     H_    0.444999 0.714589 0.322067 0.107933
H20   H     H_    0.544911 0.284660 0.316130 0.121216
N1    N     N_R   0.500030 0.707230 0.500030 -0.082484
N2    N     N_R   0.500030 0.292770 0.500030 -0.086671
C31   C     C_R   0.530616 0.748586 0.599494 0.010237
C32   C     C_R   0.478086 0.251762 0.604511 0.033435
H21   H     H_    0.554720 0.716303 0.678184 0.119323
H22   H     H_    0.460299 0.284208 0.687277 0.122153
C33   C     C_R   0.531296 0.832848 0.601040 -0.284131
C34   C     C_R   0.478355 0.167517 0.606283 -0.277287
H23   H     H_    0.555687 0.864332 0.681152 0.135437
H24   H     H_    0.460505 0.136403 0.690272 0.125685
C35   C     C_R   0.500617 0.875574 0.499239 0.162098
C36   C     C_R   0.501169 0.124356 0.499636 0.167941
C37   C     C_1   0.500736 0.963384 0.499089 -0.066045
C38   C     C_1   0.500929 0.036542 0.499178 -0.062183
C39   C     C_R   0.260508 0.652570 0.534574 0.166000
C40   C     C_R   0.258680 0.719527 0.455271 -0.187994
C41   C     C_R   0.287854 0.793084 0.497074 -0.141104
C42   C     C_R   0.319255 0.800333 0.617880 -0.090727
C43   C     C_R   0.321118 0.734158 0.697502 -0.142452
C44   C     C_R   0.291262 0.660721 0.656661 -0.101902
H25   H     H_    0.234906 0.714685 0.361190 0.114078
H26   H     H_    0.286590 0.844398 0.435490 0.125042
H27   H     H_    0.342305 0.857201 0.649648 0.123823
H28   H     H_    0.345412 0.739819 0.791062 0.109155
H29   H     H_    0.292276 0.610124 0.719844 0.094601
C45   C     C_R   0.254455 0.350839 0.540805 0.169507
C46   C     C_R   0.279967 0.345139 0.666147 -0.117819
C47   C     C_R   0.298462 0.270712 0.717125 -0.171416
C48   C     C_R   0.292463 0.201634 0.643239 -0.108940
C49   C     C_R   0.268426 0.206909 0.518003 -0.132108
C50   C     C_R   0.248671 0.281053 0.467227 -0.167872
H30   H     H_    0.283549 0.397985 0.725224 0.106391
H31   H     H_    0.317257 0.266553 0.814009 0.121510
H32   H     H_    0.306828 0.144057 0.682863 0.118964
H33   H     H_    0.264062 0.153395 0.460765 0.128406
H34   H     H_    0.227943 0.284029 0.371182 0.128419
O9    O     O_3   0.357857 0.522709 0.114442 -0.558382
C51   C     C_3   0.305564 0.585769 0.133752 0.069794
H35   H     H_    0.304962 0.628428 0.053535 0.115604
H36   H     H_    0.320851 0.618366 0.221893 0.144317
C52   C     C_3   0.225293 0.550931 0.146462 -0.779012
H37   H     H_    0.224815 0.505035 0.221404 0.275601
H38   H     H_    0.184152 0.599057 0.170651 0.196038
H39   H     H_    0.207093 0.522536 0.056452 0.244793
O10   O     O_3   0.418410 0.375137 0.117311 -0.539498
C53   C     C_3   0.419207 0.290965 0.102104 0.114589
H40   H     H_    0.475182 0.264105 0.129385 0.100613
H41   H     H_    0.406309 0.274461 0.002935 0.116844
C54   C     C_3   0.357656 0.254531 0.184737 -0.802435
H42   H     H_    0.300358 0.278093 0.157629 0.250374
H43   H     H_    0.357334 0.188462 0.173773 0.190875
H44   H     H_    0.369627 0.269723 0.284644 0.271717

loop_
_geom_bond_atom_site_label_1
_geom_bond_atom_site_label_2
_geom_bond_distance
_ccdc_geom_bond_type
C30   N2    1.365162 A    
C46   C47   1.397768 A    
C31   H21   1.081400 S    
C52   H37   1.109427 S    
C37   C38   1.223347 T    
C14   C18   1.394884 A    
C4    C11   1.447602 S    
C19   C20   1.188677 T    
C7    C11   1.549247 S    
C3    C17   1.456008 S    
O9    C51   1.411508 S    
C49   H33   1.082333 S    
C41   C42   1.397757 A    
Zn1   O7    2.007781 S    
C9    C10   1.552076 S    
C13   C18   1.394225 A    
C32   C34   1.408992 A    
C7    H3    1.113968 S    
C9    C12   1.532115 S    
C45   C50   1.405254 A    
C54   H43   1.110421 S    
C43   H28   1.082416 S    
O7    C4    1.272840 A    
C29   H19   1.081435 S    
C53   H40   1.111910 S    
C30   H20   1.079994 S    
C22   C26   1.387856 A    
C5    H1    1.119942 S    
C48   H32   1.082333 S    
N1    C31   1.365257 A    
O5    C3    1.279981 A    
Zn1   N1    1.979391 S    
N2    C32   1.365350 A    
C50   H34   1.082797 S    
C5    C7    1.542480 S    
C42   H27   1.082337 S    
C8    H6    1.114232 S    
C23   C25   1.425607 A    
C23   C39   1.485394 S    
C39   C44   1.407307 A    
C14   H12   1.083906 S    
C6    C8    1.527691 S    
C20   C26   1.411822 S    
C21   H15   1.085227 S    
C52   H38   1.110402 S    
O1    Zn1   1.964959 S    
C46   H30   1.083532 S    
C5    O9    1.419072 S    
O3    Zn1   2.004581 S    
C31   C33   1.409057 A    
C27   H17   1.082995 S    
H7    C9    1.113710 S    
C28   H18   1.083313 S    
H10   C12   1.113539 S    
C40   C41   1.398284 A    
C16   C17   1.403919 A    
C36   C38   1.468396 S    
C54   H44   1.110069 S    
C35   C37   1.468367 S    
C27   C29   1.409204 A    
C45   C46   1.406471 A    
C14   C16   1.387982 A    
C21   C26   1.387855 A    
C13   C15   1.387375 A    
C34   C36   1.403302 A    
C33   H23   1.083002 S    
C32   H22   1.080580 S    
C7    H5    1.113482 S    
C39   C40   1.405508 A    
C44   H29   1.083249 S    
C11   C12   1.545552 S    
C21   C23   1.393773 A    
Zn2   O8    2.004477 S    
C24   C25   1.420946 A    
C6    O10   1.422306 S    
O3    C2    1.274375 A    
C2    C10   1.451915 S    
O8    C4    1.268169 A    
C52   H39   1.110616 S    
C51   H36   1.112749 S    
C18   C19   1.411217 S    
C27   C35   1.403769 A    
C5    C10   1.560610 S    
C28   C30   1.409171 A    
Zn1   O5    1.968024 S    
C47   H31   1.081992 S    
C1    C25   1.478114 S    
H9    C12   1.113589 S    
C42   C43   1.397151 A    
Zn2   O6    1.964941 S    
O2    Zn2   1.968035 S    
C8    H4    1.113899 S    
O6    C3    1.280908 A    
C40   H25   1.083039 S    
O4    Zn2   2.007886 S    
C29   N1    1.365543 A    
C51   C52   1.519246 S    
O10   C53   1.416227 S    
C22   C24   1.394092 A    
O2    C1    1.289220 A    
C15   H13   1.083153 S    
C54   H42   1.110690 S    
C16   H14   1.083147 S    
C49   C50   1.397952 A    
O4    C2    1.267611 A    
C53   H41   1.110737 S    
C41   H26   1.082300 S    
C13   H11   1.083932 S    
C33   C35   1.403838 A    
C15   C17   1.404379 A    
C24   C45   1.482934 S    
C43   C44   1.397678 A    
C22   H16   1.085367 S    
C28   C36   1.403918 A    
C47   C48   1.397539 A    
H8    C9    1.113789 S    
C6    H2    1.118065 S    
C51   H35   1.115038 S    
C34   H24   1.083323 S    
O1    C1    1.283591 A    
C48   C49   1.397194 A    
C6    C10   1.567882 S    
C53   C54   1.519056 S    
Zn2   N2    1.979395 S    
C8    C11   1.552610 S    
