data_mof_unit_36498.cif
_audit_creation_date              2012-12-10T16:38:33-0500
_audit_creation_method            fapswitch 2.2
_symmetry_space_group_name_H-M    P1
_symmetry_Int_Tables_number       1
_space_group_crystal_system       triclinic
_cell_length_a                    10.858731
_cell_length_b                    10.885383
_cell_length_c                    17.714067
_cell_angle_alpha                 98.595663
_cell_angle_beta                  73.346961
_cell_angle_gamma                 98.574445
_cell_volume                      1970.95757208

loop_
_atom_site_label
_atom_site_type_symbol
_atom_type_description
_atom_site_fract_x
_atom_site_fract_y
_atom_site_fract_z
_atom_type_partial_charge
C1    C     C_R   0.158005 0.479168 0.517504 0.816449
C2    C     C_R   0.524244 0.334462 0.927592 -0.203464
C3    C     C_R   0.592824 0.274056 0.964510 0.196646
C4    C     C_R   0.842933 0.520534 0.482872 0.839798
C5    C     C_R   0.597848 0.320227 0.042878 -0.084212
C6    C     C_R   0.517476 0.414039 0.085636 0.008366
C7    C     C_R   0.679270 0.274725 0.080356 0.456089
C8    C     C_R   0.666246 0.309430 0.161925 0.071916
C9    C     C_R   0.523787 0.461157 0.162904 -0.265699
C10   C     C_2   0.979772 0.534839 0.480773 -0.085844
C11   C     C_2   0.021145 0.467898 0.525404 0.305592
C12   C     C_R   0.334148 0.684455 0.845510 0.011868
C13   C     C_2   0.543161 0.967265 0.481407 -0.394951
C14   C     C_2   0.449807 0.037508 0.524430 0.092079
C15   C     C_R   0.468937 0.168512 0.516733 0.798871
C16   C     C_R   0.530152 0.832942 0.483421 0.906257
C17   C     C_R   0.563710 0.435593 0.287889 0.860819
C18   C     C_R   0.438895 0.565904 0.712939 0.831623
C19   C     C_R   0.410099 0.590172 0.801154 -0.242457
C20   C     C_R   0.589721 0.404596 0.202290 -0.123100
C21   C     C_R   0.285961 0.687129 0.928710 0.470705
C22   C     C_3   0.043747 0.607441 0.106540 -0.804470
C23   C     C_R   0.464644 0.521007 0.841845 0.423439
C24   C     C_3   0.893821 0.243290 0.027083 0.126000
C25   C     C_3   0.941075 0.302697 0.949200 -0.387472
C26   C     C_3   0.088082 0.333460 0.925435 -0.987762
C27   C     C_3   0.075640 0.748592 0.471068 -0.778392
C28   C     C_3   0.961921 0.362936 0.638553 0.076624
C29   C     C_3   0.031760 0.248421 0.633531 -0.347948
C30   C     C_3   0.065157 0.242989 0.710839 -0.996154
C31   C     C_3   0.315023 0.990295 0.652455 -0.747632
C32   C     C_3   0.820321 0.308366 0.239704 -0.806208
C33   C     C_3   0.694047 0.147090 0.839032 -0.834016
C34   C     C_R   0.413988 0.517168 0.925026 -0.149086
C35   C     C_3   0.105392 0.793892 0.951324 0.147049
C36   C     C_3   0.099660 0.929558 0.939977 -0.320406
C37   C     C_3   0.000947 0.938439 0.895339 -0.987985
C38   C     C_3   0.438372 0.881190 0.798501 -0.777475
C39   C     C_3   0.686886 0.547475 0.811973 0.092439
C40   C     C_3   0.749309 0.619558 0.739982 -0.322669
C41   C     C_3   0.872092 0.701481 0.748785 -1.025765
C42   C     C_3   0.202467 0.381932 0.184453 -0.765466
C43   C     C_R   0.323437 0.601259 0.968856 -0.123160
C44   C     C_R   0.460161 0.439096 0.966184 0.016954
C45   C     C_R   0.436672 0.462368 0.049014 0.039671
C46   C     C_R   0.329348 0.527515 0.092201 0.114540
C47   C     C_R   0.275059 0.599690 0.052310 0.195370
H1    H     H_    0.631733 0.010718 0.443792 0.125880
H2    H     H_    0.912789 0.237219 0.901256 0.258257
H3    H     H_    0.894964 0.389722 0.955988 0.206101
H4    H     H_    0.121321 0.388620 0.975249 0.274520
H5    H     H_    0.118170 0.388645 0.873979 0.264958
H6    H     H_    0.135594 0.246065 0.908491 0.273921
H7    H     H_    0.053945 0.617734 0.377080 0.243470
H8    H     H_    0.152548 0.807958 0.432130 0.242378
H9    H     H_    0.100131 0.751920 0.528114 0.263894
H10   H     H_    0.982001 0.787165 0.482418 0.237845
H11   H     H_    0.866000 0.350191 0.682470 0.175547
H12   H     H_    0.474988 0.540783 0.194596 0.177751
H13   H     H_    0.014209 0.449355 0.662391 0.119827
H14   H     H_    0.968419 0.162252 0.620930 0.230951
H15   H     H_    0.122454 0.251121 0.584640 0.228817
H16   H     H_    0.137688 0.322719 0.720761 0.262347
H17   H     H_    0.105919 0.154367 0.707968 0.273838
H18   H     H_    0.977202 0.246470 0.761427 0.268708
H19   H     H_    0.250345 0.022396 0.559340 0.217555
H20   H     H_    0.219393 0.942859 0.682477 0.228443
H21   H     H_    0.324361 0.088812 0.679822 0.220293
H22   H     H_    0.391609 0.941309 0.661002 0.267541
H23   H     H_    0.515207 0.295302 0.869566 0.212536
H24   H     H_    0.657082 0.179789 0.238422 0.233299
H25   H     H_    0.904384 0.253913 0.224681 0.241272
H26   H     H_    0.780886 0.320769 0.305245 0.228700
H27   H     H_    0.854225 0.401843 0.218644 0.240577
H28   H     H_    0.612814 0.084036 0.951274 0.256594
H29   H     H_    0.610271 0.114412 0.814358 0.242470
H30   H     H_    0.762765 0.075274 0.819553 0.250682
H31   H     H_    0.744275 0.235748 0.815647 0.246976
H32   H     H_    0.021147 0.766727 0.000833 0.146060
H33   H     H_    0.093366 0.729808 0.897892 0.112334
H34   H     H_    0.187977 0.725698 0.146398 0.219348
H35   H     H_    0.074083 0.985616 0.998945 0.206768
H36   H     H_    0.195803 0.970800 0.906152 0.250900
H37   H     H_    0.030782 0.888940 0.834597 0.266799
H38   H     H_    0.996684 0.037671 0.889909 0.279335
H39   H     H_    0.903417 0.897183 0.927263 0.275438
H40   H     H_    0.277919 0.776214 0.766400 0.255657
H41   H     H_    0.513835 0.848637 0.745114 0.225250
H42   H     H_    0.477616 0.896212 0.851077 0.257457
H43   H     H_    0.412310 0.972241 0.790626 0.226585
H44   H     H_    0.757502 0.487770 0.817785 0.143582
H45   H     H_    0.971869 0.674351 0.135702 0.242094
H46   H     H_    0.666984 0.614180 0.867364 0.128259
H47   H     H_    0.773313 0.552596 0.685554 0.255046
H48   H     H_    0.680525 0.680440 0.733333 0.203372
H49   H     H_    0.847260 0.774261 0.799928 0.276639
H50   H     H_    0.917939 0.748128 0.694282 0.272296
H51   H     H_    0.942150 0.644510 0.758116 0.261095
H52   H     H_    0.212774 0.575655 0.207711 0.222822
H53   H     H_    0.154923 0.376245 0.248513 0.239257
H54   H     H_    0.273475 0.312362 0.164150 0.260544
H55   H     H_    0.128112 0.357691 0.151136 0.224429
H56   H     H_    0.028487 0.531478 0.144458 0.232918
H57   H     H_    0.027173 0.568025 0.048316 0.238700
H58   H     H_    0.953633 0.167581 0.024037 0.174640
H59   H     H_    0.910829 0.314112 0.076326 0.134988
N1    N     N_2   0.172958 0.671925 0.096099 -0.248482
N2    N     N_2   0.067889 0.621746 0.432638 -0.337433
N3    N     N_2   0.326342 0.985850 0.568829 -0.276067
N4    N     N_2   0.722815 0.240529 0.203194 -0.289152
N5    N     N_2   0.651807 0.164484 0.924856 -0.263215
N6    N     N_2   0.324458 0.790819 0.810575 -0.278036
N7    N     N_2   0.266107 0.507182 0.172877 -0.317236
O1    O     O_3   0.500000 0.500000 0.500000 -0.489009
O2    O     O_R   0.470800 0.371790 0.332500 -0.636428
O3    O     O_R   0.380610 0.619380 0.674980 -0.667831
O4    O     O_R   0.632640 0.524780 0.317540 -0.641656
O5    O     O_R   0.515950 0.484050 0.674980 -0.590203
O6    O     O_3   0.763624 0.188348 0.039254 -0.631300
O7    O     O_3   0.939967 0.371329 0.564416 -0.630968
O8    O     O_3   0.220634 0.786655 0.972345 -0.608174
O9    O     O_3   0.576466 0.467390 0.800500 -0.629128
O10   O     O_R   0.535460 0.243030 0.556410 -0.623320
O11   O     O_R   0.437420 0.784080 0.535340 -0.607253
O12   O     O_R   0.223560 0.397520 0.472140 -0.643544
O13   O     O_R   0.803560 0.575360 0.436110 -0.657328
O14   O     O_R   0.209690 0.568800 0.556400 -0.661729
O15   O     O_R   0.763190 0.458310 0.535350 -0.600006
O16   O     O_R   0.414000 0.207090 0.472140 -0.661656
O17   O     O_R   0.613120 0.765800 0.436110 -0.649505
Zn1   Zn    Zn3+2 0.577310 0.422690 0.565550 0.989421
Zn2   Zn    Zn3+2 0.403760 0.371330 0.445150 0.964078
Zn3   Zn    Zn3+2 0.634990 0.589920 0.423760 0.953080
Zn4   Zn    Zn3+2 0.383940 0.616050 0.565540 0.946150

loop_
_geom_bond_atom_site_label_1
_geom_bond_atom_site_label_2
_ccdc_geom_bond_type
C14   N3    S    
C2    C44   A    
H34   N1    S    
H7    N2    S    
C6    C45   A    
C30   H17   S    
O1    Zn1   S    
C10   N2    S    
C35   C36   S    
C1    C11   S    
O14   Zn4   S    
O4    Zn3   S    
C6    C9    A    
C7    C8    A    
C32   H25   S    
C45   C46   A    
C31   H20   S    
C38   H42   S    
C8    C20   A    
C39   O9    S    
C32   N4    S    
C42   H54   S    
C37   H38   S    
C36   C37   S    
C1    O12   A    
C42   H53   S    
C32   H27   S    
C5    C6    A    
C27   H8    S    
C33   H31   S    
C41   H49   S    
O3    Zn4   S    
C36   H36   S    
C22   N1    S    
H24   N4    S    
C35   H33   S    
C17   C20   S    
C22   H57   S    
C18   C19   S    
C46   C47   A    
C25   H3    S    
C39   H46   S    
O5    Zn1   S    
C33   H29   S    
C21   C43   A    
C26   H5    S    
C30   H16   S    
O13   Zn3   S    
C36   H35   S    
C37   H37   S    
C33   N5    S    
C16   O17   A    
C18   O5    A    
C17   O4    A    
O16   Zn2   S    
C13   C14   D    
C11   O7    S    
C42   H55   S    
C39   H44   S    
C23   O9    S    
O2    Zn2   S    
C28   H13   S    
C31   N3    S    
C31   H21   S    
C9    C20   A    
C29   H14   S    
C4    O15   A    
C26   H6    S    
C7    O6    S    
C37   H39   S    
C35   O8    S    
C34   C44   A    
C24   C25   S    
C27   H10   S    
C18   O3    A    
C32   H26   S    
C5    C7    A    
C27   H9    S    
H40   N6    S    
C25   C26   S    
C12   C21   A    
C22   H56   S    
C38   H41   S    
C9    H12   S    
C19   C23   A    
C29   C30   S    
C8    N4    S    
C42   N7    S    
C15   O16   A    
C23   C34   A    
O1    Zn4   S    
C15   O10   A    
C40   C41   S    
C47   N1    S    
C28   O7    S    
C41   H50   S    
O17   Zn3   S    
C24   H59   S    
C40   H48   S    
C38   N6    S    
O15   Zn1   S    
C12   N6    S    
C44   C45   A    
C17   O2    A    
C29   H15   S    
C28   C29   S    
C24   O6    S    
C46   N7    S    
O10   Zn1   S    
C14   C15   S    
O1    Zn2   S    
C34   C43   A    
C1    O14   A    
C4    C10   S    
C40   H47   S    
C3    C5    A    
H52   N7    S    
C13   H1    S    
C28   H11   S    
C38   H43   S    
H28   N5    S    
C4    O13   A    
C2    C3    A    
C16   O11   A    
C26   H4    S    
O12   Zn2   S    
C33   H30   S    
C27   N2    S    
C12   C19   A    
C35   H32   S    
O1    Zn3   S    
H19   N3    S    
C21   O8    S    
C25   H2    S    
C30   H18   S    
C10   C11   D    
C3    N5    S    
O11   Zn4   S    
C39   C40   S    
C31   H22   S    
C13   C16   S    
C22   H45   S    
C41   H51   S    
C24   H58   S    
C2    H23   S    
C43   C47   A    
