data_mof_unit_33492.cif
_audit_creation_date              2012-12-10T17:22:41-0500
_audit_creation_method            fapswitch 2.2
_symmetry_space_group_name_H-M    P1
_symmetry_Int_Tables_number       1
_space_group_crystal_system       triclinic
_cell_length_a                    10.604827
_cell_length_b                    11.006222
_cell_length_c                    9.722057
_cell_angle_alpha                 89.10974
_cell_angle_beta                  89.152389
_cell_angle_gamma                 94.410609
_cell_volume                      1131.10696513

loop_
_atom_site_label
_atom_site_type_symbol
_atom_type_description
_atom_site_fract_x
_atom_site_fract_y
_atom_site_fract_z
_atom_type_partial_charge
C1    C     C_R   0.512582 0.264669 0.499753 0.780147
C2    C     C_3   0.961531 0.500414 0.368054 -0.213559
C3    C     C_3   0.034816 0.399884 0.437139 -0.221281
C4    C     C_3   0.122752 0.499537 0.502566 -0.027074
C5    C     C_R   0.626589 0.135115 0.727595 -0.212603
C6    C     C_R   0.645529 0.077215 0.851328 -0.149608
C7    C     C_R   0.606553 0.954226 0.869175 0.192562
C8    C     C_R   0.548853 0.890592 0.761053 -0.242968
C9    C     C_R   0.541648 0.943623 0.628304 0.080757
C10   C     C_R   0.566787 0.071924 0.618441 0.064317
C11   C     C_R   0.538270 0.133905 0.497238 -0.129646
C12   C     C_R   0.259896 0.499603 0.500898 0.816346
C13   C     C_R   0.536184 0.068673 0.373326 0.141687
C14   C     C_R   0.519482 0.940726 0.379651 -0.256370
C15   C     C_R   0.515257 0.875753 0.505278 -0.130242
C16   C     C_R   0.704973 0.617825 0.135079 -0.125706
C17   C     C_R   0.816200 0.651539 0.061597 -0.234517
C18   C     C_R   0.814113 0.656102 0.919417 -0.190194
C19   C     C_R   0.702208 0.622342 0.852784 -0.118003
C20   C     C_R   0.600216 0.557651 0.922972 0.116550
C21   C     C_R   0.600786 0.556584 0.071199 0.178468
C22   C     C_R   0.404891 0.442964 0.077269 -0.106750
C23   C     C_R   0.503062 0.738738 0.500772 0.793520
C24   C     C_R   0.403990 0.441237 0.929145 0.344259
C25   C     C_R   0.740067 0.500539 0.499184 0.752159
C26   C     C_3   0.037585 0.499775 0.632020 -0.167952
C27   C     C_3   0.947712 0.399884 0.566549 -0.149094
C28   C     C_3   0.876976 0.500635 0.497998 -0.000339
C29   C     C_3   0.964170 0.600727 0.564183 -0.181777
C30   C     C_3   0.049855 0.597901 0.435935 0.307342
Cu1   Cu    Cu3+1 0.499990 0.499990 0.640660 0.926755
Cu2   Cu    Cu3+1 0.500010 0.500010 0.359340 0.918477
H1    H     H_    0.901949 0.317947 0.620334 0.127399
H2    H     H_    0.506155 0.802381 0.788830 0.174723
H3    H     H_    0.511610 0.890553 0.285965 0.163843
H4    H     H_    0.329359 0.395480 0.137035 0.155818
H5    H     H_    0.698504 0.652866 0.236748 0.186318
H6    H     H_    0.898216 0.691471 0.113689 0.153242
H7    H     H_    0.894041 0.699846 0.862589 0.140186
H8    H     H_    0.693812 0.658721 0.750830 0.186047
H9    H     H_    0.070583 0.500197 0.739733 0.170176
H10   H     H_    0.931835 0.682958 0.614272 0.115336
H11   H     H_    0.929246 0.500719 0.260140 0.153130
H12   H     H_    0.066431 0.317661 0.386175 0.138426
H13   H     H_    0.665613 0.228474 0.716593 0.167714
H14   H     H_    0.689614 0.130250 0.932089 0.140467
N1    N     N_R   0.501210 0.501210 0.147910 -0.217411
N2    N     N_R   0.501250 0.501290 0.852040 -0.236065
O1    O     O_R   0.499990 0.319640 0.618810 -0.603031
O2    O     O_R   0.500000 0.319660 0.381240 -0.575162
O3    O     O_R   0.316850 0.499960 0.618770 -0.556760
O4    O     O_R   0.316860 0.499980 0.381190 -0.588925
O5    O     O_R   0.500000 0.680340 0.618760 -0.609254
O6    O     O_R   0.500010 0.680360 0.381190 -0.586911
O7    O     O_R   0.683140 0.500020 0.618810 -0.598787
O8    O     O_R   0.683150 0.500040 0.381230 -0.606975
C31   C     C_3   0.621226 0.888628 0.003289 -0.397092
C32   C     C_3   0.749651 0.919331 0.070275 -0.826817
H15   H     H_    0.827237 0.892180 0.002559 0.254992
H16   H     H_    0.769284 0.017113 0.087101 0.245447
H17   H     H_    0.752453 0.872551 0.171893 0.238467
H18   H     H_    0.538685 0.901547 0.068919 0.166305
H19   H     H_    0.610513 0.790657 0.987795 0.210461
N3    N     N_2   0.303951 0.374613 0.859341 -0.390263
H20   H     H_    0.333482 0.312297 0.790588 0.286964
C33   C     C_3   0.187642 0.334646 0.932214 -0.797039
H21   H     H_    0.204164 0.259794 0.006186 0.220971
H22   H     H_    0.116275 0.299316 0.857382 0.238069
H23   H     H_    0.149059 0.412181 0.986446 0.237122
N4    N     N_2   0.111212 0.703352 0.364607 -0.430110
H24   H     H_    0.150441 0.682660 0.271004 0.254365
C34   C     C_3   0.040096 0.810229 0.360763 -0.729336
H25   H     H_    0.089899 0.881506 0.293421 0.228642
H26   H     H_    0.032305 0.847599 0.465673 0.238048
H27   H     H_    0.943842 0.787629 0.320649 0.212294
C35   C     C_3   0.567851 0.132903 0.236033 -0.355790
C36   C     C_3   0.700361 0.200899 0.236344 -0.791083
H28   H     H_    0.707626 0.276832 0.309282 0.272207
H29   H     H_    0.772263 0.138194 0.267611 0.228845
H30   H     H_    0.724873 0.239744 0.132593 0.221819
H31   H     H_    0.567347 0.068847 0.153170 0.197467
H32   H     H_    0.493798 0.192101 0.202782 0.215834

loop_
_geom_bond_atom_site_label_1
_geom_bond_atom_site_label_2
_ccdc_geom_bond_type
C33   H22   S    
C16   C21   A    
C29   H10   S    
C2    C28   S    
C19   C20   A    
C1    C11   S    
C25   O8    A    
C7    C8    A    
C36   H28   S    
C27   H1    S    
C25   C28   S    
C26   C27   S    
C28   C29   S    
C5    C6    A    
C33   H23   S    
C32   H16   S    
C18   C19   A    
Cu2   O4    S    
C12   O4    A    
C8    C9    A    
C23   O5    A    
N4    H24   S    
C4    C12   S    
C1    O2    A    
C16   H5    S    
C32   H17   S    
C15   C23   S    
C22   N1    A    
C24   N3    S    
C13   C14   A    
Cu1   O1    S    
C34   H27   S    
Cu2   O6    S    
C30   N4    S    
C31   H19   S    
C36   H29   S    
C3    H12   S    
C24   N2    A    
C31   H18   S    
C35   C36   S    
C34   H26   S    
C19   H8    S    
C35   H32   S    
C14   H3    S    
C16   C17   A    
C32   H15   S    
C5    H13   S    
N3    C33   S    
C18   H7    S    
C29   C30   S    
Cu1   Cu2   S    
C13   C35   S    
C2    H11   S    
C17   C18   A    
C8    H2    S    
Cu1   O5    S    
Cu2   O2    S    
C20   N2    A    
Cu1   N2    S    
Cu2   N1    S    
C22   C24   A    
C3    C4    S    
C12   O3    A    
C23   O6    A    
C9    C10   A    
C36   H30   S    
C6    H14   S    
C25   O7    A    
Cu1   O3    S    
C34   H25   S    
C35   H31   S    
C4    C26   S    
C6    C7    A    
C22   H4    S    
C2    C30   S    
N3    H20   S    
C3    C27   S    
C2    C3    S    
C9    C15   A    
C5    C10   A    
C11   C13   A    
C31   C32   S    
Cu2   O8    S    
C33   H21   S    
C17   H6    S    
C10   C11   A    
C20   C21   A    
C26   C29   S    
C27   C28   S    
C14   C15   A    
N4    C34   S    
Cu1   O7    S    
C1    O1    A    
C7    C31   S    
C4    C30   S    
C26   H9    S    
C21   N1    A    
