data_mof_unit_15867.cif
_audit_creation_date              2012-12-10T17:03:00-0500
_audit_creation_method            fapswitch 2.2
_symmetry_space_group_name_H-M    P1
_symmetry_Int_Tables_number       1
_space_group_crystal_system       triclinic
_cell_length_a                    9.825153
_cell_length_b                    11.040868
_cell_length_c                    13.444241
_cell_angle_alpha                 94.454844
_cell_angle_beta                  81.541986
_cell_angle_gamma                 111.162564
_cell_volume                      1344.78263045

loop_
_atom_site_label
_atom_site_type_symbol
_atom_type_description
_atom_site_fract_x
_atom_site_fract_y
_atom_site_fract_z
_atom_type_partial_charge
C1    C     C_R   0.556450 0.745390 0.507274 0.851665
C2    C     C_R   0.437889 0.501138 0.972057 0.081379
C3    C     C_R   0.479092 0.540503 0.870595 0.089464
C4    C     C_R   0.547972 0.537638 0.038073 0.074056
C5    C     C_R   0.693084 0.621446 0.004401 0.166929
C6    C     C_R   0.726439 0.670655 0.908024 -0.247751
C7    C     C_R   0.620731 0.632547 0.842671 -0.204027
C8    C     C_R   0.518609 0.493309 0.136724 -0.242450
C9    C     C_R   0.768861 0.616590 0.167384 -0.185132
C10   C     C_R   0.376626 0.487850 0.800102 -0.104225
C11   C     C_2   0.588228 0.884549 0.511294 -0.355298
C12   C     C_R   0.423648 0.493886 0.690710 0.772712
C13   C     C_2   0.484274 0.930555 0.498193 -0.154157
C14   C     C_2   0.411816 0.115469 0.488807 -0.361338
C15   C     C_2   0.515750 0.069488 0.502023 -0.141222
C16   C     C_2   0.916223 0.481980 0.494636 0.496217
C17   C     C_2   0.069606 0.497736 0.514796 -0.194062
C18   C     C_R   0.443545 0.254617 0.492779 0.879480
C19   C     C_R   0.577939 0.513327 0.309739 0.806427
C20   C     C_R   0.802714 0.658063 0.068554 -0.196026
C21   C     C_R   0.625482 0.536853 0.202363 -0.049953
C22   C     C_R   0.229578 0.415479 0.834290 -0.192158
C23   C     C_R   0.185416 0.388612 0.935478 -0.146690
C24   C     C_R   0.287992 0.428111 0.003498 -0.180805
Cu1   Cu    Cu3+1 0.362000 0.479240 0.482530 0.939524
Cu2   Cu    Cu3+1 0.638000 0.520760 0.517470 0.979171
H1    H     H_    0.852656 0.651490 0.217456 0.158966
H2    H     H_    0.374955 0.865530 0.484491 0.182427
H3    H     H_    0.302734 0.050126 0.475038 0.147760
H4    H     H_    0.697352 0.949874 0.524994 0.147732
H5    H     H_    0.111046 0.554592 0.580588 0.147655
H6    H     H_    0.120579 0.403528 0.389584 0.203860
H7    H     H_    0.897335 0.618776 0.596561 0.136068
H8    H     H_    0.834963 0.739271 0.882930 0.142094
H9    H     H_    0.913563 0.722080 0.043134 0.136342
H10   H     H_    0.412201 0.426210 0.165598 0.144513
H11   H     H_    0.148978 0.376118 0.782212 0.155807
H12   H     H_    0.245308 0.402137 0.080421 0.128721
H13   H     H_    0.071414 0.332982 0.960998 0.144737
H14   H     H_    0.651093 0.679055 0.770851 0.166179
H15   H     H_    0.625019 0.134504 0.515823 0.188936
N1    N     N_2   0.845330 0.551960 0.543750 -0.291221
N2    N     N_2   0.154690 0.448120 0.456210 -0.284826
O1    O     O_R   0.426290 0.668220 0.490680 -0.571558
O2    O     O_R   0.659360 0.703290 0.520190 -0.588794
O3    O     O_R   0.326580 0.473880 0.629020 -0.579007
O4    O     O_R   0.559660 0.508940 0.658530 -0.580665
O5    O     O_R   0.340640 0.296710 0.479810 -0.580264
O6    O     O_R   0.573710 0.331780 0.509320 -0.524273
O7    O     O_R   0.440340 0.491060 0.341470 -0.585273
O8    O     O_R   0.673420 0.526120 0.370980 -0.528966
O9    O     O_3   0.847455 0.392461 0.423735 -0.685394
H16   H     H_    0.886268 0.320735 0.417738 0.286712

loop_
_geom_bond_atom_site_label_1
_geom_bond_atom_site_label_2
_ccdc_geom_bond_type
C24   H12   S    
C23   C24   A    
C17   N2    D    
C13   H2    S    
C6    C7    A    
C16   N1    D    
C14   C18   S    
C1    O1    A    
C2    C4    A    
Cu1   O5    S    
C4    C8    A    
C9    C21   A    
Cu1   N2    S    
C14   C15   D    
C2    C3    A    
C18   O6    A    
C18   O5    A    
C3    C10   A    
Cu2   O8    S    
C10   C22   A    
C11   C13   D    
C19   O7    A    
C1    O2    A    
C16   O9    S    
C10   C12   S    
Cu2   O4    S    
C12   O4    A    
C23   H13   S    
H7    N1    S    
Cu1   O1    S    
C19   C21   S    
H6    N2    S    
C8    C21   A    
C3    C7    A    
C13   C15   S    
Cu2   N1    S    
C2    C24   A    
C5    C6    A    
C17   H5    S    
C15   H15   S    
C19   O8    A    
O9    H16   S    
C9    H1    S    
C12   O3    A    
C8    H10   S    
Cu2   O6    S    
C5    C20   A    
Cu1   O7    S    
C16   C17   S    
C9    C20   A    
Cu2   O2    S    
Cu1   Cu2   S    
C7    H14   S    
C22   H11   S    
Cu1   O3    S    
C20   H9    S    
C22   C23   A    
C6    H8    S    
C11   H4    S    
C14   H3    S    
C4    C5    A    
C1    C11   S    
