data_mof_unit_36418.cif
_audit_creation_date              2012-12-10T19:11:32-0500
_audit_creation_method            fapswitch 2.2
_symmetry_space_group_name_H-M    P1
_symmetry_Int_Tables_number       1
_space_group_crystal_system       triclinic
_cell_length_a                    7.785101
_cell_length_b                    9.096947
_cell_length_c                    17.351194
_cell_angle_alpha                 89.996135
_cell_angle_beta                  86.295617
_cell_angle_gamma                 90.004707
_cell_volume                      1226.25544487

loop_
_atom_site_label
_atom_site_type_symbol
_atom_type_description
_atom_site_fract_x
_atom_site_fract_y
_atom_site_fract_z
_atom_type_partial_charge
C1    C     C_R   0.500004 0.779973 0.500001 0.848832
C2    C     C_R   0.499996 0.220027 0.499999 0.848832
C3    C     C_1   0.500005 0.934633 0.500001 -0.166617
C4    C     C_1   0.499995 0.065367 0.499999 -0.166617
C5    C     C_R   0.478357 0.501414 0.650281 0.798540
C6    C     C_R   0.521643 0.498586 0.349719 0.798540
C7    C     C_R   0.468705 0.509670 0.734468 -0.059363
C8    C     C_R   0.531295 0.490332 0.265531 -0.059362
C9    C     C_R   0.614728 0.477099 0.773991 -0.165644
C10   C     C_R   0.385272 0.522903 0.226009 -0.165645
C11   C     C_R   0.610114 0.490670 0.853398 -0.151694
C12   C     C_R   0.389886 0.509335 0.146602 -0.151696
C13   C     C_R   0.459574 0.537300 0.895128 0.079607
C14   C     C_R   0.540428 0.462708 0.104872 0.079608
C15   C     C_R   0.310167 0.571953 0.855911 0.000726
C16   C     C_R   0.689834 0.428055 0.144088 0.000732
C17   C     C_R   0.317277 0.556363 0.775311 -0.230652
C18   C     C_R   0.682723 0.443642 0.224689 -0.230651
C19   C     C_2   0.465441 0.552730 0.978968 -0.161926
C20   C     C_2   0.534562 0.447278 0.021031 -0.161928
Cu1   Cu    Cu3+1 0.330920 0.500000 0.500000 1.013598
Cu2   Cu    Cu3+1 0.669080 0.500000 0.500000 1.013598
H1    H     H_    0.273781 0.533043 0.117668 0.187683
H2    H     H_    0.726220 0.466962 0.882332 0.187684
H3    H     H_    0.733380 0.441734 0.743482 0.169541
H4    H     H_    0.266620 0.558266 0.256518 0.169541
H5    H     H_    0.794841 0.418112 0.256080 0.196741
H6    H     H_    0.205160 0.581892 0.743920 0.196743
H7    H     H_    0.586550 0.348148 0.993507 0.180051
H8    H     H_    0.413454 0.651860 0.006493 0.180057
N1    N     N_1   0.923170 0.500000 0.500010 -0.047703
N2    N     N_1   0.076830 0.500000 0.499990 -0.047703
O1    O     O_R   0.357240 0.711600 0.500000 -0.577511
O2    O     O_R   0.642760 0.288400 0.500000 -0.577511
O3    O     O_R   0.642760 0.711600 0.500000 -0.574959
O4    O     O_R   0.357240 0.288400 0.500000 -0.574960
O5    O     O_R   0.340660 0.500000 0.613590 -0.586893
O6    O     O_R   0.659340 0.500000 0.386410 -0.586893
O7    O     O_R   0.626230 0.500000 0.613600 -0.586611
O8    O     O_R   0.373770 0.500000 0.386400 -0.586611
C21   C     C_2   0.144871 0.621779 0.895978 0.844768
O9    O     O_2   0.118059 0.607137 0.965714 -0.578480
O10   O     O_R   0.017217 0.684207 0.853128 -0.774368
H9    H     H_    0.910834 0.713412 0.886416 0.342333
C22   C     C_2   0.855131 0.378232 0.104022 0.844754
O11   O     O_2   0.881949 0.392889 0.034286 -0.578478
O12   O     O_R   0.982780 0.315791 0.146869 -0.774366
H10   H     H_    0.089165 0.286591 0.113582 0.342332

loop_
_geom_bond_atom_site_label_1
_geom_bond_atom_site_label_2
_ccdc_geom_bond_type
C16   C22   S    
C2    C4    S    
O10   H9    S    
C6    O6    A    
C15   C17   A    
C5    O5    A    
C21   O10   S    
C21   O9    D    
C19   C20   D    
C10   H4    S    
C13   C15   A    
C9    H3    S    
Cu1   O4    S    
C22   O11   D    
Cu2   O3    S    
C9    C11   A    
C12   H1    S    
C1    O3    A    
Cu1   O8    S    
C10   C12   A    
Cu2   O7    S    
C8    C10   A    
C12   C14   A    
C6    O8    A    
C20   H7    S    
C22   O12   S    
Cu2   O2    S    
Cu1   N2    S    
C14   C16   A    
Cu1   O1    S    
Cu2   N1    S    
C13   C19   S    
C1    O1    A    
C3    C4    T    
Cu2   O6    S    
C14   C20   S    
C11   H2    S    
C11   C13   A    
Cu1   O5    S    
C15   C21   S    
C16   C18   A    
C2    O4    A    
C1    C3    S    
C7    C9    A    
C5    O7    A    
C5    C7    S    
C6    C8    S    
C17   H6    S    
C2    O2    A    
Cu1   Cu2   S    
C19   H8    S    
N1    N2    T    
C8    C18   A    
C18   H5    S    
O12   H10   S    
C7    C17   A    
