data_mof_unit_45195.cif
_audit_creation_date              2012-12-11T14:44:18-0500
_audit_creation_method            fapswitch 2.2
_symmetry_space_group_name_H-M    P1
_symmetry_Int_Tables_number       1
_space_group_crystal_system       triclinic
_cell_length_a                    24.863968
_cell_length_b                    16.719006
_cell_length_c                    15.631072
_cell_angle_alpha                 90.000039
_cell_angle_beta                  50.14081
_cell_angle_gamma                 90.000043
_cell_volume                      4987.89128287

loop_
_atom_site_label
_atom_site_type_symbol
_atom_type_description
_atom_site_fract_x
_atom_site_fract_y
_atom_site_fract_z
_atom_type_partial_charge
C1    C     C_R   0.352504 0.147472 0.755121 -0.201112
C2    C     C_3   0.699116 0.705263 0.605741 -0.164719
C3    C     C_3   0.544213 0.913519 0.145799 -1.095958
C4    C     C_3   0.030452 0.648376 0.179972 -1.085841
C5    C     C_3   0.955786 0.413521 0.854202 -1.095958
C6    C     C_3   0.969547 0.648375 0.820030 -1.085843
C7    C     C_3   0.044214 0.413521 0.145798 -1.095958
C8    C     C_3   0.756679 0.202904 0.602815 -0.163395
C9    C     C_3   0.300866 0.705296 0.394270 -0.164712
C10   C     C_3   0.743410 0.703033 0.397128 -0.163382
C11   C     C_3   0.199215 0.205450 0.605678 -0.164686
C12   C     C_3   0.256608 0.703007 0.602861 -0.163383
C13   C     C_3   0.800797 0.205426 0.394314 -0.164692
C14   C     C_2   0.642725 0.263371 0.145779 -0.196833
C15   C     C_2   0.303140 0.853626 0.986466 -0.194729
C16   C     C_2   0.357275 0.263371 0.854221 -0.196833
C17   C     C_R   0.666403 0.889122 0.197736 -0.207842
C18   C     C_2   0.696860 0.853626 0.013534 -0.194729
C19   C     C_2   0.142723 0.763373 0.145783 -0.196835
C20   C     C_2   0.803140 0.353627 0.986467 -0.194731
C21   C     C_2   0.857277 0.763373 0.854217 -0.196833
C22   C     C_2   0.196860 0.353628 0.013533 -0.194731
C23   C     C_2   0.688533 0.308632 0.141899 -0.125920
C24   C     C_2   0.233979 0.861001 0.046560 -0.122548
C25   C     C_2   0.311467 0.308632 0.858101 -0.125921
C26   C     C_2   0.766021 0.861001 0.953440 -0.122547
C27   C     C_2   0.188534 0.808633 0.141900 -0.125920
C28   C     C_R   0.647496 0.147472 0.244879 -0.201114
C29   C     C_2   0.733978 0.361001 0.046560 -0.122547
C30   C     C_2   0.811466 0.808633 0.858100 -0.125921
C31   C     C_2   0.266022 0.361001 0.953440 -0.122546
C32   C     C_R   0.617441 0.105932 0.589197 -0.133592
C33   C     C_R   0.413537 0.849325 0.408798 -0.157626
C34   C     C_R   0.382560 0.105934 0.410803 -0.133588
C35   C     C_R   0.586464 0.849325 0.591202 -0.157636
C36   C     C_R   0.117444 0.605923 0.589195 -0.133609
C37   C     C_R   0.913543 0.349322 0.408797 -0.157592
C38   C     C_R   0.882555 0.605920 0.410805 -0.133611
C39   C     C_R   0.333597 0.889122 0.802264 -0.207844
C40   C     C_R   0.086456 0.349322 0.591203 -0.157585
C41   C     C_R   0.689612 0.108049 0.404747 -0.141160
C42   C     C_R   0.337280 0.852096 0.594239 -0.117054
C43   C     C_R   0.310388 0.108052 0.595253 -0.141166
C44   C     C_R   0.662722 0.852097 0.405760 -0.117045
C45   C     C_R   0.189616 0.608036 0.404746 -0.141138
C46   C     C_R   0.837287 0.352091 0.594236 -0.117080
C47   C     C_R   0.810383 0.608032 0.595255 -0.141129
C48   C     C_R   0.162712 0.352090 0.405764 -0.117086
C49   C     C_R   0.562426 0.141106 0.234253 0.338567
C50   C     C_R   0.852505 0.647472 0.755118 -0.201117
C51   C     C_R   0.421054 0.895747 0.805793 0.314418
C52   C     C_R   0.437574 0.141106 0.765746 0.338565
C53   C     C_R   0.578946 0.895746 0.194207 0.314416
C54   C     C_R   0.062424 0.641108 0.234256 0.338554
C55   C     C_R   0.921054 0.395747 0.805793 0.314407
C56   C     C_R   0.937575 0.641108 0.765744 0.338556
C57   C     C_R   0.078946 0.395747 0.194206 0.314408
C58   C     C_R   0.382790 0.188310 0.791606 0.102570
C59   C     C_R   0.648517 0.874358 0.131994 0.110546
C60   C     C_R   0.617210 0.188310 0.208394 0.102570
C61   C     C_R   0.166403 0.389122 0.197736 -0.207847
C62   C     C_R   0.351483 0.874358 0.868006 0.110546
C63   C     C_R   0.882791 0.688312 0.791602 0.102572
C64   C     C_R   0.148517 0.374359 0.131993 0.110549
C65   C     C_R   0.117209 0.688312 0.208398 0.102571
C66   C     C_R   0.851483 0.374359 0.868007 0.110549
C67   C     C_R   0.683600 0.125314 0.495698 0.024553
C68   C     C_R   0.363058 0.805688 0.502431 0.024088
C69   C     C_R   0.316402 0.125319 0.504301 0.024553
C70   C     C_R   0.636945 0.805690 0.497568 0.024092
C71   C     C_R   0.183606 0.625291 0.495695 0.024534
C72   C     C_R   0.147495 0.647472 0.244881 -0.201115
C73   C     C_R   0.863071 0.305678 0.502428 0.024070
C74   C     C_R   0.816392 0.625286 0.504305 0.024531
C75   C     C_R   0.136926 0.305677 0.497573 0.024067
C76   C     C_3   0.285581 0.235656 0.430374 -0.152771
C77   C     C_3   0.656361 0.672742 0.572802 -0.156718
C78   C     C_3   0.714423 0.235666 0.569600 -0.152757
C79   C     C_3   0.343643 0.672763 0.427162 -0.156730
C80   C     C_3   0.785552 0.735739 0.430577 -0.152675
C81   C     C_3   0.156333 0.172862 0.573009 -0.156784
C82   C     C_3   0.214442 0.735725 0.569459 -0.152691
C83   C     C_R   0.833597 0.389122 0.802264 -0.207847
C84   C     C_3   0.843663 0.172847 0.427017 -0.156774
C85   C     C_3   0.720825 0.778952 0.531333 -0.135289
C86   C     C_3   0.222230 0.128267 0.471669 -0.146584
C87   C     C_3   0.279154 0.778964 0.468712 -0.135277
C88   C     C_3   0.777755 0.128271 0.528365 -0.146591
C89   C     C_3   0.220942 0.279020 0.531073 -0.135207
C90   C     C_3   0.722349 0.628298 0.471403 -0.146639
C91   C     C_3   0.779072 0.279011 0.468894 -0.135217
C92   C     C_3   0.277671 0.628293 0.528550 -0.146632
C93   C     C_3   0.678760 0.746119 0.498185 0.184757
C94   C     C_3   0.243308 0.202885 0.397193 -0.163394
C95   C     C_3   0.263794 0.162334 0.504801 0.184752
C96   C     C_3   0.321242 0.746120 0.501812 0.184758
C97   C     C_3   0.736206 0.162330 0.495199 0.184753
C98   C     C_3   0.178749 0.246121 0.498195 0.184756
C99   C     C_3   0.763786 0.662301 0.504805 0.184753
C100  C     C_3   0.821249 0.246121 0.501806 0.184756
C101  C     C_3   0.236212 0.662307 0.495196 0.184754
C102  C     C_3   0.530457 0.148371 0.179963 -1.085857
C103  C     C_3   0.455787 0.913519 0.854201 -1.095960
C104  C     C_3   0.469544 0.148372 0.820036 -1.085855
H1    H     H_    0.306495 0.163724 0.765894 0.114716
H2    H     H_    0.441110 0.831647 0.323600 0.129702
H3    H     H_    0.398489 0.100094 0.328824 0.113674
H4    H     H_    0.558891 0.831647 0.676399 0.129704
H5    H     H_    0.101513 0.600084 0.671175 0.113686
H6    H     H_    0.941115 0.331645 0.323599 0.129695
H7    H     H_    0.898486 0.600082 0.328825 0.113687
H8    H     H_    0.058884 0.331645 0.676401 0.129694
H9    H     H_    0.737048 0.107018 0.318570 0.088799
H10   H     H_    0.294268 0.838142 0.680364 0.093960
H11   H     H_    0.262952 0.107021 0.681430 0.088802
H12   H     H_    0.718619 0.890696 0.171018 0.105870
H13   H     H_    0.705733 0.838144 0.319635 0.093953
H14   H     H_    0.237050 0.607002 0.318568 0.088789
H15   H     H_    0.794274 0.338135 0.680360 0.093983
H16   H     H_    0.762949 0.606998 0.681433 0.088786
H17   H     H_    0.205725 0.338133 0.319641 0.093988
H18   H     H_    0.719897 0.841732 0.555580 0.113721
H19   H     H_    0.224305 0.065109 0.447816 0.110378
H20   H     H_    0.280065 0.841751 0.444504 0.113721
H21   H     H_    0.775668 0.065118 0.552245 0.110380
H22   H     H_    0.220109 0.341841 0.555100 0.113725
H23   H     H_    0.693505 0.163724 0.234106 0.114716
H24   H     H_    0.724521 0.565179 0.447333 0.110381
H25   H     H_    0.779917 0.341827 0.444839 0.113724
H26   H     H_    0.275517 0.565168 0.552583 0.110380
H27   H     H_    0.339303 0.261021 0.372400 0.113204
H28   H     H_    0.602348 0.648251 0.630279 0.111811
H29   H     H_    0.660704 0.261042 0.627552 0.113206
H30   H     H_    0.397661 0.648286 0.369655 0.111809
H31   H     H_    0.839249 0.761188 0.372775 0.113213
H32   H     H_    0.102295 0.148454 0.630659 0.111797
H33   H     H_    0.160741 0.761159 0.627290 0.113211
H34   H     H_    0.281381 0.890696 0.828982 0.105870
H35   H     H_    0.897698 0.148428 0.369389 0.111799
H36   H     H_    0.260211 0.202507 0.312015 0.110599
H37   H     H_    0.681780 0.705940 0.691195 0.105101
H38   H     H_    0.739767 0.202542 0.687999 0.110596
H39   H     H_    0.318186 0.705998 0.308826 0.105102
H40   H     H_    0.760398 0.702784 0.311894 0.110566
H41   H     H_    0.181960 0.206264 0.691079 0.105107
H42   H     H_    0.239636 0.702736 0.688084 0.110573
H43   H     H_    0.818061 0.206224 0.308907 0.105107
H44   H     H_    0.212151 0.890830 0.013215 0.129487
H45   H     H_    0.806497 0.663725 0.765889 0.114722
H46   H     H_    0.702812 0.295006 0.192996 0.132172
H47   H     H_    0.787849 0.890830 0.986785 0.129487
H48   H     H_    0.297188 0.295006 0.807004 0.132171
H49   H     H_    0.712150 0.390830 0.013214 0.129488
H50   H     H_    0.202814 0.795005 0.192996 0.132174
H51   H     H_    0.287850 0.390831 0.986786 0.129487
H52   H     H_    0.797186 0.795005 0.807004 0.132175
H53   H     H_    0.324211 0.823032 0.020730 0.138300
H54   H     H_    0.629643 0.277459 0.093141 0.139420
H55   H     H_    0.675789 0.823032 0.979270 0.138301
H56   H     H_    0.218619 0.390696 0.171018 0.105871
H57   H     H_    0.370358 0.277460 0.906859 0.139420
H58   H     H_    0.824210 0.323034 0.020731 0.138297
H59   H     H_    0.129640 0.777463 0.093147 0.139419
H60   H     H_    0.175790 0.323034 0.979269 0.138297
H61   H     H_    0.870360 0.777462 0.906853 0.139419
H62   H     H_    0.489968 0.195986 0.221224 0.252787
H63   H     H_    0.571406 0.164096 0.090697 0.250171
H64   H     H_    0.508706 0.090078 0.181701 0.259251
H65   H     H_    0.421583 0.952911 0.928143 0.267473
H66   H     H_    0.465164 0.856922 0.879925 0.246752
H67   H     H_    0.193503 0.663725 0.234110 0.114721
H68   H     H_    0.506348 0.944837 0.792576 0.254933
H69   H     H_    0.510033 0.195986 0.778775 0.252788
H70   H     H_    0.428595 0.164096 0.909302 0.250170
H71   H     H_    0.491294 0.090078 0.818299 0.259251
H72   H     H_    0.578417 0.952910 0.071856 0.267473
H73   H     H_    0.534836 0.856922 0.120076 0.246751
H74   H     H_    0.493652 0.944838 0.207423 0.254933
H75   H     H_    0.989960 0.695987 0.221242 0.252794
H76   H     H_    0.071398 0.664107 0.090708 0.250168
H77   H     H_    0.008705 0.590081 0.181703 0.259249
H78   H     H_    0.781381 0.390696 0.828982 0.105870
H79   H     H_    0.921583 0.452914 0.928143 0.267474
H80   H     H_    0.965163 0.356924 0.879927 0.246749
H81   H     H_    0.006348 0.444838 0.792577 0.254934
H82   H     H_    0.010038 0.695987 0.778762 0.252792
H83   H     H_    0.928600 0.664104 0.909295 0.250168
H84   H     H_    0.991294 0.590081 0.818297 0.259249
H85   H     H_    0.078417 0.452914 0.071857 0.267474
H86   H     H_    0.034837 0.356924 0.120073 0.246750
H87   H     H_    0.993652 0.444838 0.207423 0.254934
H88   H     H_    0.601511 0.100093 0.671175 0.113676
N1    N     N_R   0.389620 0.081040 0.705440 -0.058685
N2    N     N_R   0.417680 0.920160 0.443370 -0.038823
N3    N     N_R   0.417680 0.079840 0.443370 -0.034645
N4    N     N_R   0.582320 0.920160 0.556630 -0.038821
N5    N     N_R   0.082320 0.579840 0.556630 -0.034645
N6    N     N_R   0.917680 0.420160 0.443370 -0.038825
N7    N     N_R   0.917680 0.579840 0.443370 -0.034645
N8    N     N_R   0.082320 0.420160 0.556630 -0.038826
N9    N     N_R   0.627920 0.078930 0.443400 -0.035474
N10   N     N_R   0.372080 0.921070 0.556600 -0.036842
N11   N     N_R   0.372080 0.078930 0.556600 -0.035473
N12   N     N_R   0.610380 0.918960 0.294560 -0.055483
N13   N     N_R   0.627920 0.921070 0.443400 -0.036841
N14   N     N_R   0.127920 0.578930 0.443400 -0.035476
N15   N     N_R   0.872080 0.421070 0.556600 -0.036843
N16   N     N_R   0.872080 0.578930 0.556600 -0.035477
N17   N     N_R   0.127920 0.421070 0.443400 -0.036844
N18   N     N_R   0.555090 0.077730 0.294590 -0.058240
N19   N     N_R   0.444910 0.922270 0.705410 -0.056751
N20   N     N_R   0.444910 0.077730 0.705410 -0.058240
N21   N     N_R   0.555090 0.922270 0.294590 -0.056751
N22   N     N_R   0.055090 0.577730 0.294590 -0.058238
N23   N     N_R   0.610380 0.081040 0.294560 -0.058685
N24   N     N_R   0.944910 0.422270 0.705410 -0.056750
N25   N     N_R   0.944910 0.577730 0.705410 -0.058238
N26   N     N_R   0.055090 0.422270 0.294590 -0.056750
N27   N     N_R   0.389620 0.918960 0.705440 -0.055483
N28   N     N_R   0.889620 0.581040 0.705440 -0.058685
N29   N     N_R   0.110380 0.418960 0.294560 -0.055480
N30   N     N_R   0.110380 0.581040 0.294560 -0.058685
N31   N     N_R   0.889620 0.418960 0.705440 -0.055480
N32   N     N_R   0.582320 0.079840 0.556630 -0.034645
Ni1   Ni    Ni4+2 0.382970 1.000000 0.629840 0.202464
Ni2   Ni    Ni4+2 0.617030 1.000000 0.370160 0.202465
Ni3   Ni    Ni4+2 0.882970 0.500000 0.629840 0.202462
Ni4   Ni    Ni4+2 0.117030 0.500000 0.370160 0.202462
Ni5   Ni    Ni4+2 0.514540 1.000000 0.629840 0.205622
Ni6   Ni    Ni4+2 0.485460 1.000000 0.370160 0.205622
Ni7   Ni    Ni4+2 0.014540 0.500000 0.629840 0.205621
Ni8   Ni    Ni4+2 0.985460 0.500000 0.370160 0.205621

loop_
_geom_bond_atom_site_label_1
_geom_bond_atom_site_label_2
_ccdc_geom_bond_type
C45   H14   S    
C25   C31   S    
C73   C100  S    
C42   C68   A    
C102  H63   S    
N20   Ni5   S    
C45   C71   A    
C94   H36   S    
N2    Ni6   S    
C1    N1    A    
C18   C26   D    
C24   C27   S    
C5    H81   S    
N22   Ni8   S    
C9    H39   S    
C18   C59   S    
C41   C67   A    
C54   C65   A    
C11   C81   S    
N25   N28   A    
C48   N17   A    
C13   C84   S    
C68   C96   S    
C80   H31   S    
C47   N16   A    
C57   C64   A    
C25   H48   S    
C34   H3    S    
C23   C29   S    
C20   C66   S    
C26   H47   S    
C3    H74   S    
C15   H53   S    
C82   H33   S    
N16   Ni3   S    
C87   H20   S    
C76   H27   S    
N6    Ni8   S    
C55   N24   A    
N11   Ni1   S    
C81   C98   S    
C94   C98   S    
C51   C103  S    
N18   N23   A    
N2    N10   A    
C6    H84   S    
C50   N28   A    
N24   Ni7   S    
C21   H61   S    
C32   H88   S    
C2    C85   S    
C9    C79   S    
C12   H42   S    
N4    N13   A    
C39   C62   A    
C44   N13   A    
C35   H4    S    
C86   C94   S    
C76   C94   S    
C66   C83   A    
C85   C93   S    
C15   C24   D    
C42   H10   S    
C35   C70   A    
C49   N18   A    
C103  H66   S    
C102  H64   S    
C7    H86   S    
C44   C70   A    
C18   H55   S    
N8    Ni7   S    
C91   C100  S    
N10   Ni1   S    
C19   C27   D    
C5    H80   S    
C88   C97   S    
C28   H23   S    
C76   C89   S    
C89   H22   S    
C83   N31   A    
C28   N23   A    
C30   H52   S    
C71   C101  S    
C39   H34   S    
C72   N30   A    
C43   C69   A    
C9    C101  S    
C13   C91   S    
C8    C78   S    
C50   C63   A    
C48   C75   A    
C7    H87   S    
N5    N14   A    
N9    Ni2   S    
C51   C62   A    
N28   Ni3   S    
C4    H76   S    
C56   N25   A    
C32   N32   A    
C12   C92   S    
C104  H71   S    
C20   C29   D    
C28   C60   A    
C53   C59   A    
C46   N15   A    
C77   C90   S    
C22   C31   D    
C17   H12   S    
C84   C100  S    
C72   H67   S    
C84   C88   S    
N13   Ni2   S    
C70   C93   S    
C36   N5    A    
C84   H35   S    
C40   H8    S    
C24   H44   S    
C61   H56   S    
C41   H9    S    
C49   C102  S    
C10   C80   S    
C11   H41   S    
N1    N20   A    
C19   H59   S    
C40   N8    A    
C10   C93   S    
N12   N21   A    
C75   C98   S    
N3    Ni6   S    
C43   H11   S    
C8    C88   S    
C77   H28   S    
C14   C23   D    
C17   N12   A    
C92   H26   S    
N7    Ni8   S    
C45   N14   A    
C80   C85   S    
C22   H60   S    
C11   C89   S    
C31   H51   S    
C81   H32   S    
N29   Ni4   S    
N30   Ni4   S    
C16   H57   S    
C20   H58   S    
C87   C96   S    
C78   C97   S    
N18   Ni6   S    
C56   C63   A    
C12   C82   S    
C85   H18   S    
C10   H40   S    
C37   N6    A    
N27   Ni1   S    
C49   C60   A    
C34   C69   A    
N26   Ni8   S    
C79   C92   S    
C74   C99   S    
C52   C58   A    
C92   C101  S    
C17   C59   A    
C32   C67   A    
C35   N4    A    
N15   Ni3   S    
C47   H16   S    
N17   Ni4   S    
C23   H46   S    
C14   H54   S    
C2    C99   S    
C26   C30   S    
C16   C58   S    
C80   C99   S    
C43   N11   A    
C103  H68   S    
C4    H77   S    
C42   N10   A    
N22   N30   A    
C37   H6    S    
C13   H43   S    
C4    H75   S    
N12   Ni2   S    
C36   H5    S    
C90   C99   S    
C48   H17   S    
C55   C66   A    
N19   N27   A    
N26   N29   A    
C29   H49   S    
C38   C74   A    
C11   C95   S    
C16   C25   D    
C54   N22   A    
C79   H30   S    
C37   C73   A    
C52   C104  S    
C53   N21   A    
N19   Ni5   S    
C4    C54   S    
N6    N15   A    
C5    C55   S    
C7    H85   S    
C33   H2    S    
C81   C86   S    
C47   C74   A    
C6    C56   S    
C69   C95   S    
C39   N27   A    
C33   N2    A    
C104  H70   S    
C36   C71   A    
C82   C101  S    
C104  H69   S    
C91   H25   S    
C78   C91   S    
C65   C72   A    
C14   C60   S    
C21   C30   D    
C6    H82   S    
N8    N17   A    
C40   C75   A    
C89   C98   S    
N23   Ni2   S    
C3    H73   S    
N24   N31   A    
N1    Ni1   S    
C79   C96   S    
C76   C95   S    
C2    C77   S    
N32   Ni5   S    
C9    C87   S    
C61   C64   A    
N14   Ni4   S    
C34   N3    A    
C3    C53   S    
C50   H45   S    
C8    C100  S    
C44   H13   S    
C27   H50   S    
C6    H83   S    
C77   C93   S    
N7    N16   A    
C15   C62   S    
C7    C57   S    
C46   H15   S    
C19   C65   S    
N31   Ni3   S    
C13   C97   S    
C78   H29   S    
C61   N29   A    
C21   C63   S    
C88   H21   S    
C86   C95   S    
C67   C97   S    
C22   C64   S    
C51   N19   A    
C3    H72   S    
C10   C90   S    
N3    N11   A    
N4    Ni5   S    
C83   H78   S    
C102  H62   S    
C57   N26   A    
C86   H19   S    
C52   N20   A    
C2    H37   S    
C90   H24   S    
C38   N7    A    
C12   C96   S    
C103  H65   S    
C8    H38   S    
N9    N32   A    
C38   H7    S    
C1    C58   A    
C41   N9    A    
C5    H79   S    
C46   C73   A    
N25   Ni7   S    
N21   Ni6   S    
C82   C87   S    
C33   C68   A    
C1    H1    S    
N5    Ni7   S    
