data_mof_unit_25690.cif
_audit_creation_date              2012-12-11T15:55:47-0500
_audit_creation_method            fapswitch 2.2
_symmetry_space_group_name_H-M    P1
_symmetry_Int_Tables_number       1
_space_group_crystal_system       triclinic
_cell_length_a                    6.933783
_cell_length_b                    14.572174
_cell_length_c                    16.072896
_cell_angle_alpha                 90.063118
_cell_angle_beta                  89.82117
_cell_angle_gamma                 90.206235
_cell_volume                      1623.99071459

loop_
_atom_site_label
_atom_site_type_symbol
_atom_type_description
_atom_site_fract_x
_atom_site_fract_y
_atom_site_fract_z
_atom_type_partial_charge
O1    O     O_R   0.505680 0.583900 0.413320 -0.557164
O2    O     O_R   0.176010 0.594950 0.586080 -0.534018
O3    O     O_R   0.005680 0.416100 0.586680 -0.535285
C1    C     C_R   0.344807 0.614765 0.616959 0.730611
O4    O     O_R   0.175960 0.594930 0.413930 -0.542316
O5    O     O_R   0.005640 0.416080 0.413300 -0.541479
C2    C     C_R   0.346559 0.615998 0.383916 0.677002
O6    O     O_R   0.505720 0.583920 0.586700 -0.532350
O7    O     O_3   0.339190 0.441320 0.500000 -0.371398
V1    V     V_3+5 0.064350 0.510890 0.500000 1.441285
O8    O     O_R   0.675920 0.405050 0.413920 -0.545827
C3    C     C_R   0.844926 0.383093 0.384884 0.694285
O9    O     O_R   0.675960 0.405070 0.586070 -0.534302
C4    C     C_R   0.844749 0.382173 0.614235 0.717962
V2    V     V_3+5 0.564340 0.489110 0.500000 1.433394
O10   O     O_3   0.839370 0.558680 0.500000 -0.377951
C5    C     C_R   0.006914 0.316922 0.740866 0.114567
C6    C     C_R   0.853145 0.316162 0.684436 -0.133044
C7    C     C_R   0.701936 0.253615 0.699833 -0.170315
H1    H     H_    0.579688 0.250733 0.658407 0.132792
C8    C     C_R   0.713262 0.189794 0.765537 -0.173113
H2    H     H_    0.598815 0.139824 0.772828 0.124156
C9    C     C_R   0.876380 0.186399 0.817716 -0.110655
C10   C     C_R   0.018582 0.253575 0.805628 0.112959
C11   C     C_3   0.230570 0.242720 0.794276 -0.417122
C12   C     C_3   0.217965 0.312188 0.724101 -0.386226
H3    H     H_    0.268668 0.172632 0.772633 0.163738
H4    H     H_    0.313394 0.268187 0.848768 0.186404
H5    H     H_    0.249739 0.282740 0.661754 0.165765
H6    H     H_    0.292371 0.378023 0.738234 0.208419
C13   C     C_R   0.024920 0.246542 0.198729 -0.073904
H7    H     H_    0.147247 0.248595 0.156687 0.140277
C14   C     C_R   0.014987 0.311556 0.262792 -0.108773
H8    H     H_    0.130712 0.361207 0.268971 0.125777
C15   C     C_R   0.855755 0.313974 0.316963 -0.061943
C16   C     C_R   0.708778 0.248534 0.306966 -0.179792
H9    H     H_    0.588032 0.247954 0.349999 0.136834
C17   C     C_R   0.720910 0.180193 0.245238 -0.081605
C18   C     C_R   0.878379 0.180546 0.188135 -0.130397
C19   C     C_R   0.210850 0.747106 0.698197 -0.108119
H10   H     H_    0.089264 0.749035 0.656095 0.131484
C20   C     C_R   0.220884 0.812376 0.762099 -0.129839
H11   H     H_    0.106000 0.862142 0.768118 0.114463
C21   C     C_R   0.379092 0.814710 0.816454 -0.068863
C22   C     C_R   0.524768 0.749144 0.806794 -0.192872
H12   H     H_    0.643725 0.748161 0.850420 0.148713
C23   C     C_R   0.512027 0.680463 0.745485 -0.006850
C24   C     C_R   0.356118 0.680768 0.688093 -0.114597
C25   C     C_R   0.203452 0.739224 0.295399 -0.117358
H13   H     H_    0.072330 0.734372 0.331894 0.114648
C26   C     C_R   0.210523 0.803016 0.230454 -0.110104
H14   H     H_    0.085081 0.845155 0.218856 0.118290
C27   C     C_R   0.378194 0.813485 0.182190 -0.068401
C28   C     C_R   0.536993 0.757651 0.199078 -0.125146
H15   H     H_    0.666710 0.764839 0.161741 0.149255
C29   C     C_R   0.532900 0.692794 0.263633 0.002898
C30   C     C_R   0.363100 0.683445 0.313971 -0.122017
O11   O     O_R   0.229200 0.915950 0.913350 -0.541650
O12   O     O_R   0.559090 0.905000 0.086080 -0.536651
O13   O     O_R   0.729280 0.083880 0.086680 -0.531327
C31   C     C_R   0.389494 0.882613 0.114606 0.758695
O14   O     O_R   0.558920 0.904980 0.913920 -0.547356
O15   O     O_R   0.729110 0.083860 0.913300 -0.542451
C32   C     C_R   0.389925 0.883396 0.884652 0.680624
O16   O     O_R   0.229360 0.915970 0.086730 -0.542732
O17   O     O_3   0.395680 0.058580 0.000030 -0.367298
V3    V     V_3+5 0.670570 0.989070 0.999990 1.447964
O18   O     O_R   0.058820 0.094950 0.913870 -0.544741
C33   C     C_R   0.890009 0.116713 0.884786 0.686755
O19   O     O_R   0.058990 0.094970 0.086020 -0.529176
C34   C     C_R   0.890012 0.115014 0.116705 0.689858
V4    V     V_3+5 0.170560 0.010930 0.999930 1.452178
O20   O     O_3   0.895590 0.941310 0.999960 -0.372289
C35   C     C_2   0.572470 0.106458 0.246239 0.791169
O21   O     O_2   0.402059 0.126678 0.250644 -0.549975
O22   O     O_R   0.623900 0.013752 0.245648 -0.651321
H16   H     H_    0.768282 0.003867 0.248484 0.239269
C36   C     C_2   0.652009 0.604347 0.749828 0.754486
O23   O     O_2   0.823154 0.620498 0.761173 -0.565550
O24   O     O_R   0.585870 0.513790 0.746521 -0.668620
H17   H     H_    0.691503 0.468109 0.758938 0.283977
C37   C     C_2   0.709783 0.636893 0.274341 0.327213
H18   H     H_    0.770967 0.624516 0.335062 0.084417
O25   O     O_2   0.795254 0.606847 0.213654 -0.528299

loop_
_geom_bond_atom_site_label_1
_geom_bond_atom_site_label_2
_ccdc_geom_bond_type
C9    C33   S    
C15   C16   A    
C1    O6    A    
C27   C28   A    
C21   C32   S    
C11   H4    S    
C35   O22   S    
O14   V3    S    
C5    C12   S    
C16   H9    S    
C7    C8    A    
O5    C3    A    
C17   C18   A    
C36   O24   S    
V2    O10   S    
C25   C30   A    
C29   C30   A    
C6    C7    A    
C4    C6    S    
O14   C32   A    
O12   V3    S    
O8    V2    S    
O17   V4    S    
C7    H1    S    
O13   V3    S    
O18   C33   A    
C25   C26   A    
C9    C10   A    
C13   C14   A    
O19   C34   A    
V3    O20   S    
O7    V1    S    
C19   C20   A    
O17   V3    S    
O9    C4    A    
C20   C21   A    
C5    C6    A    
O15   V3    S    
C22   C23   A    
O11   C32   A    
C28   C29   A    
O12   C31   A    
C5    C10   A    
C35   O21   D    
C26   H14   S    
C23   C24   A    
O15   C33   A    
C10   C11   S    
O4    C2    A    
C36   O23   D    
O24   H17   S    
O13   C34   A    
C11   C12   S    
C22   H12   S    
C26   C27   A    
O2    C1    A    
C13   H7    S    
O18   V4    S    
C14   H8    S    
O22   H16   S    
C3    C15   S    
O3    C4    A    
O1    V2    S    
C19   H10   S    
C37   H18   S    
O6    V2    S    
C37   O25   D    
O9    V2    S    
C20   H11   S    
C27   C31   S    
O2    V1    S    
C21   C22   A    
C1    C24   S    
C17   C35   S    
C19   C24   A    
C28   H15   S    
O1    C2    A    
V4    O20   S    
O5    V1    S    
O8    C3    A    
C29   C37   S    
C11   H3    S    
O16   V4    S    
C8    C9    A    
O7    V2    S    
O4    V1    S    
O3    V1    S    
V1    O10   S    
O11   V4    S    
C16   C17   A    
C14   C15   A    
C13   C18   A    
C31   O16   A    
C12   H5    S    
C25   H13   S    
C18   C34   S    
O19   V4    S    
C23   C36   S    
C8    H2    S    
C2    C30   S    
C12   H6    S    
