data_mof_unit_21118.cif
_audit_creation_date              2012-12-11T14:36:10-0500
_audit_creation_method            fapswitch 2.2
_symmetry_space_group_name_H-M    P1
_symmetry_Int_Tables_number       1
_space_group_crystal_system       triclinic
_cell_length_a                    13.538409
_cell_length_b                    13.553521
_cell_length_c                    27.478793
_cell_angle_alpha                 90.446019
_cell_angle_beta                  89.466745
_cell_angle_gamma                 59.964192
_cell_volume                      4364.43020108

loop_
_atom_site_label
_atom_site_type_symbol
_atom_type_description
_atom_site_fract_x
_atom_site_fract_y
_atom_site_fract_z
_atom_type_partial_charge
C1    C     C_R   0.619378 0.100723 0.570377 0.552409
C2    C     C_1   0.625159 0.739700 0.617811 0.005683
C3    C     C_3   0.731685 0.577320 0.769501 0.047528
C4    C     C_3   0.666905 0.670436 0.808280 0.077497
C5    C     C_3   0.621553 0.618296 0.740369 -0.087150
C6    C     C_3   0.649682 0.700106 0.713108 0.026048
C7    C     C_3   0.557024 0.712018 0.779444 0.017559
C8    C     C_3   0.582715 0.795344 0.751432 -0.100820
C9    C     C_1   0.679723 0.646867 0.860467 0.013771
C10   C     C_1   0.639151 0.717645 0.660456 -0.038475
C11   C     C_3   0.153870 0.084295 0.743359 -0.098314
C12   C     C_R   0.598322 0.781192 0.569143 0.557317
C13   C     C_3   0.247590 0.054266 0.781831 -0.129282
C14   C     C_1   0.104839 0.198547 0.903500 0.020602
C15   C     C_1   0.238336 0.134746 0.619045 0.031016
C16   C     C_3   0.072306 0.195123 0.772149 -0.070969
C17   C     C_3   0.166441 0.164549 0.809918 0.041484
C18   C     C_3   0.119329 0.260255 0.743081 0.065943
C19   C     C_3   0.199463 0.150679 0.714666 0.054139
C20   C     C_3   0.212097 0.230146 0.781161 -0.007088
C21   C     C_3   0.294123 0.120285 0.752343 -0.124133
C22   C     C_1   0.138746 0.178097 0.861986 -0.013714
C23   C     C_R   0.279001 0.121333 0.569965 0.547402
C24   C     C_1   0.217187 0.142423 0.661936 0.017676
C25   C     C_3   0.708595 0.214177 0.737993 0.016204
C26   C     C_3   0.607344 0.278473 0.773781 0.012956
C27   C     C_1   0.691429 0.205552 0.903806 0.054259
C28   C     C_1   0.631747 0.129877 0.619191 0.005552
C29   C     C_3   0.764808 0.114447 0.773695 0.056813
C30   C     C_3   0.663332 0.178791 0.809546 0.067940
C31   C     C_3   0.703112 0.057155 0.749575 -0.137677
C32   C     C_3   0.646425 0.158358 0.714404 0.005972
C33   C     C_3   0.600726 0.122322 0.785756 -0.149060
C34   C     C_R   0.624105 0.099174 0.431282 0.531668
C35   C     C_3   0.543849 0.223070 0.749634 -0.150301
C36   C     C_1   0.674878 0.191871 0.861922 0.056965
C37   C     C_1   0.638759 0.145629 0.661859 -0.036961
C38   C     C_R   0.738139 0.704698 0.359755 -0.149773
C39   C     C_R   0.749151 0.686384 0.309319 -0.003570
C40   C     C_R   0.761279 0.665502 0.207154 0.028837
C41   C     C_R   0.852172 0.663678 0.233157 0.008666
C42   C     C_R   0.843996 0.676217 0.284007 -0.103320
C43   C     C_R   0.769188 0.644126 0.156862 -0.149163
C44   C     C_R   0.679537 0.644060 0.131944 -0.043600
C45   C     C_R   0.603699 0.773876 0.430915 0.579729
C46   C     C_R   0.573423 0.679610 0.360034 -0.002154
C47   C     C_R   0.565267 0.692935 0.309310 -0.011784
C48   C     C_R   0.658960 0.687317 0.283624 0.034561
C49   C     C_R   0.464155 0.721161 0.283986 -0.036065
C50   C     C_R   0.465544 0.724031 0.233183 -0.094161
C51   C     C_R   0.565789 0.697266 0.206849 0.007885
C52   C     C_R   0.662130 0.683113 0.232491 0.029246
C53   C     C_R   0.572232 0.685273 0.155646 0.007166
C54   C     C_R   0.645033 0.709460 0.384800 0.021099
C55   C     C_R   0.164994 0.092773 0.364062 -0.049236
C56   C     C_R   0.280264 0.120202 0.430330 0.539026
C57   C     C_R   0.141911 0.100560 0.313420 0.008190
C58   C     C_R   0.119628 0.105369 0.210210 0.047955
C59   C     C_R   0.099922 0.028867 0.238852 0.000274
C60   C     C_R   0.109311 0.029550 0.289794 -0.111165
C61   C     C_R   0.118510 0.107894 0.158244 -0.006744
C62   C     C_R   0.107944 0.205383 0.134552 0.003452
C63   C     C_R   0.243418 0.218862 0.351583 0.020412
C64   C     C_R   0.184247 0.254877 0.308242 0.048980
C65   C     C_R   0.152924 0.181572 0.285632 0.013135
C66   C     C_R   0.173960 0.350247 0.283257 0.009406
C67   C     C_3   0.761104 0.657603 0.741354 -0.127107
C68   C     C_R   0.162825 0.353471 0.233250 -0.160430
C69   C     C_R   0.146989 0.271860 0.209049 -0.000925
C70   C     C_R   0.137984 0.186972 0.234997 0.030822
C71   C     C_R   0.130358 0.281221 0.159596 -0.138340
C72   C     C_R   0.225678 0.145098 0.382181 0.025192
C73   C     C_R   0.575809 0.237933 0.364372 -0.141617
C74   C     C_R   0.574145 0.258839 0.314051 0.012457
C75   C     C_R   0.580469 0.288346 0.212473 0.002214
C76   C     C_R   0.503798 0.378852 0.242190 -0.159867
C77   C     C_R   0.495636 0.365370 0.292447 0.001493
C78   C     C_3   0.694633 0.752305 0.780592 -0.142547
C79   C     C_R   0.593060 0.304922 0.163081 -0.128092
C80   C     C_R   0.673946 0.213650 0.134227 -0.007018
C81   C     C_R   0.738707 0.046529 0.353295 0.012949
C82   C     C_R   0.731553 0.060436 0.302906 0.017244
C83   C     C_R   0.651091 0.166747 0.283326 0.024703
C84   C     C_R   0.800781 0.967960 0.271489 -0.117963
C85   C     C_R   0.794326 0.981080 0.221671 -0.144859
C86   C     C_R   0.723047 0.087554 0.202191 0.016114
C87   C     C_R   0.650188 0.180701 0.232686 0.061852
C88   C     C_R   0.730877 0.103779 0.152946 -0.134092
C89   C     C_1   0.693342 0.615705 0.901983 0.035401
C90   C     C_R   0.650713 0.130569 0.383456 -0.038274
C91   C     C_R   0.050512 0.235842 0.950235 0.554263
C92   C     C_R   0.711084 0.564316 0.948744 0.553573
C93   C     C_R   0.722421 0.225198 0.951141 0.550951
C94   C     C_R   0.049465 0.243667 0.087868 0.541133
C95   C     C_R   0.706296 0.576712 0.086136 0.528836
C96   C     C_R   0.717464 0.234217 0.088993 0.542356
Cr1   Cr    Cr6+3 0.417550 0.169090 0.500530 1.063767
Cr2   Cr    Cr6+3 0.669180 0.913420 0.499920 1.048319
Cr3   Cr    Cr6+3 0.413260 0.917540 0.499520 1.062534
Cr4   Cr    Cr6+3 0.909170 0.177380 0.020380 1.036392
Cr5   Cr    Cr6+3 0.912710 0.429210 0.018220 1.030894
Cr6   Cr    Cr6+3 0.657170 0.432570 0.019030 1.068563
H1    H     H_    0.724174 0.807550 0.797425 0.110741
H2    H     H_    0.982678 0.221098 0.781273 0.194881
H3    H     H_    0.453268 0.267823 0.738592 0.114883
H4    H     H_    0.556181 0.084414 0.805574 0.108497
H5    H     H_    0.742648 0.965733 0.739051 0.112883
H6    H     H_    0.848169 0.618866 0.137310 0.137468
H7    H     H_    0.845244 0.634888 0.725023 0.129610
H8    H     H_    0.799052 0.719350 0.379071 0.128289
H9    H     H_    0.912279 0.676953 0.304029 0.129411
H10   H     H_    0.386741 0.748371 0.214731 0.163266
H11   H     H_    0.520327 0.885477 0.743368 0.105196
H12   H     H_    0.095550 0.970130 0.310767 0.152032
H13   H     H_    0.128050 0.352706 0.141023 0.133441
H14   H     H_    0.165333 0.420691 0.213232 0.087405
H15   H     H_    0.546848 0.389980 0.148269 0.162241
H16   H     H_    0.517232 0.301430 0.389706 0.204958
H17   H     H_    0.448481 0.460704 0.225735 0.116090
H18   H     H_    0.791022 0.032482 0.130285 0.123780
H19   H     H_    0.850295 0.909538 0.198420 0.104191
H20   H     H_    0.860261 0.884333 0.285019 0.125887
H21   H     H_    0.592239 0.563569 0.722951 0.089379
H22   H     H_    0.299574 0.971013 0.799118 0.114739
H23   H     H_    0.129938 0.023976 0.727231 0.135431
H24   H     H_    0.384988 0.091110 0.743733 0.104525
O1    O     O_R   0.301710 0.195650 0.554160 -0.487079
O2    O     O_R   0.658900 0.818120 0.449760 -0.520070
O3    O     O_R   0.503220 0.801620 0.445520 -0.461099
O4    O     O_R   0.319370 0.022040 0.450020 -0.507726
O5    O     O_3   0.499990 0.000010 0.499990 -0.271425
O6    O     O_R   0.818720 0.150820 0.967160 -0.495713
O7    O     O_R   0.006410 0.181720 0.970200 -0.485451
O8    O     O_R   0.027890 0.334070 0.964920 -0.504765
O9    O     O_R   0.809600 0.521790 0.967960 -0.492691
O10   O     O_R   0.635520 0.542770 0.964420 -0.495661
O11   O     O_R   0.665950 0.325030 0.970100 -0.484333
O12   O     O_R   0.522390 0.158990 0.550460 -0.491599
O13   O     O_R   0.816620 0.158530 0.074540 -0.525461
O14   O     O_R   0.004460 0.188870 0.069750 -0.501203
O15   O     O_R   0.025800 0.341780 0.072300 -0.524157
O16   O     O_R   0.807650 0.528950 0.067500 -0.506502
O17   O     O_R   0.633420 0.550490 0.071810 -0.493451
O18   O     O_R   0.664000 0.332180 0.069640 -0.496500
O19   O     O_3   0.826350 0.346390 0.019210 -0.249965
O20   O     O_R   0.694390 0.003530 0.554040 -0.496651
O21   O     O_R   0.657700 0.819660 0.549320 -0.491502
O22   O     O_R   0.501930 0.803280 0.552920 -0.492845
O23   O     O_R   0.318170 0.023580 0.549580 -0.503390
O24   O     O_R   0.303010 0.193990 0.446760 -0.502963
O25   O     O_R   0.523600 0.157450 0.450900 -0.504810
O26   O     O_R   0.695690 0.001860 0.446640 -0.519879
C97   C     C_3   0.244984 0.312570 0.803476 -0.405925
H25   H     H_    0.266136 0.355039 0.774185 0.131096
H26   H     H_    0.172362 0.378367 0.825519 0.145355
H27   H     H_    0.320044 0.265494 0.827127 0.140201
C98   C     C_2   0.051255 0.377150 0.722471 0.218214
H28   H     H_    0.012296 0.450459 0.746886 0.091208
O27   O     O_2   0.040352 0.390813 0.678612 -0.489456
C99   C     C_2   0.551851 0.402832 0.786157 0.206616
H29   H     H_    0.504656 0.465157 0.758598 0.077446
O28   O     O_2   0.558698 0.434540 0.827013 -0.491300
C100  C     C_2   0.764806 0.265634 0.708712 0.208510
H30   H     H_    0.713221 0.348678 0.692654 0.095577
O29   O     O_2   0.867791 0.213505 0.701639 -0.531457
C101  C     C_2   0.889233 0.051664 0.785546 0.243424
H31   H     H_    0.951875 0.006177 0.756898 0.119381
O30   O     O_2   0.920779 0.051343 0.827014 -0.505724
C102  C     C_3   0.957070 0.650409 0.207435 -0.412979
H32   H     H_    0.932589 0.719052 0.180555 0.120725
H33   H     H_    0.018010 0.654107 0.233123 0.116433
H34   H     H_    0.000919 0.567560 0.187707 0.130167
C103  C     C_2   0.469870 0.712649 0.126360 0.225397
H35   H     H_    0.451779 0.765242 0.094411 0.102764
O31   O     O_2   0.410744 0.670246 0.135346 -0.540242
C104  C     C_3   0.349965 0.768491 0.309834 -0.408095
H36   H     H_    0.278888 0.800522 0.283698 0.127144
H37   H     H_    0.343612 0.704174 0.331792 0.141244
H38   H     H_    0.336070 0.840727 0.333780 0.153944
C105  C     C_2   0.531059 0.610327 0.384695 0.254354
H39   H     H_    0.497785 0.567004 0.363290 0.140268
O32   O     O_2   0.541816 0.592477 0.428344 -0.461014
C106  C     C_3   0.148611 0.003087 0.127563 -0.370383
H40   H     H_    0.182932 0.007601 0.091295 0.131513
H41   H     H_    0.219007 0.926299 0.144465 0.135879
H42   H     H_    0.072903 0.993569 0.121693 0.149705
C107  C     C_3   0.126975 0.029239 0.397303 -0.358596
H43   H     H_    0.181684 0.935909 0.391628 0.149696
H44   H     H_    0.128088 0.050546 0.436230 0.155272
H45   H     H_    0.036949 0.055022 0.389692 0.188213
C108  C     C_3   0.059096 0.952435 0.217983 -0.405679
H46   H     H_    0.129271 0.878019 0.198654 0.128658
H47   H     H_    0.028730 0.916832 0.246904 0.140549
H48   H     H_    0.985863 0.001932 0.193779 0.150849
C109  C     C_2   0.166747 0.451003 0.308293 0.239500
H49   H     H_    0.177647 0.512835 0.287600 0.087256
O33   O     O_2   0.142574 0.469344 0.351584 -0.465930
C110  C     C_3   0.348503 0.230620 0.356583 -0.312791
H50   H     H_    0.421993 0.148587 0.368189 0.118735
H51   H     H_    0.375493 0.248790 0.321162 0.122024
H52   H     H_    0.332499 0.299789 0.382792 0.237483
C111  C     C_2   0.400835 0.465968 0.318157 0.178897
H53   H     H_    0.349107 0.542964 0.297801 0.099030
O34   O     O_2   0.375679 0.465898 0.360814 -0.511498
C112  C     C_3   0.443196 0.738592 0.801792 -0.398512
H54   H     H_    0.376005 0.774985 0.773826 0.125370
H55   H     H_    0.449143 0.659330 0.815720 0.189929
H56   H     H_    0.421436 0.799386 0.832719 0.125192
C113  C     C_2   0.838885 0.944072 0.373284 0.245564
H57   H     H_    0.830567 0.874188 0.387402 0.129164
O35   O     O_2   0.932842 0.935801 0.372002 -0.535759
C114  C     C_2   0.811457 0.454126 0.778448 0.204700
H58   H     H_    0.847800 0.396659 0.747619 0.131310
O36   O     O_2   0.834837 0.417896 0.819736 -0.499577

loop_
_geom_bond_atom_site_label_1
_geom_bond_atom_site_label_2
_ccdc_geom_bond_type
C66   C68   A    
Cr3   O22   S    
C8    C78   S    
C95   O17   A    
C98   H28   S    
C94   O14   A    
C41   C42   A    
C60   H12   S    
C100  H30   S    
C74   C83   A    
C7    C112  S    
C2    C12   S    
C77   C111  S    
C49   C50   A    
C96   O13   A    
C34   C90   S    
C66   C109  S    
C33   H4    S    
C6    C67   S    
C53   C103  S    
C7    C8    S    
C47   C49   A    
Cr2   O26   S    
C103  H35   S    
Cr4   O7    S    
C45   O3    A    
Cr3   O23   S    
C11   C19   S    
C20   C21   S    
C111  O34   D    
C13   C17   S    
C12   O21   A    
C11   H23   S    
C25   C100  S    
C73   C90   A    
C106  H41   S    
Cr6   O19   S    
C85   C86   A    
C5    C6    S    
C86   C88   A    
Cr2   O21   S    
C45   O2    A    
C84   H20   S    
C65   C70   A    
C17   C20   S    
C18   C19   S    
C73   C74   A    
C69   C71   A    
C107  H45   S    
Cr4   O14   S    
C33   C35   S    
C59   C108  S    
C44   C53   A    
C67   H7    S    
C104  H38   S    
C97   H25   S    
C31   C32   S    
C16   C17   S    
C56   C72   S    
C74   C77   A    
C91   O7    A    
Cr2   O5    S    
C1    C28   S    
Cr1   O24   S    
C31   C33   S    
C85   H19   S    
C110  H50   S    
C55   C107  S    
C80   C96   S    
C93   O6    A    
C55   C72   A    
C30   C33   S    
Cr1   O1    S    
C61   C62   A    
C25   C32   S    
C15   C23   S    
C23   O23   A    
C59   C60   A    
C98   O27   D    
C101  O30   D    
C102  H33   S    
C1    O20   A    
C92   O10   A    
C67   C78   S    
Cr5   O15   S    
C4    C7    S    
C30   C36   S    
C105  O32   D    
C81   C82   A    
C39   C42   A    
Cr5   O9    S    
C25   C29   S    
C3    C67   S    
C61   C106  S    
C76   H17   S    
C20   C97   S    
Cr3   O3    S    
C71   H13   S    
C108  H46   S    
C102  H32   S    
C46   C105  S    
C76   C77   A    
Cr1   O5    S    
C111  H53   S    
C106  H42   S    
C9    C89   T    
C5    C7    S    
C13   H22   S    
C34   O26   A    
C86   C87   A    
C68   C69   A    
C57   C60   A    
C6    C8    S    
C109  H49   S    
Cr2   O20   S    
C50   C51   A    
C25   C26   S    
C112  H54   S    
C41   C102  S    
C51   C52   A    
C51   C53   A    
Cr6   O11   S    
C99   O28   D    
C29   C101  S    
C75   C76   A    
C108  H47   S    
C106  H40   S    
C4    C78   S    
C29   C30   S    
C35   H3    S    
Cr4   O13   S    
C96   O18   A    
Cr5   O16   S    
C47   C48   A    
C38   C54   A    
Cr4   O19   S    
Cr5   O19   S    
C46   C54   A    
C110  H52   S    
C50   H10   S    
C113  H57   S    
Cr1   O25   S    
C13   C21   S    
C55   C57   A    
C32   C37   S    
C84   C85   A    
C89   C92   S    
C26   C99   S    
C97   H26   S    
C103  O31   D    
C8    H11   S    
C68   H14   S    
C81   C90   A    
C75   C87   A    
C15   C24   T    
C114  O36   D    
C45   C54   S    
C82   C83   A    
C82   C84   A    
C16   H2    S    
C62   C94   S    
C43   C44   A    
C101  H31   S    
C102  H34   S    
C27   C93   S    
C92   O9    A    
C38   H8    S    
Cr6   O17   S    
C56   O24   A    
C3    C4    S    
C2    C10   T    
Cr1   O12   S    
C105  H39   S    
C94   O15   A    
C23   O1    A    
C112  H56   S    
C3    C114  S    
C46   C47   A    
C40   C41   A    
C73   H16   S    
Cr3   O4    S    
C19   C21   S    
C78   H1    S    
C88   H18   S    
C31   H5    S    
C42   H9    S    
C58   C70   A    
C32   C35   S    
C57   C65   A    
C63   C64   A    
C3    C5    S    
C16   C18   S    
C83   C87   A    
C6    C10   S    
C34   O25   A    
Cr4   O6    S    
C26   C30   S    
Cr5   O8    S    
C27   C36   T    
C5    H21   S    
C21   H24   S    
C17   C22   S    
C63   C110  S    
Cr3   O5    S    
Cr6   O18   S    
C40   C43   A    
C14   C22   T    
C104  H36   S    
C19   C24   S    
C58   C59   A    
C108  H48   S    
C107  H43   S    
C80   C88   A    
C44   C95   S    
C40   C52   A    
C64   C65   A    
C11   C13   S    
C97   H27   S    
C12   O22   A    
C38   C39   A    
C91   O8    A    
C28   C37   T    
C58   C61   A    
C79   H15   S    
Cr2   O2    S    
C63   C72   A    
C113  O35   D    
C62   C71   A    
C18   C20   S    
C43   H6    S    
C69   C70   A    
C99   H29   S    
Cr6   O10   S    
C14   C91   S    
C107  H44   S    
C11   C16   S    
C93   O11   A    
C79   C80   A    
C26   C35   S    
C48   C52   A    
C114  H58   S    
C95   O16   A    
C29   C31   S    
C81   C113  S    
C18   C98   S    
C39   C48   A    
C100  O29   D    
C110  H51   S    
C4    C9    S    
C112  H55   S    
C75   C79   A    
C49   C104  S    
C56   O4    A    
C1    O12   A    
C64   C66   A    
C104  H37   S    
C109  O33   D    
