data_mof_unit_50020.cif
_audit_creation_date              2012-12-10T17:15:16-0500
_audit_creation_method            fapswitch 2.2
_symmetry_space_group_name_H-M    P1
_symmetry_Int_Tables_number       1
_space_group_crystal_system       triclinic
_cell_length_a                    10.096965
_cell_length_b                    10.818769
_cell_length_c                    12.883701
_cell_angle_alpha                 91.790566
_cell_angle_beta                  92.274725
_cell_angle_gamma                 96.773392
_cell_volume                      1395.53349169

loop_
_atom_site_label
_atom_site_type_symbol
_atom_type_description
_atom_site_fract_x
_atom_site_fract_y
_atom_site_fract_z
_atom_type_partial_charge
C1    C     C_R   0.442484 0.266839 0.492758 0.879140
C2    C     C_R   0.679199 0.513210 0.043981 -0.228175
C3    C     C_R   0.332798 0.493217 0.849670 -0.205852
C4    C     C_R   0.667201 0.506781 0.150330 -0.205852
C5    C     C_R   0.575036 0.514413 0.873532 -0.288408
C6    C     C_R   0.424963 0.485587 0.126468 -0.288409
C7    C     C_R   0.564057 0.507146 0.979260 0.190637
C8    C     C_R   0.435943 0.492854 0.020740 0.190637
C9    C     C_2   0.406144 0.133106 0.481710 -0.186158
C10   C     C_2   0.593856 0.866894 0.518289 -0.186158
C11   C     C_2   0.498067 0.063789 0.517758 -0.204203
C12   C     C_R   0.557516 0.733161 0.507242 0.879141
C13   C     C_2   0.501933 0.936211 0.482241 -0.204203
C14   C     C_R   0.719773 0.919484 0.576426 0.125014
C15   C     C_R   0.756251 0.871144 0.672095 -0.118844
C16   C     C_R   0.874083 0.920920 0.726507 -0.145391
C17   C     C_R   0.956186 0.019468 0.686263 -0.127576
C18   C     C_R   0.921037 0.067999 0.591222 -0.141915
C19   C     C_R   0.804403 0.017319 0.535771 -0.155322
C20   C     C_R   0.280227 0.080516 0.423574 0.125015
C21   C     C_R   0.195597 0.982680 0.464229 -0.155322
C22   C     C_R   0.078964 0.932001 0.408777 -0.141916
C23   C     C_2   0.070725 0.489482 0.508006 -0.133451
C24   C     C_R   0.043815 0.980532 0.313736 -0.127575
C25   C     C_R   0.125917 0.079081 0.273493 -0.145392
C26   C     C_R   0.243749 0.128856 0.327905 -0.118845
C27   C     C_2   0.929275 0.510518 0.491994 -0.133451
C28   C     C_R   0.475110 0.504297 0.698557 0.873662
C29   C     C_R   0.524890 0.495703 0.301443 0.873662
C30   C     C_R   0.540044 0.494413 0.191218 -0.052133
C31   C     C_R   0.459956 0.505587 0.808782 -0.052133
C32   C     C_R   0.320800 0.486788 0.956018 -0.228175
H1    H     H_    0.326475 0.474314 0.158195 0.158460
H2    H     H_    0.098248 0.421947 0.563052 0.157468
H3    H     H_    0.866469 0.385730 0.593973 0.161826
H4    H     H_    0.133531 0.614270 0.406027 0.161826
H5    H     H_    0.692936 0.795851 0.705105 0.123936
H6    H     H_    0.901424 0.883419 0.800181 0.128843
H7    H     H_    0.047143 0.058102 0.728627 0.126963
H8    H     H_    0.984930 0.144057 0.559901 0.140985
H9    H     H_    0.779627 0.054733 0.461411 0.148518
H10   H     H_    0.220373 0.945267 0.538588 0.148518
H11   H     H_    0.015070 0.855942 0.440098 0.140984
H12   H     H_    0.673525 0.525687 0.841805 0.158460
H13   H     H_    0.952859 0.941898 0.271373 0.126964
H14   H     H_    0.098577 0.116582 0.199819 0.128843
H15   H     H_    0.307064 0.204150 0.294895 0.123937
H16   H     H_    0.756761 0.513842 0.200380 0.157598
H17   H     H_    0.243239 0.486155 0.799620 0.157598
H18   H     H_    0.222259 0.476181 0.987459 0.135293
H19   H     H_    0.777741 0.523817 0.012540 0.135292
H20   H     H_    0.421098 0.893694 0.430033 0.191899
H21   H     H_    0.578902 0.106305 0.569967 0.191899
H22   H     H_    0.901752 0.578053 0.436947 0.157468
N1    N     N_2   0.162330 0.550370 0.457540 -0.195372
N2    N     N_2   0.837670 0.449630 0.542460 -0.195372
O1    O     O_R   0.567930 0.307680 0.508550 -0.606780
O2    O     O_R   0.432070 0.692320 0.491450 -0.606780
O3    O     O_R   0.351090 0.340020 0.481290 -0.609448
O4    O     O_R   0.648910 0.659980 0.518710 -0.609447
O5    O     O_R   0.590490 0.486480 0.665020 -0.618553
O6    O     O_R   0.409510 0.513520 0.334980 -0.618553
O7    O     O_R   0.373660 0.518820 0.637760 -0.618068
O8    O     O_R   0.626340 0.481180 0.362240 -0.618068
Zn1   Zn    Zn3+2 0.644780 0.478400 0.518200 0.935406
Zn2   Zn    Zn3+2 0.355220 0.521600 0.481800 0.935406

loop_
_geom_bond_atom_site_label_1
_geom_bond_atom_site_label_2
_ccdc_geom_bond_type
H3    N2    S    
C2    C4    A    
C24   C25   A    
C23   N1    D    
C29   C30   S    
C23   C27   S    
C13   H20   S    
C9    C11   D    
N2    Zn1   S    
C9    C20   S    
C22   H11   S    
C11   H21   S    
C6    H1    S    
C23   H2    S    
C12   O2    A    
C28   O5    A    
C27   N2    D    
C17   C18   A    
C3    H17   S    
C29   O8    A    
C7    C8    A    
H4    N1    S    
C21   C22   A    
O8    Zn1   S    
C3    C31   A    
C11   C13   S    
C32   H18   S    
C20   C26   A    
C26   H15   S    
C24   H13   S    
C10   C12   S    
C6    C30   A    
C5    H12   S    
O4    Zn1   S    
C1    O1    A    
C1    O3    A    
O3    Zn2   S    
C4    H16   S    
C3    C32   A    
C22   C24   A    
O7    Zn2   S    
C2    H19   S    
O6    Zn2   S    
C15   C16   A    
C8    C32   A    
C28   O7    A    
O5    Zn1   S    
C27   H22   S    
N1    Zn2   S    
C1    C9    S    
C20   C21   A    
C25   H14   S    
C18   C19   A    
C17   H7    S    
O1    Zn1   S    
C10   C14   S    
C5    C7    A    
C18   H8    S    
C29   O6    A    
C15   H5    S    
C6    C8    A    
C21   H10   S    
C2    C7    A    
C25   C26   A    
C14   C15   A    
C14   C19   A    
O2    Zn2   S    
C28   C31   S    
C4    C30   A    
C19   H9    S    
C16   H6    S    
C16   C17   A    
C5    C31   A    
C10   C13   D    
C12   O4    A    
