data_mof_unit_63820.cif
_audit_creation_date              2012-10-26T18:01:32-0400
_audit_creation_method            fapswitch 2.2
_symmetry_space_group_name_H-M    P1
_symmetry_Int_Tables_number       1
_space_group_crystal_system       triclinic
_cell_length_a                    30.949493
_cell_length_b                    30.430368
_cell_length_c                    24.804794
_cell_angle_alpha                 89.999245
_cell_angle_beta                  128.351429
_cell_angle_gamma                 89.998707
_cell_volume                      18320.365602

loop_
_atom_site_label
_atom_site_type_symbol
_atom_type_description
_atom_site_fract_x
_atom_site_fract_y
_atom_site_fract_z
_atom_type_partial_charge
C1    C     C_R   0.809495 0.809663 0.500977 0.574521
C2    C     C_R   0.535123 0.746120 0.069925 0.366311
C3    C     C_R   0.909214 0.093567 0.502356 0.012281
C4    C     C_R   0.645362 0.584995 0.526623 -0.097814
C5    C     C_R   0.354756 0.584909 0.473822 -0.097934
C6    C     C_R   0.145361 0.085002 0.526623 -0.097943
C7    C     C_R   0.854752 0.084912 0.473814 -0.097922
C8    C     C_3   0.693685 0.571180 0.598352 0.666973
C9    C     C_3   0.306223 0.570893 0.402333 0.667588
C10   C     C_3   0.193681 0.071168 0.598344 0.666874
C11   C     C_3   0.806220 0.070912 0.402312 0.667454
C12   C     C_3   0.728279 0.604926 0.594208 0.225296
C13   C     C_R   0.964814 0.246131 0.930098 0.366349
C14   C     C_3   0.271699 0.604586 0.406694 0.225748
C15   C     C_3   0.228271 0.104934 0.594224 0.225382
C16   C     C_3   0.771697 0.104593 0.406692 0.225714
C17   C     C_R   0.441244 0.560127 0.500178 0.590918
C18   C     C_R   0.558739 0.560141 0.499814 0.590528
C19   C     C_R   0.941244 0.060127 0.500177 0.590997
C20   C     C_R   0.058739 0.060139 0.499815 0.590372
C21   C     C_R   0.940208 0.940774 0.500031 0.614679
C22   C     C_R   0.059846 0.940817 0.499963 0.613759
C23   C     C_R   0.440197 0.440783 0.500032 0.614603
C24   C     C_R   0.035144 0.246128 0.069914 0.366359
C25   C     C_R   0.559841 0.440813 0.499965 0.613977
C26   C     C_R   0.816154 0.749961 0.632481 0.608834
C27   C     C_R   0.183797 0.749995 0.367490 0.607279
C28   C     C_R   0.316153 0.249958 0.632483 0.608755
C29   C     C_R   0.683798 0.249996 0.367494 0.607376
C30   C     C_R   0.609565 0.784376 0.253115 0.361068
C31   C     C_R   0.390822 0.784176 0.746914 0.360531
C32   C     C_R   0.109393 0.284293 0.253103 0.360942
C33   C     C_R   0.890737 0.284221 0.746906 0.360596
C34   C     C_R   0.574279 0.783009 0.181380 -0.123591
C35   C     C_R   0.842384 0.847978 0.445799 -0.161766
C36   C     C_R   0.426080 0.782816 0.818649 -0.123815
C37   C     C_R   0.074116 0.282930 0.181369 -0.123621
C38   C     C_R   0.925999 0.282862 0.818640 -0.123805
C39   C     C_R   0.573100 0.746279 0.146139 -0.016614
C40   C     C_R   0.426830 0.746287 0.853893 -0.016494
C41   C     C_R   0.073120 0.246286 0.146126 -0.016572
C42   C     C_R   0.926843 0.246290 0.853885 -0.016483
C43   C     C_R   0.608024 0.710247 0.184330 0.261480
C44   C     C_R   0.391497 0.710450 0.815706 0.261520
C45   C     C_R   0.108221 0.210337 0.184311 0.261470
C46   C     C_R   0.158896 0.848828 0.555020 -0.162611
C47   C     C_R   0.891600 0.210409 0.815702 0.261520
C48   C     C_R   0.644911 0.712614 0.256455 -0.182174
C49   C     C_R   0.354661 0.712818 0.743578 -0.181837
C50   C     C_R   0.145091 0.212703 0.256438 -0.182115
C51   C     C_R   0.854753 0.212775 0.743574 -0.181883
C52   C     C_3   0.819833 0.721289 0.847320 -0.028561
C53   C     C_3   0.172027 0.721396 0.144432 -0.038156
C54   C     C_3   0.319705 0.221645 0.847305 -0.028544
C55   C     C_3   0.671983 0.221216 0.144462 -0.038158
C56   C     C_3   0.947248 0.778420 0.700527 -0.027098
C57   C     C_R   0.342152 0.348132 0.445647 -0.161962
C58   C     C_3   0.052235 0.775493 0.300174 -0.025611
C59   C     C_3   0.447415 0.277993 0.700618 -0.027033
C60   C     C_3   0.552341 0.275767 0.300246 -0.025680
C61   C     C_3   0.565735 0.697543 0.352685 -0.096432
C62   C     C_3   0.434625 0.698061 0.646897 -0.096170
C63   C     C_3   0.065710 0.197599 0.352727 -0.096313
C64   C     C_3   0.934629 0.198063 0.646896 -0.096249
C65   C     C_3   0.475691 0.632065 0.356178 -0.045230
C66   C     C_3   0.524489 0.632564 0.643024 -0.046030
C67   C     C_3   0.975659 0.132178 0.356252 -0.045193
C68   C     C_R   0.658692 0.348691 0.554891 -0.162462
C69   C     C_3   0.024489 0.132563 0.643019 -0.046057
C70   C     C_3   0.695738 0.504994 0.548581 -0.146867
C71   C     C_3   0.304616 0.504914 0.452858 -0.146723
C72   C     C_3   0.195533 0.004939 0.548500 -0.146671
C73   C     C_3   0.804632 0.004900 0.452784 -0.146450
C74   C     C_3   0.799490 0.633120 0.699911 -0.060880
C75   C     C_3   0.199606 0.632767 0.301479 -0.060304
C76   C     C_3   0.299446 0.133113 0.699959 -0.060939
C77   C     C_3   0.699628 0.132733 0.301434 -0.060227
C78   C     C_3   0.588688 0.637317 0.161297 -0.085850
C79   C     C_R   0.841237 0.844324 0.500773 -0.019741
C80   C     C_3   0.409920 0.637419 0.838751 -0.085766
C81   C     C_3   0.089308 0.137355 0.161293 -0.085824
C82   C     C_3   0.910196 0.137394 0.838738 -0.085769
C83   C     C_3   0.824247 0.910501 0.591304 -0.068242
C84   C     C_3   0.172585 0.908931 0.404353 -0.068528
C85   C     C_3   0.324815 0.410229 0.592088 -0.068348
C86   C     C_3   0.673063 0.409166 0.404992 -0.068415
C87   C     C_3   0.820146 0.887189 0.304364 -0.100501
C88   C     C_3   0.183462 0.890324 0.696695 -0.100163
C89   C     C_3   0.319477 0.387764 0.304155 -0.100455
C90   C     C_R   0.158750 0.844314 0.499140 -0.019010
C91   C     C_3   0.682885 0.389813 0.696542 -0.100197
C92   C     C_R   0.341239 0.344323 0.500789 -0.019569
C93   C     C_R   0.190527 0.809656 0.499054 0.574554
C94   C     C_R   0.658749 0.344315 0.499150 -0.019171
C95   C     C_R   0.864818 0.878127 0.550461 0.257120
C96   C     C_R   0.133995 0.877427 0.448323 0.257480
C97   C     C_R   0.365031 0.378003 0.550682 0.257206
C98   C     C_R   0.634177 0.377536 0.448505 0.257424
C99   C     C_R   0.898575 0.909678 0.551334 0.342894
C100  C     C_R   0.100385 0.909070 0.447586 0.344661
C101  C     C_R   0.398763 0.409569 0.551533 0.343182
C102  C     C_R   0.600552 0.409170 0.447754 0.344448
C103  C     C_R   0.904451 0.909605 0.499380 -0.001050
C104  C     C_R   0.309491 0.309662 0.500972 0.574564
C105  C     C_R   0.095686 0.909732 0.500571 -0.002402
C106  C     C_R   0.404425 0.409629 0.499388 -0.001183
C107  C     C_R   0.595669 0.409716 0.500581 -0.002166
C108  C     C_R   0.872226 0.880810 0.444110 -0.051968
C109  C     C_R   0.129071 0.881705 0.556636 -0.052782
C110  C     C_R   0.371989 0.380973 0.443971 -0.052011
C111  C     C_R   0.628866 0.381563 0.556520 -0.052674
C112  C     C_3   0.887460 0.850519 0.410142 0.661679
C113  C     C_3   0.115535 0.851997 0.592990 0.663256
C114  C     C_3   0.386914 0.350786 0.409562 0.661935
C115  C     C_R   0.690523 0.309657 0.499048 0.574500
C116  C     C_3   0.615049 0.351758 0.592485 0.662974
C117  C     C_3   0.854229 0.814582 0.412383 -0.156431
C118  C     C_3   0.148722 0.815991 0.590782 -0.156784
C119  C     C_3   0.353693 0.314837 0.411799 -0.156520
C120  C     C_3   0.648240 0.315762 0.590271 -0.156724
C121  C     C_R   0.683901 0.750121 0.367403 0.544272
C122  C     C_R   0.316107 0.750115 0.632604 0.543767
C123  C     C_R   0.183898 0.250120 0.367399 0.544135
C124  C     C_R   0.816106 0.250115 0.632603 0.543841
C125  C     C_R   0.833265 0.755601 0.744684 0.322386
C126  C     C_R   0.645562 0.749202 0.291407 -0.034497
C127  C     C_R   0.165933 0.757383 0.254979 0.330921
C128  C     C_R   0.333271 0.255727 0.744686 0.322427
C129  C     C_R   0.665938 0.257311 0.254983 0.330888
C130  C     C_R   0.868370 0.753025 0.816824 0.215891
C131  C     C_R   0.130726 0.755412 0.182940 0.219363
C132  C     C_R   0.368361 0.253149 0.816824 0.215909
C133  C     C_R   0.630720 0.255341 0.182943 0.219350
C134  C     C_R   0.925622 0.747596 0.853472 -0.054292
C135  C     C_R   0.073570 0.748067 0.145969 -0.066714
C136  C     C_R   0.425592 0.247568 0.853482 -0.054316
C137  C     C_R   0.354432 0.749200 0.708613 -0.034657
C138  C     C_R   0.573546 0.248086 0.145981 -0.066698
C139  C     C_R   0.946346 0.742281 0.816975 0.346021
C140  C     C_R   0.053500 0.740973 0.183102 0.349938
C141  C     C_R   0.446302 0.242095 0.816993 0.345941
C142  C     C_R   0.553468 0.241088 0.183126 0.349980
C143  C     C_R   0.911080 0.743498 0.745015 0.206033
C144  C     C_R   0.088926 0.742335 0.255075 0.205100
C145  C     C_R   0.411050 0.243317 0.745036 0.205994
C146  C     C_R   0.588906 0.242447 0.255098 0.205183
C147  C     C_R   0.854017 0.749796 0.708351 -0.075664
C148  C     C_R   0.145562 0.249203 0.291398 -0.034597
C149  C     C_R   0.145704 0.750032 0.291565 -0.080657
C150  C     C_R   0.354009 0.249779 0.708358 -0.075666
C151  C     C_R   0.645700 0.250044 0.291574 -0.080581
C152  C     C_R   0.034979 0.747748 0.069396 0.368715
C153  C     C_R   0.964031 0.747634 0.929536 0.392003
C154  C     C_R   0.534947 0.247760 0.069406 0.368696
C155  C     C_R   0.463997 0.247619 0.929545 0.391949
C156  C     C_R   0.676593 0.615801 0.524045 -0.114210
C157  C     C_R   0.323583 0.615700 0.476536 -0.114331
C158  C     C_R   0.176592 0.115811 0.524057 -0.114157
C159  C     C_R   0.854433 0.249201 0.708609 -0.034595
C160  C     C_R   0.823582 0.115701 0.476537 -0.114278
C161  C     C_R   0.654133 0.656103 0.491409 0.002067
C162  C     C_R   0.345960 0.656112 0.508760 0.001912
C163  C     C_R   0.154133 0.156109 0.491418 0.002075
C164  C     C_R   0.845961 0.156112 0.508764 0.001934
C165  C     C_R   0.596399 0.662316 0.451453 0.266956
C166  C     C_R   0.403640 0.662464 0.548273 0.267215
C167  C     C_R   0.096397 0.162326 0.451471 0.266881
C168  C     C_R   0.903640 0.162463 0.548273 0.267216
C169  C     C_R   0.690075 0.690308 0.498498 0.592688
C170  C     C_R   0.464800 0.746127 0.930107 0.366315
C171  C     C_R   0.309971 0.690310 0.501593 0.592548
C172  C     C_R   0.190077 0.190309 0.498503 0.592598
C173  C     C_R   0.809972 0.190310 0.501596 0.592618
C174  C     C_R   0.564742 0.631079 0.455676 0.277978
C175  C     C_R   0.435239 0.631216 0.543953 0.278182
C176  C     C_R   0.064741 0.131085 0.455694 0.277972
C177  C     C_R   0.935238 0.131216 0.543952 0.278186
C178  C     C_R   0.590779 0.593554 0.497609 0.011730
C179  C     C_R   0.409216 0.593566 0.502359 0.012262
C180  C     C_R   0.090777 0.093555 0.497608 0.011746
Cu1   Cu    Cu3+1 0.780910 0.719090 0.500000 0.986882
Cu2   Cu    Cu3+1 0.534240 0.500000 0.568430 1.106247
Cu3   Cu    Cu3+1 0.965760 0.000000 0.431570 1.104598
Cu4   Cu    Cu3+1 0.034240 0.000000 0.568430 1.106490
Cu5   Cu    Cu3+1 0.219090 0.719090 0.500000 0.986552
Cu6   Cu    Cu3+1 0.280910 0.219090 0.500000 0.986898
Cu7   Cu    Cu3+1 0.719090 0.219090 0.500000 0.986573
Cu8   Cu    Cu3+1 0.719070 0.780890 0.500010 1.132929
Cu9   Cu    Cu3+1 0.280930 0.780890 0.499990 1.133091
Cu10  Cu    Cu3+1 0.219070 0.280890 0.500010 1.132922
Cu11  Cu    Cu3+1 0.780930 0.280890 0.499990 1.133089
Cu12  Cu    Cu3+1 0.465760 0.500000 0.431570 1.104930
F1    F     F_    0.609295 0.820667 0.284725 -0.597559
F2    F     F_    0.999076 0.733656 0.150024 -0.563553
F3    F     F_    0.500878 0.234760 0.851044 -0.569055
F4    F     F_    0.499030 0.233864 0.150063 -0.563495
F5    F     F_    0.686186 0.582425 0.646204 -0.559479
F6    F     F_    0.313250 0.582066 0.354033 -0.557761
F7    F     F_    0.186178 0.082377 0.646204 -0.559589
F8    F     F_    0.813255 0.082109 0.354025 -0.557820
F9    F     F_    0.926416 0.939275 0.603521 -0.617199
F10   F     F_    0.071503 0.937976 0.394525 -0.615495
F11   F     F_    0.426794 0.439040 0.603881 -0.616902
F12   F     F_    0.391534 0.820272 0.715320 -0.597865
F13   F     F_    0.571835 0.438187 0.394829 -0.615759
F14   F     F_    0.943264 0.841121 0.452883 -0.531728
F15   F     F_    0.059939 0.841982 0.551987 -0.530731
F16   F     F_    0.442684 0.341274 0.451987 -0.531617
F17   F     F_    0.559414 0.341846 0.551193 -0.530963
F18   F     F_    0.108934 0.320500 0.284708 -0.597533
F19   F     F_    0.891353 0.320359 0.715306 -0.597898
F20   F     F_    0.778657 0.763103 0.710153 -0.574786
F21   F     F_    0.220475 0.764948 0.289080 -0.563733
F22   F     F_    0.278693 0.263377 0.710156 -0.574868
F23   F     F_    0.720496 0.264793 0.289081 -0.563735
F24   F     F_    0.000951 0.735106 0.851018 -0.568978
H1    H     H_    0.879902 0.786967 0.447464 0.173177
H2    H     H_    0.240137 0.590562 0.410104 0.080342
H3    H     H_    0.118169 0.125532 0.215256 0.104598
H4    H     H_    0.084762 0.110598 0.127733 0.165656
H5    H     H_    0.951735 0.143482 0.853274 0.123438
H6    H     H_    0.881286 0.125573 0.784780 0.104761
H7    H     H_    0.914630 0.110696 0.872308 0.165582
H8    H     H_    0.816970 0.906946 0.629603 0.156241
H9    H     H_    0.783522 0.907937 0.539305 0.112723
H10   H     H_    0.842276 0.943615 0.598437 0.162663
H11   H     H_    0.178829 0.904788 0.365180 0.156924
H12   H     H_    0.213814 0.906880 0.455840 0.112902
H13   H     H_    0.260192 0.090988 0.591427 0.081373
H14   H     H_    0.154417 0.942037 0.396828 0.163578
H15   H     H_    0.317724 0.406572 0.630546 0.156330
H16   H     H_    0.283997 0.407761 0.540177 0.112712
H17   H     H_    0.342873 0.443340 0.599291 0.162795
H18   H     H_    0.679461 0.405107 0.365947 0.156875
H19   H     H_    0.714219 0.407038 0.456558 0.112843
H20   H     H_    0.654919 0.442275 0.397523 0.163472
H21   H     H_    0.829110 0.921082 0.325450 0.154443
H22   H     H_    0.786295 0.872361 0.302203 0.107570
H23   H     H_    0.805499 0.889673 0.250781 0.164855
H24   H     H_    0.740140 0.090558 0.410105 0.080392
H25   H     H_    0.173481 0.923868 0.674223 0.155211
H26   H     H_    0.216986 0.875513 0.698151 0.107747
H27   H     H_    0.199112 0.893677 0.750617 0.165254
H28   H     H_    0.328627 0.421594 0.325498 0.154621
H29   H     H_    0.285687 0.372939 0.302125 0.107592
H30   H     H_    0.304643 0.390408 0.250504 0.164865
H31   H     H_    0.673075 0.423415 0.674297 0.155078
H32   H     H_    0.716463 0.374997 0.698114 0.107708
H33   H     H_    0.698372 0.393022 0.750413 0.165222
H34   H     H_    0.673070 0.685585 0.285136 0.151491
H35   H     H_    0.326194 0.685956 0.714911 0.151787
H36   H     H_    0.173387 0.185747 0.285112 0.151605
H37   H     H_    0.826350 0.185878 0.714906 0.151707
H38   H     H_    0.816461 0.804352 0.361173 0.121024
H39   H     H_    0.187210 0.806545 0.641875 0.120891
H40   H     H_    0.315790 0.304750 0.360606 0.120976
H41   H     H_    0.123198 0.787850 0.557084 0.173147
H42   H     H_    0.686611 0.306185 0.641388 0.120921
H43   H     H_    0.809045 0.724861 0.882199 0.170103
H44   H     H_    0.846381 0.691580 0.864037 0.104681
H45   H     H_    0.780777 0.716484 0.794482 0.190075
H46   H     H_    0.187136 0.726221 0.114345 0.175049
H47   H     H_    0.138594 0.696350 0.117054 0.100763
H48   H     H_    0.207189 0.709091 0.196150 0.170491
H49   H     H_    0.308898 0.225328 0.882151 0.170086
H50   H     H_    0.346164 0.191875 0.864060 0.104765
H51   H     H_    0.280652 0.216870 0.794454 0.190027
H52   H     H_    0.379342 0.287123 0.446630 0.173188
H53   H     H_    0.687043 0.225975 0.114309 0.175033
H54   H     H_    0.638540 0.196175 0.117171 0.100683
H55   H     H_    0.707171 0.208941 0.196186 0.170604
H56   H     H_    0.979814 0.794585 0.750337 0.175197
H57   H     H_    0.910710 0.800281 0.668570 0.137817
H58   H     H_    0.964048 0.773458 0.672392 0.168091
H59   H     H_    0.019378 0.791701 0.250552 0.174522
H60   H     H_    0.088319 0.797742 0.332441 0.138388
H61   H     H_    0.035485 0.769558 0.328172 0.167512
H62   H     H_    0.480039 0.294109 0.750448 0.175169
H63   H     H_    0.622687 0.287707 0.556344 0.173123
H64   H     H_    0.410980 0.299954 0.668654 0.138076
H65   H     H_    0.464221 0.272900 0.672515 0.168039
H66   H     H_    0.519515 0.292002 0.250635 0.174543
H67   H     H_    0.588490 0.297959 0.332498 0.138085
H68   H     H_    0.535601 0.269917 0.328273 0.167550
H69   H     H_    0.606309 0.698438 0.363578 0.100154
H70   H     H_    0.541769 0.726335 0.319916 0.174096
H71   H     H_    0.543172 0.667406 0.322648 0.071153
H72   H     H_    0.394177 0.698949 0.636342 0.100557
H73   H     H_    0.458572 0.726966 0.679329 0.174465
H74   H     H_    0.547409 0.810797 0.153272 0.177684
H75   H     H_    0.457382 0.668027 0.677126 0.071208
H76   H     H_    0.043059 0.167505 0.322622 0.071219
H77   H     H_    0.106273 0.198430 0.363586 0.100124
H78   H     H_    0.041815 0.226438 0.320043 0.174345
H79   H     H_    0.894184 0.198962 0.636346 0.100550
H80   H     H_    0.958588 0.226963 0.679333 0.174361
H81   H     H_    0.957377 0.168025 0.677119 0.071222
H82   H     H_    0.434949 0.621452 0.340179 0.173528
H83   H     H_    0.490712 0.605594 0.340349 0.086467
H84   H     H_    0.469067 0.662939 0.328197 0.155788
H85   H     H_    0.453267 0.810448 0.846757 0.177507
H86   H     H_    0.565182 0.622032 0.658777 0.173607
H87   H     H_    0.509790 0.606138 0.659331 0.086915
H88   H     H_    0.531099 0.663538 0.670791 0.155390
H89   H     H_    0.990623 0.105736 0.340307 0.086385
H90   H     H_    0.969045 0.163090 0.328357 0.155948
H91   H     H_    0.934924 0.121570 0.340280 0.173577
H92   H     H_    0.065181 0.122034 0.658768 0.173598
H93   H     H_    0.009793 0.106134 0.659326 0.086958
H94   H     H_    0.031096 0.163535 0.670788 0.155356
H95   H     H_    0.706976 0.523040 0.519899 0.094800
H96   H     H_    0.047107 0.310651 0.153260 0.177672
H97   H     H_    0.650596 0.499104 0.515528 0.136936
H98   H     H_    0.716131 0.472392 0.562756 0.148500
H99   H     H_    0.293336 0.523090 0.481400 0.094136
H100  H     H_    0.349784 0.499161 0.485926 0.139576
H101  H     H_    0.284389 0.472257 0.439059 0.148155
H102  H     H_    0.206621 0.022931 0.519618 0.095045
H103  H     H_    0.150395 0.999079 0.515657 0.136469
H104  H     H_    0.215889 0.972323 0.562624 0.148399
H105  H     H_    0.793374 0.023048 0.481371 0.094057
H106  H     H_    0.849798 0.999153 0.485812 0.140045
H107  H     H_    0.953118 0.310527 0.846748 0.177481
H108  H     H_    0.784409 0.972241 0.438961 0.148119
H109  H     H_    0.829156 0.634736 0.688752 0.116446
H110  H     H_    0.803050 0.601069 0.724039 0.160768
H111  H     H_    0.810708 0.659342 0.737611 0.135012
H112  H     H_    0.170692 0.634285 0.313843 0.117966
H113  H     H_    0.195584 0.600784 0.276928 0.159999
H114  H     H_    0.187739 0.659110 0.263682 0.134246
H115  H     H_    0.329138 0.134690 0.688837 0.116529
H116  H     H_    0.302964 0.101075 0.724087 0.160978
H117  H     H_    0.310664 0.159352 0.737638 0.134972
H118  H     H_    0.760192 0.590966 0.591407 0.081157
H119  H     H_    0.670663 0.134138 0.313727 0.117780
H120  H     H_    0.695714 0.100786 0.276867 0.160203
H121  H     H_    0.687732 0.159113 0.263679 0.134205
H122  H     H_    0.547194 0.643765 0.146707 0.123328
H123  H     H_    0.617451 0.625491 0.215269 0.104515
H124  H     H_    0.584020 0.610481 0.127766 0.165672
H125  H     H_    0.451481 0.643422 0.853309 0.123448
H126  H     H_    0.380995 0.625605 0.784790 0.104755
H127  H     H_    0.414277 0.610751 0.872312 0.165582
H128  H     H_    0.047796 0.143600 0.146755 0.123312
N1    N     N_R   0.516934 0.707799 0.034226 -0.166760
N2    N     N_R   0.984241 0.729236 0.034420 -0.123189
N3    N     N_R   0.514763 0.265934 0.964280 -0.132235
N4    N     N_R   0.484130 0.229397 0.034440 -0.123089
N5    N     N_R   0.049349 0.766254 0.032714 -0.154342
N6    N     N_R   0.949489 0.729224 0.966001 -0.192116
N7    N     N_R   0.549393 0.266105 0.032711 -0.154369
N8    N     N_R   0.449377 0.229373 0.966021 -0.192053
N9    N     N_R   0.482536 0.707803 0.965808 -0.166779
N10   N     N_R   0.017098 0.207805 0.034217 -0.166815
N11   N     N_R   0.982697 0.207807 0.965798 -0.166839
N12   N     N_R   0.483050 0.784496 0.965781 -0.223466
N13   N     N_R   0.517328 0.784493 0.034249 -0.223466
N14   N     N_R   0.982920 0.284501 0.965771 -0.223446
N15   N     N_R   0.017201 0.284500 0.034238 -0.223439
N16   N     N_R   0.014720 0.766096 0.964281 -0.132219
O1    O     O_R   0.821190 0.768980 0.500000 -0.517911
O2    O     O_R   0.074010 0.954920 0.557790 -0.516582
O3    O     O_R   0.425990 0.454920 0.442210 -0.518002
O4    O     O_R   0.574010 0.454920 0.557790 -0.516848
O5    O     O_R   0.983760 0.954940 0.557800 -0.437190
O6    O     O_R   0.016240 0.954940 0.442200 -0.437591
O7    O     O_R   0.483760 0.454940 0.557800 -0.437251
O8    O     O_R   0.516240 0.454940 0.442200 -0.437533
O9    O     O_R   0.768960 0.821170 0.500020 -0.501304
O10   O     O_R   0.231040 0.821170 0.499980 -0.502723
O11   O     O_R   0.268960 0.321170 0.500020 -0.501618
O12   O     O_R   0.178810 0.768980 0.500000 -0.517834
O13   O     O_R   0.731040 0.321170 0.499980 -0.502487
O14   O     O_R   0.726180 0.723900 0.400140 -0.539751
O15   O     O_R   0.273820 0.723900 0.599860 -0.539911
O16   O     O_R   0.226180 0.223900 0.400140 -0.539838
O17   O     O_R   0.773820 0.223900 0.599860 -0.539867
O18   O     O_R   0.673950 0.776090 0.400160 -0.441748
O19   O     O_R   0.326050 0.776090 0.599840 -0.441569
O20   O     O_R   0.173950 0.276090 0.400160 -0.441576
O21   O     O_R   0.826050 0.276090 0.599840 -0.441683
O22   O     O_R   0.731010 0.678810 0.499990 -0.536407
O23   O     O_R   0.321190 0.268980 0.500000 -0.517828
O24   O     O_R   0.268990 0.678810 0.500010 -0.536013
O25   O     O_R   0.231010 0.178810 0.499990 -0.536391
O26   O     O_R   0.768990 0.178810 0.500010 -0.535988
O27   O     O_R   0.678790 0.731000 0.500010 -0.444073
O28   O     O_R   0.321210 0.731000 0.499990 -0.444030
O29   O     O_R   0.178790 0.231000 0.500010 -0.444066
O30   O     O_R   0.821210 0.231000 0.499990 -0.444039
O31   O     O_R   0.826030 0.723890 0.599860 -0.478632
O32   O     O_R   0.173970 0.723890 0.400140 -0.478140
O33   O     O_R   0.326030 0.223890 0.599860 -0.478556
O34   O     O_R   0.678810 0.268980 0.500000 -0.517939
O35   O     O_R   0.673970 0.223890 0.400140 -0.478123
O36   O     O_R   0.773800 0.776080 0.599870 -0.444286
O37   O     O_R   0.226200 0.776080 0.400130 -0.444094
O38   O     O_R   0.273800 0.276080 0.599870 -0.444168
O39   O     O_R   0.726200 0.276080 0.400130 -0.444153
O40   O     O_R   0.425940 0.545090 0.442170 -0.464763
O41   O     O_R   0.574060 0.545090 0.557830 -0.465037
O42   O     O_R   0.925940 0.045090 0.442170 -0.464730
O43   O     O_R   0.074060 0.045090 0.557830 -0.465099
O44   O     O_3   0.847422 0.759754 0.851827 -0.495560
O45   O     O_R   0.483700 0.545120 0.557760 -0.525145
O46   O     O_3   0.152584 0.762029 0.149050 -0.483867
O47   O     O_3   0.347428 0.260020 0.851816 -0.495579
O48   O     O_3   0.652583 0.261884 0.149045 -0.483868
O49   O     O_3   0.932730 0.737124 0.710810 -0.504448
O50   O     O_3   0.067616 0.734791 0.289447 -0.503501
O51   O     O_3   0.432688 0.236783 0.710847 -0.504460
O52   O     O_3   0.567590 0.235007 0.289487 -0.503450
O53   O     O_3   0.571319 0.700293 0.413612 -0.505585
O54   O     O_3   0.428677 0.700574 0.585707 -0.505599
O55   O     O_3   0.071329 0.200320 0.413680 -0.505638
O56   O     O_R   0.516300 0.545120 0.442240 -0.525202
O57   O     O_3   0.928677 0.200575 0.585704 -0.505612
O58   O     O_3   0.510610 0.640035 0.427647 -0.499247
O59   O     O_3   0.489235 0.640268 0.571480 -0.499615
O60   O     O_3   0.010632 0.140060 0.427745 -0.499282
O61   O     O_3   0.989233 0.140268 0.571475 -0.499602
O62   O     O_3   0.714183 0.527375 0.609407 -0.550426
O63   O     O_3   0.286022 0.527022 0.391773 -0.549863
O64   O     O_3   0.214213 0.027377 0.609376 -0.550668
O65   O     O_3   0.786006 0.027043 0.391713 -0.549779
O66   O     O_3   0.745326 0.640671 0.639804 -0.509264
O67   O     O_R   0.983700 0.045120 0.557760 -0.525039
O68   O     O_3   0.254177 0.640212 0.360762 -0.508579
O69   O     O_3   0.245299 0.140674 0.639824 -0.509490
O70   O     O_3   0.754160 0.140229 0.360774 -0.508536
O71   O     O_3   0.609851 0.674656 0.151047 -0.525853
O72   O     O_3   0.389228 0.675100 0.848994 -0.525886
O73   O     O_3   0.110238 0.174853 0.151019 -0.525859
O74   O     O_3   0.889425 0.175012 0.848997 -0.525908
O75   O     O_3   0.860567 0.876956 0.602749 -0.548693
O76   O     O_3   0.136991 0.875433 0.395022 -0.550049
O77   O     O_3   0.361003 0.376686 0.603153 -0.548934
O78   O     O_R   0.016300 0.045120 0.442240 -0.525239
O79   O     O_3   0.637356 0.375663 0.395348 -0.549777
O80   O     O_3   0.868354 0.861072 0.342486 -0.504806
O81   O     O_3   0.135770 0.863617 0.660776 -0.504886
O82   O     O_3   0.367596 0.361536 0.341875 -0.504838
O83   O     O_3   0.635102 0.363203 0.660256 -0.504859
O84   O     O_R   0.925990 0.954920 0.442210 -0.518359

loop_
_geom_bond_atom_site_label_1
_geom_bond_atom_site_label_2
_ccdc_geom_bond_type
C13   N11   A    
C2    N1    A    
C99   C103  A    
C60   O52   S    
C61   O53   S    
C142  C146  A    
C77   H121  S    
C69   H94   S    
C113  O81   S    
C22   O2    A    
C153  N16   A    
C52   H45   S    
C71   H101  S    
C53   H48   S    
C85   H17   S    
Cu8   O27   S    
C88   O81   S    
Cu2   O45   S    
C95   C99   A    
C128  C132  A    
Cu6   O33   S    
C21   O84   A    
C77   H120  S    
C91   O83   S    
C5    C179  A    
C172  O25   A    
C91   H32   S    
C162  C171  S    
C64   O57   S    
C21   O5    A    
C117  H1    S    
C31   C137  A    
C84   H14   S    
C141  C145  A    
C138  C154  S    
Cu5   O24   S    
Cu10  O20   S    
C75   H113  S    
C76   H115  S    
C81   O73   S    
C87   H22   S    
C59   H64   S    
C24   C41   S    
C130  C134  A    
Cu2   Cu12  S    
C13   C42   S    
C125  F20   S    
C66   H87   S    
Cu12  O8    S    
C62   H73   S    
C154  N4    A    
C164  C168  A    
C88   H25   S    
C132  O47   S    
C131  O46   S    
C22   O6    A    
C13   N14   A    
C73   H106  S    
C81   H4    S    
C25   O4    A    
N1    N9    A    
Cu6   Cu10  S    
Cu3   Cu4   S    
C155  N3    A    
C116  F17   S    
C139  F24   S    
C86   H19   S    
Cu4   O43   S    
C164  C173  S    
C64   H80   S    
C163  C172  S    
C46   C90   A    
C72   H102  S    
C19   O67   A    
C47   O74   S    
C70   O62   S    
C56   H58   S    
C1    C79   S    
C143  O49   S    
C55   H55   S    
C56   H56   S    
C160  C164  A    
C70   H95   S    
C172  O29   A    
C50   H36   S    
C74   H111  S    
C25   C107  S    
C90   C93   S    
C174  O58   S    
C170  N9    A    
Cu1   O14   S    
C26   O31   A    
C54   H51   S    
C122  C137  S    
C115  O13   A    
C39   C43   A    
C94   C115  S    
C62   O54   S    
Cu7   O26   S    
C11   O65   S    
C82   H6    S    
C33   C38   A    
C45   O73   S    
C23   C106  S    
Cu4   O2    S    
C173  O30   A    
C86   O79   S    
C45   C50   A    
C65   H83   S    
C171  O28   A    
C89   H29   S    
C127  C131  A    
C118  H39   S    
C92   C104  S    
C130  O44   S    
C9    O63   S    
C76   H117  S    
C59   H62   S    
C59   O51   S    
C31   C36   A    
C14   H2    S    
C70   H97   S    
C157  C162  A    
C161  C165  A    
C128  F22   S    
C152  N2    A    
C80   H125  S    
C57   C92   A    
C49   C137  A    
C16   C160  S    
C104  O11   A    
C85   H15   S    
Cu2   O4    S    
Cu9   O19   S    
C175  O59   S    
C10   F7    S    
C88   H27   S    
Cu10  O11   S    
C67   H91   S    
C121  O18   A    
C8    O62   S    
C95   O75   S    
C53   O46   S    
C134  C153  S    
C28   O38   A    
C73   O65   S    
C135  C152  S    
C52   H44   S    
Cu1   O1    S    
C63   H77   S    
Cu9   O10   S    
C11   F8    S    
C139  C143  A    
C72   H104  S    
C17   O45   A    
C56   O49   S    
C177  O61   S    
C54   O47   S    
C55   H53   S    
C63   O55   S    
C110  C114  S    
C114  C119  S    
C114  O82   S    
C74   H109  S    
C132  C136  A    
C161  C169  S    
C17   C179  S    
C104  O23   A    
C12   C156  S    
Cu2   O41   S    
N5    N16   A    
C6    C158  A    
C92   C97   A    
C62   H72   S    
Cu11  O13   S    
C58   H60   S    
C54   H49   S    
C87   H23   S    
C30   C34   A    
C34   C39   A    
C78   H124  S    
C102  C107  A    
C15   C158  S    
C101  F11   S    
C33   C159  A    
C134  C139  A    
C136  C155  S    
C127  F21   S    
C7    C160  A    
C167  O55   S    
C165  C174  A    
C61   H70   S    
C86   H20   S    
C116  C120  S    
C5    C9    S    
C29   C151  S    
C58   H61   S    
C8    C12   S    
C155  N8    A    
C60   H67   S    
C55   O48   S    
C32   C37   A    
C3    C19   S    
C31   F12   S    
C158  C163  A    
C24   N10   A    
C27   O32   A    
C76   O69   S    
C156  C161  A    
C80   H127  S    
C63   H76   S    
C23   O7    A    
C67   H89   S    
C50   C148  A    
C101  C106  A    
C84   O76   S    
C105  C109  A    
C41   C45   A    
C25   O8    A    
C6    C180  A    
C43   O71   S    
C67   O60   S    
C69   H93   S    
C12   H118  S    
C65   O58   S    
C90   C96   A    
C170  N12   A    
C22   C105  S    
C68   C94   A    
C53   H47   S    
C127  C149  A    
Cu8   O18   S    
C1    O9    A    
C119  H52   S    
C96   C100  A    
C35   C79   A    
C136  C141  A    
C77   H119  S    
C69   H92   S    
C37   C41   A    
C29   O35   A    
C124  C159  S    
C48   C126  A    
C146  C151  A    
C74   H110  S    
Cu4   O5    S    
C40   C44   A    
C123  C148  S    
C80   O72   S    
C14   O68   S    
N10   N11   A    
C165  O53   S    
C87   O80   S    
C12   O66   S    
Cu9   O28   S    
C75   H112  S    
C84   H11   S    
C99   F9    S    
C83   H10   S    
C44   C49   A    
C76   H116  S    
Cu5   O32   S    
C87   H21   S    
C78   H122  S    
C115  O34   A    
C168  O57   S    
C40   C170  S    
C20   O43   A    
C173  O26   A    
C152  N5    A    
C66   H88   S    
C166  C175  A    
C86   H18   S    
Cu10  O38   S    
C113  F15   S    
Cu7   O35   S    
Cu2   O7    S    
C129  C151  A    
C3    C7    A    
C88   H26   S    
C112  C117  S    
C94   C98   A    
C168  C177  A    
C81   H3    S    
C46   C118  S    
C20   O78   A    
C141  F3    S    
Cu12  O40   S    
C162  C166  A    
C100  F10   S    
C28   O33   A    
C83   O75   S    
C97   O77   S    
C111  C116  S    
C174  C178  A    
C71   H100  S    
C59   H65   S    
C133  C138  A    
Cu3   O84   S    
C15   H13   S    
C107  C111  A    
C30   F1    S    
C27   O37   A    
Cu1   Cu8   S    
C66   O59   S    
C93   O10   A    
C135  C140  A    
C91   H31   S    
C74   O66   S    
C14   C157  S    
C145  O51   S    
C36   H85   S    
C146  O52   S    
C10   O64   S    
C138  C142  A    
C4    C178  A    
C118  H41   S    
C120  H63   S    
C47   C51   A    
C82   H7    S    
C122  O19   A    
C123  O20   A    
C108  C112  S    
C1    O1    A    
C124  O21   A    
C129  F23   S    
C143  C147  A    
C9    C14   S    
C79   C95   A    
C77   O70   S    
C32   F18   S    
C89   O82   S    
C57   C110  A    
C65   H82   S    
C89   H28   S    
C153  N6    A    
C112  O80   S    
Cu5   Cu9   S    
Cu8   O9    S    
C17   O40   A    
C83   H8    S    
C4    C156  A    
C75   H114  S    
C5    C157  A    
C125  C147  A    
C60   H66   S    
C70   H98   S    
C51   H37   S    
C119  H40   S    
C91   H33   S    
C73   H108  S    
C98   O79   S    
Cu11  O39   S    
C66   H86   S    
C80   H126  S    
C37   H96   S    
C140  C144  A    
C6    C10   S    
C32   C148  A    
Cu1   O31   S    
Cu6   O16   S    
C112  F14   S    
C52   O44   S    
C98   C102  A    
Cu10  O29   S    
C114  F16   S    
C64   H79   S    
Cu3   O6    S    
C26   C147  S    
C19   O42   A    
C15   O69   S    
Cu6   O25   S    
N3    N7    A    
C49   H35   S    
C46   C109  A    
C56   H57   S    
C140  F2    S    
C169  O22   A    
C68   C120  S    
C2    N13   A    
C93   O12   A    
C171  O24   A    
C30   C126  A    
C28   C150  S    
C33   F19   S    
C4    C8    S    
C23   O3    A    
C82   O74   S    
C20   C180  S    
C82   H5    S    
C96   O76   S    
C7    C11   S    
C100  C105  A    
C54   H50   S    
C38   C42   A    
C131  C135  A    
C10   C15   S    
C78   O71   S    
Cu1   O22   S    
C65   H84   S    
Cu11  O30   S    
N4    N8    A    
C89   H30   S    
C166  O54   S    
C11   C16   S    
C16   O70   S    
C169  O27   A    
N12   N13   A    
Cu3   O42   S    
C85   O77   S    
C35   C108  A    
Cu7   O34   S    
C2    C39   S    
C44   O72   S    
Cu7   O17   S    
C60   H68   S    
C103  C108  A    
C61   H69   S    
C43   C48   A    
Cu7   Cu11  S    
C109  C113  S    
C57   C119  S    
C24   N15   A    
C27   C149  S    
C8    F5    S    
N14   N15   A    
C85   H16   S    
Cu8   O36   S    
C125  C130  A    
Cu9   O37   S    
C116  O83   S    
N2    N6    A    
Cu4   O67   S    
C144  O50   S    
C69   O61   S    
C81   H128  S    
C18   O56   A    
C36   C40   A    
C38   H107  S    
C75   O68   S    
C122  O15   A    
C175  C179  A    
C52   H43   S    
C63   H78   S    
C53   H46   S    
C68   C111  A    
C163  C167  A    
C144  C149  A    
C176  O60   S    
C117  H38   S    
C72   H103  S    
C176  C180  A    
Cu5   O15   S    
C18   O41   A    
Cu6   O23   S    
C55   H54   S    
C16   H24   S    
C124  O17   A    
C26   O36   A    
C129  C133  A    
C35   C117  S    
C84   H12   S    
C64   H81   S    
C9    F6    S    
C83   H9    S    
C128  C150  A    
C58   H59   S    
C58   O50   S    
C78   H123  S    
Cu3   O78   S    
C145  C150  A    
C18   C178  S    
C73   H105  S    
Cu5   O12   S    
C62   H75   S    
C3    C177  A    
C121  C126  S    
C71   O63   S    
C72   O64   S    
Cu12  O56   S    
Cu11  O21   S    
C133  O48   S    
C120  H42   S    
C51   C159  A    
C121  O14   A    
C42   C47   A    
C61   H71   S    
C48   H34   S    
C123  O16   A    
C102  F13   S    
C113  C118  S    
C21   C103  S    
Cu12  O3    S    
C106  C110  A    
C154  N7    A    
C142  F4    S    
C97   C101  A    
C71   H99   S    
C167  C176  A    
C34   H74   S    
C67   H90   S    
C29   O39   A    
