data_mof_unit_5998.cif
_audit_creation_date              2012-12-10T17:59:49-0500
_audit_creation_method            fapswitch 2.2
_symmetry_space_group_name_H-M    P1
_symmetry_Int_Tables_number       1
_space_group_crystal_system       triclinic
_cell_length_a                    10.839877
_cell_length_b                    9.492872
_cell_length_c                    15.933594
_cell_angle_alpha                 89.983556
_cell_angle_beta                  90.130719
_cell_angle_gamma                 90.011647
_cell_volume                      1639.58738806

loop_
_atom_site_label
_atom_site_type_symbol
_atom_type_description
_atom_site_fract_x
_atom_site_fract_y
_atom_site_fract_z
_atom_type_partial_charge
C1    C     C_R   0.262014 0.499989 0.499227 0.811215
C2    C     C_3   0.629114 0.518186 0.951534 -0.206605
C3    C     C_3   0.628194 0.544082 0.048938 -0.122655
C4    C     C_1   0.498468 0.498779 0.824221 0.046048
C5    C     C_1   0.496238 0.499373 0.175989 -0.005427
C6    C     C_1   0.498390 0.499923 0.251196 -0.033503
C7    C     C_R   0.065305 0.372647 0.485592 -0.244574
C8    C     C_R   0.065351 0.627467 0.486382 -0.243376
C9    C     C_R   0.938367 0.370864 0.474369 -0.020532
C10   C     C_R   0.938435 0.629469 0.475170 -0.020434
C11   C     C_R   0.871871 0.500145 0.477242 -0.070092
C12   C     C_R   0.128493 0.499998 0.493027 -0.015484
C13   C     C_R   0.420838 0.074514 0.449519 0.002323
C14   C     C_R   0.420840 0.925498 0.449518 0.007095
C15   C     C_R   0.499939 0.500011 0.340316 0.843750
C16   C     C_R   0.579464 0.925493 0.550340 0.024930
C17   C     C_R   0.579463 0.074497 0.550342 0.025262
C18   C     C_R   0.737460 0.500034 0.490811 0.817381
C19   C     C_R   0.500137 0.499965 0.659744 0.814304
C20   C     C_3   0.392161 0.609280 0.048837 -0.125273
C21   C     C_3   0.461990 0.341510 0.049252 -0.138056
C22   C     C_3   0.443578 0.353897 0.950246 -0.249829
C23   C     C_3   0.408667 0.618026 0.948703 -0.303314
C24   C     C_1   0.499447 0.499696 0.748979 -0.111832
C25   C     C_3   0.493852 0.498357 0.083368 -0.059791
C26   C     C_3   0.496632 0.497569 0.916627 0.110641
Cu1   Cu    Cu3+1 0.500020 0.640660 0.500000 1.001272
Cu2   Cu    Cu3+1 0.500020 0.359340 0.500000 0.998917
H1    H     H_    0.319252 0.596707 0.917262 0.162997
H2    H     H_    0.343358 0.361859 0.936439 0.168733
H3    H     H_    0.643044 0.869157 0.590585 0.125254
H4    H     H_    0.643037 0.130823 0.590592 0.127785
H5    H     H_    0.678635 0.602302 0.916970 0.235523
H6    H     H_    0.682360 0.421450 0.936287 0.231806
H7    H     H_    0.115525 0.273804 0.485359 0.145508
H8    H     H_    0.115589 0.726323 0.486793 0.145656
H9    H     H_    0.357475 0.130862 0.409113 0.141327
H10   H     H_    0.357479 0.869162 0.409109 0.144117
N1    N     N_R   0.500030 0.852070 0.500020 -0.163415
N2    N     N_R   0.500030 0.147930 0.500020 -0.163147
O1    O     O_R   0.319660 0.618740 0.500000 -0.597579
O2    O     O_R   0.319660 0.381260 0.500000 -0.597631
O3    O     O_R   0.500020 0.618840 0.379440 -0.552966
O4    O     O_R   0.500020 0.381160 0.379440 -0.561274
O5    O     O_R   0.680370 0.618830 0.500010 -0.563400
O6    O     O_R   0.680370 0.381170 0.500010 -0.562753
O7    O     O_R   0.500010 0.618730 0.620560 -0.577681
O8    O     O_R   0.500010 0.381270 0.620560 -0.575051
C27   C     C_2   0.260087 0.562459 0.072196 0.912027
O9    O     O_2   0.180787 0.542468 0.018736 -0.571421
O10   O     O_R   0.228632 0.544757 0.156773 -0.683925
H11   H     H_    0.139776 0.514220 0.164711 0.358274
C28   C     C_2   0.345743 0.276253 0.089059 0.805542
O11   O     O_2   0.337834 0.265420 0.165431 -0.571655
O12   O     O_R   0.250647 0.221449 0.039162 -0.757473
H12   H     H_    0.180765 0.180226 0.073498 0.369625
C29   C     C_2   0.563797 0.238080 0.076083 0.324870
H13   H     H_    0.571857 0.209466 0.141908 0.113862
O13   O     O_2   0.639453 0.189079 0.027547 -0.466751
C30   C     C_2   0.405231 0.754651 0.091440 0.322228
H14   H     H_    0.444377 0.844728 0.059570 0.106619
O14   O     O_2   0.376991 0.772254 0.164929 -0.496996
C31   C     C_2   0.478683 0.221519 0.901886 0.502185
H15   H     H_    0.424055 0.126771 0.910339 0.089652
O15   O     O_2   0.567718 0.217815 0.855100 -0.501618
C32   C     C_2   0.437021 0.763952 0.913575 0.387557
H16   H     H_    0.369002 0.846935 0.920999 0.063994
O16   O     O_2   0.531698 0.790170 0.875311 -0.484886
C33   C     C_2   0.659672 0.695993 0.071610 0.412901
H17   H     H_    0.656164 0.728153 0.136993 0.084906
O17   O     O_2   0.691904 0.782659 0.019411 -0.460811
C34   C     C_2   0.734703 0.463775 0.089597 0.403500
H18   H     H_    0.725700 0.419980 0.152170 0.064427
O18   O     O_2   0.835094 0.455600 0.055135 -0.466539
C35   C     C_2   0.882798 0.231830 0.454933 0.412620
H19   H     H_    0.916910 0.137959 0.486210 0.033582
O19   O     O_2   0.805349 0.219416 0.399642 -0.498837
C36   C     C_2   0.882981 0.768903 0.456660 0.411981
H20   H     H_    0.916788 0.862039 0.488842 0.031892
O20   O     O_2   0.806021 0.782567 0.401157 -0.497497

loop_
_geom_bond_atom_site_label_1
_geom_bond_atom_site_label_2
_ccdc_geom_bond_type
C32   O16   D    
O12   H12   S    
C31   O15   D    
C11   C18   S    
C10   C36   S    
C28   O11   D    
C16   H3    S    
Cu2   O6    S    
C23   H1    S    
C23   C32   S    
C3    C33   S    
C15   O4    A    
C5    C6    T    
C4    C24   T    
C19   O7    A    
C29   O13   D    
C20   C25   S    
Cu2   N2    S    
C30   O14   D    
C8    H8    S    
C23   C26   S    
C33   O17   D    
C13   N2    A    
C6    C15   S    
C22   C31   S    
Cu1   N1    S    
C16   C17   A    
C27   O10   S    
C20   C30   S    
C13   H9    S    
C2    H6    S    
C32   H16   S    
C14   N1    A    
C21   C22   S    
C1    C12   S    
C7    H7    S    
C18   O6    A    
C28   O12   S    
C7    C12   A    
O10   H11   S    
C3    C25   S    
C34   O18   D    
C36   H20   S    
Cu2   O4    S    
C30   H14   S    
C17   N2    A    
C35   H19   S    
C21   C29   S    
C20   C27   S    
C14   H10   S    
C35   O19   D    
Cu1   O1    S    
C20   C23   S    
C8    C12   A    
C2    C26   S    
C9    C11   A    
C5    C25   S    
C2    H5    S    
C1    O1    A    
C18   O5    A    
Cu1   O7    S    
C7    C9    A    
C21   C25   S    
Cu2   O8    S    
C22   H2    S    
C19   O8    A    
C19   C24   S    
C34   H18   S    
C4    C26   S    
C2    C3    S    
C15   O3    A    
C21   C28   S    
Cu1   O5    S    
C29   H13   S    
Cu2   O2    S    
C3    C34   S    
C36   O20   D    
C33   H17   S    
C10   C11   A    
C16   N1    A    
C31   H15   S    
Cu1   O3    S    
C1    O2    A    
C8    C10   A    
C27   O9    D    
C22   C26   S    
Cu1   Cu2   S    
C17   H4    S    
C9    C35   S    
C13   C14   A    
