data_mof_unit_56465.cif
_audit_creation_date              2013-03-05T15:49:46-0500
_audit_creation_method            fapswitch 2.2
_symmetry_space_group_name_H-M    P1
_symmetry_Int_Tables_number       1
_space_group_crystal_system       triclinic
_cell_length_a                    6.928566
_cell_length_b                    20.093849
_cell_length_c                    22.367297
_cell_angle_alpha                 90.040894
_cell_angle_beta                  89.995455
_cell_angle_gamma                 89.993449
_cell_volume                      3114.00913541

loop_
_atom_site_label
_atom_site_type_symbol
_atom_site_description
_atom_site_fract_x
_atom_site_fract_y
_atom_site_fract_z
_atom_type_partial_charge
O1    O     O_R   0.620180 0.810610 0.187990 -0.591996
O2    O     O_R   0.379820 0.189390 0.812010 -0.592000
O3    O     O_R   0.379820 0.189390 0.687990 -0.586160
O4    O     O_R   0.620180 0.810610 0.312010 -0.586144
O5    O     O_R   0.120180 0.689390 0.312010 -0.591959
O6    O     O_R   0.879820 0.310610 0.687990 -0.591959
O7    O     O_R   0.879820 0.310610 0.812010 -0.586154
O8    O     O_R   0.120180 0.689390 0.187990 -0.586156
O9    O     O_R   0.290420 0.818570 0.311590 -0.598968
O10   O     O_R   0.709580 0.181430 0.688410 -0.598978
O11   O     O_R   0.709580 0.181430 0.811590 -0.604743
O12   O     O_R   0.290420 0.818570 0.188410 -0.604745
O13   O     O_R   0.790420 0.681430 0.188410 -0.598973
O14   O     O_R   0.209580 0.318570 0.811590 -0.598971
O15   O     O_R   0.209580 0.318570 0.688410 -0.604740
O16   O     O_R   0.790420 0.681430 0.311590 -0.604742
C1    C     C_R   0.459326 0.834542 0.332331 0.954320
C2    C     C_R   0.540673 0.165458 0.667669 0.954333
C3    C     C_R   0.540604 0.165387 0.832328 0.958744
C4    C     C_R   0.459396 0.834613 0.167672 0.958730
C5    C     C_R   0.959346 0.665456 0.167672 0.954282
C6    C     C_R   0.040653 0.334544 0.832328 0.954284
C7    C     C_R   0.040601 0.334610 0.667671 0.958630
C8    C     C_R   0.959399 0.665389 0.332328 0.958633
H1    H     H_    0.303152 0.428441 0.638315 0.177176
H2    H     H_    0.696848 0.571559 0.361685 0.177176
H3    H     H_    0.722585 0.562071 0.147259 0.188388
H4    H     H_    0.277415 0.437929 0.852741 0.188389
H5    H     H_    0.803495 0.071743 0.861846 0.177238
H6    H     H_    0.196503 0.928259 0.138155 0.177229
H7    H     H_    0.222532 0.937927 0.352775 0.188417
H8    H     H_    0.777511 0.062084 0.647215 0.188429
H9    H     H_    0.408571 0.609897 0.501431 0.172624
H10   H     H_    0.591429 0.390103 0.498569 0.172624
H11   H     H_    0.612732 0.381740 0.008701 0.173276
H12   H     H_    0.387268 0.618260 0.991298 0.173276
H13   H     H_    0.908925 0.890303 0.998762 0.172572
H14   H     H_    0.090992 0.109671 0.001218 0.172557
H15   H     H_    0.112647 0.118260 0.491356 0.173236
H16   H     H_    0.887261 0.881711 0.508675 0.173229
H17   H     H_    0.754470 0.348571 0.586230 0.123854
H18   H     H_    0.245529 0.651429 0.413770 0.123853
H19   H     H_    0.224991 0.659973 0.079271 0.118566
H20   H     H_    0.775009 0.340027 0.920729 0.118566
H21   H     H_    0.254135 0.151237 0.913612 0.123912
H22   H     H_    0.745849 0.848755 0.086381 0.123894
H23   H     H_    0.724967 0.840012 0.420714 0.118567
H24   H     H_    0.274980 0.159973 0.579301 0.118571
O17   O     O_3   0.453640 0.707610 0.250000 -0.265174
O18   O     O_3   0.546360 0.292390 0.750000 -0.265170
O19   O     O_3   0.953640 0.792390 0.250000 -0.265171
O20   O     O_3   0.046360 0.207610 0.750000 -0.265179
V1    V     V_3+5 0.178800 0.757860 0.250000 1.196109
V2    V     V_3+5 0.821200 0.242140 0.750000 1.196099
V3    V     V_3+5 0.678800 0.742140 0.250000 1.196078
V4    V     V_3+5 0.321200 0.257860 0.750000 1.196068
C9    C     C_R   0.869124 0.384666 0.580017 -0.156341
C10   C     C_R   0.130876 0.615334 0.419983 -0.156338
C11   C     C_R   0.118233 0.620710 0.075610 -0.105877
C12   C     C_R   0.881767 0.379290 0.924389 -0.105882
C13   C     C_R   0.368958 0.115229 0.919896 -0.156215
C14   C     C_R   0.631029 0.884764 0.080099 -0.156198
C15   C     C_R   0.618195 0.879276 0.424386 -0.105863
C16   C     C_R   0.381765 0.120713 0.575625 -0.105968
C17   C     C_R   0.029405 0.384097 0.618438 -0.175010
C18   C     C_R   0.970595 0.615903 0.381562 -0.175013
C19   C     C_R   0.969661 0.616544 0.118033 -0.189506
C20   C     C_R   0.030339 0.383456 0.881967 -0.189507
C21   C     C_R   0.529416 0.115897 0.881560 -0.175150
C22   C     C_R   0.470580 0.884100 0.118439 -0.175126
C23   C     C_R   0.469608 0.883448 0.381976 -0.189621
C24   C     C_R   0.530382 0.116551 0.618026 -0.189580
C25   C     C_R   0.178192 0.430625 0.609458 -0.149779
C26   C     C_R   0.821808 0.569375 0.390542 -0.149782
C27   C     C_R   0.831415 0.565745 0.112855 -0.127996
C28   C     C_R   0.168585 0.434255 0.887144 -0.127992
C29   C     C_R   0.678376 0.069463 0.890622 -0.149829
C30   C     C_R   0.321613 0.930533 0.109375 -0.149873
C31   C     C_R   0.331356 0.934249 0.387169 -0.127982
C32   C     C_R   0.668647 0.065752 0.612830 -0.128069
C33   C     C_R   0.165743 0.479108 0.563868 0.000206
C34   C     C_R   0.834257 0.520892 0.436132 0.000207
C35   C     C_R   0.838674 0.519192 0.065479 -0.011134
C36   C     C_R   0.161325 0.480808 0.934521 -0.011134
C37   C     C_R   0.665897 0.020957 0.936192 0.000341
C38   C     C_R   0.334076 0.979032 0.063799 0.000304
C39   C     C_R   0.338617 0.980803 0.434547 -0.011096
C40   C     C_R   0.661355 0.019189 0.565461 -0.011120
C41   C     C_R   0.006214 0.477231 0.524047 0.070435
C42   C     C_R   0.993786 0.522769 0.475953 0.070434
C43   C     C_R   0.991900 0.523536 0.023440 0.029863
C44   C     C_R   0.008099 0.476465 0.976560 0.029863
C45   C     C_R   0.506217 0.022763 0.975949 0.070497
C46   C     C_R   0.493764 0.977228 0.024044 0.070593
C47   C     C_R   0.491872 0.976458 0.476566 0.029838
C48   C     C_R   0.508097 0.023534 0.523441 0.029890
C49   C     C_R   0.858343 0.429889 0.532406 0.161671
C50   C     C_R   0.141657 0.570111 0.467594 0.161671
C51   C     C_R   0.130087 0.574784 0.028473 0.171991
C52   C     C_R   0.869912 0.425216 0.971527 0.171992
C53   C     C_R   0.358202 0.070024 0.967519 0.161710
C54   C     C_R   0.641777 0.929966 0.032473 0.161851
C55   C     C_R   0.630066 0.925203 0.471521 0.172076
C56   C     C_R   0.369892 0.074786 0.528490 0.172042
C57   C     C_R   0.309684 0.528666 0.556185 0.328386
C58   C     C_R   0.690315 0.471334 0.443815 0.328386
C59   C     C_R   0.700886 0.467266 0.059754 0.323593
C60   C     C_R   0.299114 0.532734 0.940246 0.323591
C61   C     C_R   0.809933 0.971450 0.943924 0.328441
C62   C     C_R   0.189999 0.028528 0.056056 0.328378
C63   C     C_R   0.200803 0.032731 0.440291 0.323611
C64   C     C_R   0.799128 0.967247 0.559729 0.323650
C65   C     C_R   0.297661 0.572409 0.507381 -0.297304
C66   C     C_R   0.702339 0.427591 0.492619 -0.297311
C67   C     C_R   0.719449 0.420893 0.013140 -0.282175
C68   C     C_R   0.280551 0.579107 0.986859 -0.282165
C69   C     C_R   0.797903 0.927727 0.992745 -0.297194
C70   C     C_R   0.202044 0.072254 0.007240 -0.297284
C71   C     C_R   0.219384 0.079107 0.486900 -0.282180
C72   C     C_R   0.780550 0.920873 0.513119 -0.282089
N1    N     N_R   0.463927 0.537550 0.598561 0.237263
O21   O     O_R   0.631895 0.558333 0.580401 -0.397293
O22   O     O_R   0.426225 0.539153 0.655547 -0.341836
N2    N     N_R   0.536073 0.462450 0.401440 0.237261
O23   O     O_R   0.368105 0.441667 0.419599 -0.397301
O24   O     O_R   0.573775 0.460847 0.344453 -0.341849
N3    N     N_R   0.541428 0.460308 0.100464 0.241950
O25   O     O_R   0.484755 0.401279 0.116682 -0.330011
O26   O     O_R   0.432371 0.511110 0.112995 -0.416963
N4    N     N_R   0.458572 0.539692 0.899536 0.241951
O27   O     O_R   0.515244 0.598721 0.883317 -0.329991
O28   O     O_R   0.567629 0.488890 0.887005 -0.416961
N5    N     N_R   0.964272 0.962588 0.901589 0.237245
O29   O     O_R   0.131967 0.941607 0.919759 -0.397441
O30   O     O_R   0.926866 0.961180 0.844592 -0.342061
N6    N     N_R   0.035550 0.037363 0.098370 0.237218
O31   O     O_R   0.867724 0.058236 0.080165 -0.397582
O32   O     O_R   0.072891 0.038836 0.155377 -0.342041
N7    N     N_R   0.041298 0.039682 0.399610 0.241915
O33   O     O_R   0.984521 0.098700 0.383380 -0.330055
O34   O     O_R   0.932342 0.988864 0.387086 -0.417051
N8    N     N_R   0.958507 0.960254 0.600442 0.241933
O35   O     O_R   0.014955 0.901210 0.616706 -0.329983
O36   O     O_R   0.067617 0.011031 0.612962 -0.416993

loop_
_geom_bond_atom_site_label_1
_geom_bond_atom_site_label_2
_geom_bond_distance
_ccdc_geom_bond_type
O14   V4    1.995305 S    
C40   C48   1.420832 A    
C45   C46   1.415364 A    
C14   C54   1.402388 A    
C22   C30   1.406051 A    
C11   C51   1.403062 A    
C21   C29   1.406030 A    
C62   N6    1.439439 S    
C47   C48   1.416097 A    
C10   C50   1.402422 A    
C60   C68   1.403724 A    
C62   C70   1.404473 A    
C31   C39   1.413913 A    
C61   C69   1.404488 A    
O11   C3    1.299989 A    
O18   V2    2.155284 S    
C58   C66   1.404450 A    
C53   C70   1.400624 A    
C57   C65   1.404452 A    
C38   C62   1.419750 A    
H1    C25   1.080867 S    
C26   C34   1.413425 A    
C37   C61   1.419691 A    
H23   C15   1.084547 S    
H15   C71   1.084221 S    
H24   C16   1.084560 S    
C39   C63   1.420065 A    
C13   C21   1.404027 A    
C18   C26   1.406277 A    
C17   C25   1.406277 A    
C14   C22   1.404024 A    
O3    C2    1.295915 A    
C63   C71   1.403730 A    
C64   N8    1.438317 S    
H18   C10   1.084740 S    
C38   C46   1.419841 A    
C11   C19   1.402500 A    
C37   C45   1.419817 A    
C10   C18   1.404296 A    
C55   C72   1.400225 A    
C34   C58   1.419942 A    
C47   C55   1.410609 A    
C39   C47   1.420819 A    
H11   C67   1.084228 S    
C60   N4    1.438521 S    
O12   V1    1.996617 S    
H19   C11   1.084572 S    
C56   C71   1.400217 A    
C33   C41   1.420060 A    
C30   C38   1.413433 A    
O15   C7    1.300003 A    
C29   C37   1.413439 A    
O16   C8    1.300003 A    
C5    C19   1.483983 S    
C4    C22   1.486299 S    
C52   C67   1.400241 A    
C7    C17   1.486281 S    
O6    V2    1.996090 S    
H3    C27   1.079900 S    
C23   C31   1.404514 A    
O20   V2    1.707302 S    
C2    C24   1.484008 S    
H10   C66   1.084398 S    
C33   C57   1.419942 A    
C28   C36   1.413881 A    
H20   C12   1.084572 S    
C63   N7    1.438430 S    
C15   C55   1.403057 A    
C45   C53   1.410389 A    
C51   C68   1.400242 A    
C64   C72   1.403712 A    
C50   C65   1.400901 A    
O17   V3    1.707447 S    
C61   N5    1.439244 S    
O18   V4    1.707447 S    
C13   C53   1.402385 A    
C41   C49   1.410682 A    
O19   V1    1.707302 S    
C40   C64   1.420049 A    
N4    O28   1.300368 A    
N3    O26   1.300367 A    
O9    V1    1.995498 S    
H8    C32   1.079828 S    
O3    V4    1.994661 S    
C9    C49   1.402424 A    
O12   C4    1.299988 A    
O8    C5    1.295948 A    
C57   N1    1.439545 S    
O9    C1    1.299130 A    
O11   V2    1.996615 S    
C6    C20   1.483981 S    
N1    O21   1.301554 A    
C54   C69   1.400566 A    
C25   C33   1.413425 A    
O4    C1    1.295923 A    
N6    O32   1.301399 A    
H16   C72   1.084216 S    
H22   C14   1.084533 S    
C1    C23   1.484013 S    
C48   C56   1.410616 A    
O4    V3    1.994660 S    
N5    O29   1.301188 A    
N8    O36   1.300289 A    
C3    C21   1.486302 S    
C19   C27   1.404586 A    
N3    O25   1.301277 A    
H4    C28   1.079901 S    
C43   C44   1.416087 A    
C44   C52   1.410631 A    
N2    O24   1.301489 A    
O5    V1    1.996089 S    
C16   C56   1.403059 A    
O1    C4    1.296313 A    
O2    C3    1.296312 A    
C15   C23   1.402478 A    
N6    O31   1.301546 A    
C12   C52   1.403064 A    
O8    V1    1.994770 S    
N7    O33   1.301321 A    
H7    C31   1.079810 S    
C49   C66   1.400899 A    
C8    C18   1.486281 S    
C20   C28   1.404585 A    
O7    C6    1.295948 A    
C35   C43   1.420850 A    
H9    C65   1.084397 S    
C34   C42   1.420062 A    
C43   C51   1.410633 A    
O15   V4    1.996594 S    
O14   C6    1.299110 A    
N4    O27   1.301277 A    
O1    V3    1.996071 S    
O16   V3    1.996592 S    
C59   N3    1.438522 S    
C32   C40   1.413901 A    
O2    V4    1.996070 S    
O13   C5    1.299110 A    
N7    O34   1.300340 A    
C27   C35   1.413879 A    
O5    C8    1.296314 A    
O10   C2    1.299135 A    
O17   V1    2.155283 S    
O6    C7    1.296314 A    
H21   C13   1.084534 S    
H2    C26   1.080866 S    
H13   C69   1.084136 S    
C35   C59   1.420055 A    
C59   C67   1.403726 A    
O19   V3    2.155487 S    
C16   C24   1.402495 A    
O10   V2    1.995500 S    
N1    O22   1.301489 A    
H17   C9    1.084741 S    
H6    C30   1.080668 S    
C36   C60   1.420056 A    
H5    C29   1.080668 S    
C12   C20   1.402501 A    
C24   C32   1.404537 A    
C58   N2    1.439544 S    
N5    O30   1.301259 A    
N8    O35   1.301309 A    
H14   C70   1.084187 S    
C36   C44   1.420850 A    
O7    V2    1.994769 S    
O13   V3    1.995307 S    
C41   C42   1.415377 A    
C42   C50   1.410682 A    
O20   V4    2.155488 S    
C46   C54   1.410381 A    
N2    O23   1.301554 A    
C9    C17   1.404296 A    
H12   C68   1.084228 S    
