data_mof_unit_31101.cif
_audit_creation_date              2012-12-10T20:38:15-0500
_audit_creation_method            fapswitch 2.2
_symmetry_space_group_name_H-M    P1
_symmetry_Int_Tables_number       1
_space_group_crystal_system       triclinic
_cell_length_a                    9.864895
_cell_length_b                    10.688585
_cell_length_c                    16.77352
_cell_angle_alpha                 90.502409
_cell_angle_beta                  82.810233
_cell_angle_gamma                 90.12029
_cell_volume                      1754.65465076

loop_
_atom_site_label
_atom_site_type_symbol
_atom_type_description
_atom_site_fract_x
_atom_site_fract_y
_atom_site_fract_z
_atom_type_partial_charge
C1    C     C_R   0.499911 0.739918 0.500645 0.902805
C2    C     C_R   0.332806 0.562527 0.778265 -0.205338
C3    C     C_R   0.505524 0.485158 0.128300 -0.119235
C4    C     C_R   0.505344 0.449159 0.207290 -0.267902
C5    C     C_R   0.583581 0.657662 0.240339 0.181020
C6    C     C_R   0.577502 0.694765 0.161319 -0.211186
C7    C     C_R   0.534194 0.609918 0.106017 0.119721
C8    C     C_2   0.409934 0.606745 0.989643 0.091392
C9    C     C_2   0.517171 0.650065 0.024634 0.177669
C10   C     C_R   0.541247 0.535619 0.263446 -0.044995
C11   C     C_R   0.381499 0.935778 0.491487 0.131791
C12   C     C_R   0.478177 0.500840 0.653489 0.852446
C13   C     C_R   0.497085 0.871740 0.508089 -0.103626
C14   C     C_R   0.605572 0.935982 0.536492 -0.224227
C15   C     C_R   0.605065 0.065346 0.537164 -0.222071
C16   C     C_R   0.495944 0.128502 0.509483 -0.103893
C17   C     C_R   0.380534 0.063352 0.492615 0.141306
C18   C     C_3   0.306439 0.070234 0.420277 -0.500524
C19   C     C_3   0.308459 0.928563 0.418634 -0.475956
C20   C     C_R   0.922510 0.600525 0.529340 0.157662
C21   C     C_R   0.935540 0.406110 0.464048 -0.134283
C22   C     C_R   0.079478 0.406077 0.464095 -0.114683
C23   C     C_R   0.499552 0.260098 0.501208 0.878203
C24   C     C_R   0.065230 0.601485 0.528713 0.136506
C25   C     C_3   0.051489 0.655181 0.612334 -0.016172
C26   C     C_3   0.897364 0.651738 0.612606 -0.499445
C27   C     C_R   0.521876 0.503141 0.347171 0.886778
C28   C     C_R   0.457852 0.516426 0.740377 -0.034073
C29   C     C_R   0.565159 0.494102 0.785369 -0.185534
C30   C     C_R   0.548715 0.521789 0.866896 -0.116974
C31   C     C_R   0.427469 0.578150 0.903292 0.148086
C32   C     C_R   0.318390 0.595348 0.858987 -0.166121
H1    H     H_    0.661299 0.455554 0.757645 0.147910
H2    H     H_    0.602569 0.790243 0.143965 0.171819
H3    H     H_    0.692655 0.887060 0.554457 0.164125
H4    H     H_    0.691981 0.115171 0.555450 0.171168
H5    H     H_    0.201890 0.109180 0.434979 0.198099
H6    H     H_    0.368855 0.113143 0.367691 0.195636
H7    H     H_    0.205115 0.886418 0.431120 0.195245
H8    H     H_    0.372543 0.888750 0.365341 0.197682
H9    H     H_    0.887076 0.329162 0.436262 0.146530
H10   H     H_    0.139484 0.329450 0.436139 0.143400
H11   H     H_    0.088576 0.591840 0.657086 0.159281
H12   H     H_    0.474776 0.354933 0.224966 0.138903
H13   H     H_    0.846041 0.583271 0.655923 0.200292
H14   H     H_    0.848126 0.745327 0.614666 0.203887
H15   H     H_    0.222531 0.634492 0.886684 0.148589
H16   H     H_    0.478057 0.416711 0.085057 0.145800
H17   H     H_    0.247312 0.576648 0.745176 0.150825
H18   H     H_    0.631115 0.499891 0.901449 0.156110
N1    N     N_R   0.857140 0.500860 0.500530 -0.099782
N2    N     N_R   0.142780 0.500820 0.500530 -0.112879
O1    O     O_R   0.385310 0.683210 0.499990 -0.615288
O2    O     O_R   0.614650 0.683240 0.500000 -0.611004
O3    O     O_R   0.371780 0.500000 0.615800 -0.624556
O4    O     O_R   0.601120 0.500040 0.615800 -0.615570
O5    O     O_R   0.385350 0.316760 0.500000 -0.618111
O6    O     O_R   0.614690 0.316790 0.500010 -0.627366
O7    O     O_R   0.398880 0.499960 0.384200 -0.611057
O8    O     O_R   0.628220 0.500000 0.384200 -0.606894
Zn1   Zn    Zn3+2 0.346870 0.499980 0.499990 0.947420
Zn2   Zn    Zn3+2 0.653130 0.500020 0.500010 0.944569
N3    N     N_2   0.100660 0.783377 0.614594 -0.280818
H19   H     H_    0.114433 0.830408 0.560836 0.231487
C33   C     C_3   0.200304 0.810197 0.668568 -0.727037
H20   H     H_    0.224810 0.911663 0.666934 0.234310
H21   H     H_    0.295557 0.756775 0.650269 0.241366
H22   H     H_    0.158170 0.786054 0.731048 0.241637
N4    N     N_2   0.622834 0.745454 0.297505 -0.318795
H23   H     H_    0.586057 0.834321 0.290204 0.209405
C34   C     C_3   0.767930 0.747488 0.303177 -0.729170
H24   H     H_    0.824831 0.782570 0.246336 0.228061
H25   H     H_    0.805533 0.652612 0.315365 0.261122
H26   H     H_    0.788350 0.810562 0.353286 0.233633
Br1   Br    Br    0.660065 0.750122 0.967112 -0.562081
N5    N     N_2   0.288035 0.565209 0.037560 -0.324880
H27   H     H_    0.229497 0.502893 0.009257 0.229758
C35   C     C_3   0.207843 0.663354 0.080562 -0.742621
H28   H     H_    0.118996 0.621483 0.118268 0.240486
H29   H     H_    0.169686 0.728944 0.037427 0.242050
H30   H     H_    0.269587 0.715785 0.120705 0.248159

loop_
_geom_bond_atom_site_label_1
_geom_bond_atom_site_label_2
_ccdc_geom_bond_type
C10   C27   S    
O6    Zn2   S    
C23   O6    A    
N3    C33   S    
C24   N2    A    
C25   H11   S    
C11   C19   S    
C12   C28   S    
C2    C32   A    
C28   C29   A    
C18   H5    S    
N5    C35   S    
C20   N1    A    
C3    C7    A    
N2    Zn1   S    
C5    C6    A    
C35   H29   S    
C15   C16   A    
C29   H1    S    
C3    H16   S    
C8    N5    S    
O8    Zn2   S    
C18   C19   S    
C25   N3    S    
N4    C34   S    
C1    O1    A    
C5    N4    S    
C26   H13   S    
O1    Zn1   S    
C20   C24   A    
C16   C17   A    
C33   H21   S    
C30   H18   S    
C13   C14   A    
N1    Zn2   S    
O7    Zn1   S    
N5    H27   S    
C14   H3    S    
C34   H25   S    
C35   H28   S    
C8    C9    D    
O2    Zn2   S    
C25   C26   S    
C6    H2    S    
C1    O2    A    
C29   C30   A    
C2    H17   S    
C31   C32   A    
C30   C31   A    
C33   H22   S    
C23   O5    A    
C17   C18   S    
C24   C25   S    
C12   O4    A    
C19   H7    S    
C21   H9    S    
C16   C23   S    
C32   H15   S    
O4    Zn2   S    
C1    C13   S    
C4    C10   A    
C3    C4    A    
C15   H4    S    
C21   N1    A    
C22   N2    A    
C7    C9    S    
C11   C17   A    
C8    C31   S    
C34   H26   S    
O5    Zn1   S    
C6    C7    A    
C4    H12   S    
C27   O8    A    
C18   H6    S    
C5    C10   A    
C27   O7    A    
C11   C13   A    
C35   H30   S    
C22   H10   S    
C20   C26   S    
O3    Zn1   S    
N4    H23   S    
C12   O3    A    
C19   H8    S    
C26   H14   S    
N3    H19   S    
C34   H24   S    
C33   H20   S    
C14   C15   A    
C2    C28   A    
C9    Br1   S    
C21   C22   A    
