data_mof_unit_62208.cif
_audit_creation_date              2012-10-26T18:35:15-0400
_audit_creation_method            fapswitch 2.2
_symmetry_space_group_name_H-M    P1
_symmetry_Int_Tables_number       1
_space_group_crystal_system       triclinic
_cell_length_a                    10.833446
_cell_length_b                    14.427132
_cell_length_c                    13.141221
_cell_angle_alpha                 89.999193
_cell_angle_beta                  90.140918
_cell_angle_gamma                 89.99874
_cell_volume                      2053.90822275

loop_
_atom_site_label
_atom_site_type_symbol
_atom_type_description
_atom_site_fract_x
_atom_site_fract_y
_atom_site_fract_z
_atom_type_partial_charge
C1    C     C_R   0.500000 0.328711 0.500000 0.551598
C2    C     C_R   0.742928 0.499145 0.500183 0.552210
C3    C     C_R   0.500013 0.671271 0.499999 0.529671
C4    C     C_3   0.070565 0.458841 0.597754 -0.248052
C5    C     C_3   0.070015 0.448176 0.408510 -0.253163
C6    C     C_3   0.929997 0.448526 0.591754 -0.253155
C7    C     C_3   0.929443 0.458450 0.402460 -0.248067
C8    C     C_3   0.074159 0.611010 0.491666 0.058632
C9    C     C_3   0.925796 0.611030 0.507828 0.058619
C10   C     C_3   0.120826 0.506030 0.499415 0.058112
C11   C     C_3   0.879168 0.506016 0.500571 0.058128
C12   C     C_1   0.500008 0.957546 0.499999 -0.006548
C13   C     C_1   0.500002 0.227124 0.500002 -0.054312
C14   C     C_1   0.500003 0.142294 0.500001 -0.048259
C15   C     C_1   0.500006 0.042373 0.500000 -0.006014
C16   C     C_3   0.143168 0.673501 0.570666 -0.374183
C17   C     C_3   0.112412 0.652676 0.386210 -0.384917
C18   C     C_3   0.887517 0.653084 0.613089 -0.384976
C19   C     C_3   0.856769 0.673217 0.428542 -0.374129
C20   C     C_1   0.500010 0.857636 0.499998 -0.051096
C21   C     C_1   0.500012 0.772824 0.499998 -0.067179
C22   C     C_1   0.499998 0.500040 0.173622 0.111425
C23   C     C_1   0.500002 0.500040 0.826378 0.111445
C24   C     C_1   0.499999 0.500053 0.050683 -0.054760
C25   C     C_1   0.500001 0.500053 0.949317 -0.054757
C26   C     C_R   0.257071 0.499179 0.499816 0.552239
Cu1   Cu    Cu3+1 0.500000 0.499990 0.592680 0.944963
Cu2   Cu    Cu3+1 0.500000 0.499990 0.407320 0.944879
H1    H     H_    0.096043 0.498531 0.666960 0.128325
H2    H     H_    0.243324 0.677383 0.553910 0.142995
H3    H     H_    0.108527 0.745875 0.567187 0.120473
H4    H     H_    0.213295 0.647242 0.373536 0.153481
H5    H     H_    0.065924 0.618592 0.321158 0.118603
H6    H     H_    0.090948 0.727830 0.382053 0.121287
H7    H     H_    0.934042 0.619275 0.678297 0.118613
H8    H     H_    0.908917 0.728264 0.616891 0.121335
H9    H     H_    0.786638 0.647634 0.625790 0.153339
H10   H     H_    0.756616 0.677174 0.445293 0.143173
H11   H     H_    0.891402 0.745603 0.431679 0.120403
H12   H     H_    0.112045 0.468292 0.334709 0.134478
H13   H     H_    0.865050 0.647779 0.349473 0.123202
H14   H     H_    0.887963 0.468926 0.665459 0.134502
H15   H     H_    0.903957 0.497869 0.333068 0.128349
H16   H     H_    0.112122 0.388716 0.607165 0.118905
H17   H     H_    0.093803 0.373706 0.419517 0.115747
H18   H     H_    0.906231 0.374011 0.581101 0.115794
H19   H     H_    0.887900 0.388285 0.393379 0.118781
H20   H     H_    0.134879 0.648373 0.649854 0.123138
N1    N     N_1   0.500000 0.500020 0.268070 -0.170807
N2    N     N_1   0.500000 0.500020 0.731930 -0.170786
O1    O     O_R   0.500000 0.376050 0.578280 -0.470005
O2    O     O_R   0.500000 0.376050 0.421720 -0.469996
O3    O     O_R   0.317680 0.499980 0.578260 -0.494531
O4    O     O_R   0.317680 0.499980 0.421740 -0.500034
O5    O     O_R   0.682320 0.499980 0.578260 -0.500009
O6    O     O_R   0.682320 0.499980 0.421740 -0.494566
O7    O     O_R   0.500000 0.623940 0.578240 -0.476237
O8    O     O_R   0.500000 0.623940 0.421760 -0.476311

loop_
_geom_bond_atom_site_label_1
_geom_bond_atom_site_label_2
_ccdc_geom_bond_type
Cu1   N2    S    
C7    H19   S    
C3    O8    A    
C19   H10   S    
Cu2   O8    S    
Cu2   O2    S    
Cu2   N1    S    
C4    H1    S    
C1    O1    A    
C12   C15   T    
C6    H18   S    
C5    H17   S    
C10   C26   S    
Cu1   O3    S    
Cu2   O6    S    
C19   H13   S    
C5    C10   S    
C8    C16   S    
C2    O6    A    
C13   C14   T    
C24   C25   T    
C16   H3    S    
C7    C11   S    
C9    C11   S    
C12   C20   S    
C19   H11   S    
C22   N1    T    
C2    C11   S    
C26   O4    A    
C8    C10   S    
C18   H9    S    
Cu1   O1    S    
C22   C24   S    
C2    O5    A    
C23   C25   S    
Cu1   O7    S    
C1    O2    A    
Cu1   O5    S    
C3    C21   S    
C1    C13   S    
C17   H6    S    
C16   H2    S    
C26   O3    A    
C3    O7    A    
C9    C18   S    
C6    C11   S    
C20   C21   T    
C4    C6    S    
C18   H7    S    
C5    H12   S    
Cu1   Cu2   S    
C5    C7    S    
C17   H4    S    
Cu2   O4    S    
C14   C15   S    
C23   N2    T    
C4    H16   S    
C17   H5    S    
C16   H20   S    
C18   H8    S    
C9    C19   S    
C8    C17   S    
C4    C10   S    
C7    H15   S    
C8    C9    S    
C6    H14   S    
