data_mof_unit_11627.cif
_audit_creation_date              2012-12-11T20:30:33-0500
_audit_creation_method            fapswitch 2.2
_symmetry_space_group_name_H-M    P1
_symmetry_Int_Tables_number       1
_space_group_crystal_system       triclinic
_cell_length_a                    8.315482
_cell_length_b                    17.374044
_cell_length_c                    18.719262
_cell_angle_alpha                 103.390411
_cell_angle_beta                  91.767004
_cell_angle_gamma                 98.13989
_cell_volume                      2598.72099368

loop_
_atom_site_label
_atom_site_type_symbol
_atom_type_description
_atom_site_fract_x
_atom_site_fract_y
_atom_site_fract_z
_atom_type_partial_charge
Ba1   Ba    Ba6+2 0.853800 0.535410 0.467450 1.649876
Ba2   Ba    Ba6+2 0.336030 0.464660 0.532560 1.630122
C1    C     C_3   0.592168 0.774950 0.226123 -0.102449
C2    C     C_R   0.887657 0.429278 0.090955 0.033009
C3    C     C_R   0.721508 0.404538 0.067475 -0.079187
C4    C     C_3   0.151728 0.731405 0.284902 0.324608
C5    C     C_R   0.662331 0.410097 0.998720 -0.096897
C6    C     C_R   0.766949 0.440870 0.951635 0.030651
C7    C     C_R   0.929871 0.472060 0.976201 0.020423
C8    C     C_R   0.710700 0.439750 0.880187 -0.110087
C9    C     C_R   0.815961 0.467465 0.830862 -0.031304
C10   C     C_R   0.977556 0.503330 0.856391 0.005464
C11   C     C_R   0.033498 0.505686 0.929503 -0.007721
C12   C     C_3   0.625925 0.732165 0.287184 0.558066
C13   C     C_R   0.764729 0.459468 0.756596 0.009836
C14   C     C_R   0.874188 0.486426 0.708792 -0.247242
C15   C     C_R   0.029762 0.528298 0.734099 0.084886
C16   C     C_3   0.084664 0.745890 0.212788 -0.078175
C17   C     C_R   0.082889 0.537116 0.809344 -0.038880
C18   C     C_R   0.151520 0.500597 0.072328 -0.005826
C19   C     C_R   0.211256 0.497480 0.143511 -0.023262
C20   C     C_R   0.109717 0.457555 0.188156 -0.065518
C21   C     C_R   0.954791 0.414693 0.156340 0.177846
C22   C     C_R   0.237587 0.578389 0.839468 -0.052791
C23   C     C_3   0.450218 0.284786 0.297556 0.277686
C24   C     C_R   0.296180 0.576659 0.910205 0.029111
C25   C     C_R   0.194227 0.539740 0.955373 0.003436
C26   C     C_R   0.253276 0.537194 0.026550 0.023562
C27   C     C_R   0.457042 0.610042 0.935989 -0.082595
C28   C     C_3   0.189377 0.723067 0.644592 0.358453
C29   C     C_R   0.516437 0.606183 0.005558 -0.095942
C30   C     C_R   0.415309 0.570134 0.051226 0.033864
C31   C     C_R   0.374278 0.532350 0.168528 -0.065548
C32   C     C_R   0.474746 0.566522 0.120928 -0.125830
C33   C     C_R   0.434423 0.530130 0.239447 -0.017734
C34   C     C_3   0.433036 0.229822 0.220217 -0.124925
C35   C     C_R   0.335591 0.489655 0.283476 -0.110538
C36   C     C_R   0.169906 0.459197 0.261404 0.038511
C37   C     C_2   0.452852 0.718179 0.473773 -0.218631
C38   C     C_3   0.364179 0.770274 0.436732 -0.062275
C39   C     C_2   0.408370 0.858143 0.471463 -0.095098
C40   C     C_3   0.128546 0.804821 0.666456 -0.071916
C41   C     C_2   0.548580 0.886212 0.513896 0.004203
C42   C     C_2   0.643157 0.827453 0.535877 -0.125445
C43   C     C_1   0.582428 0.750121 0.519893 0.108174
C44   C     C_R   0.794728 0.143229 0.551002 -0.110685
C45   C     C_3   0.028092 0.278502 0.727001 0.470567
C46   C     C_R   0.857272 0.224027 0.558269 0.009964
C47   C     C_R   0.611190 0.243233 0.495778 0.059106
C48   C     C_R   0.549110 0.162565 0.488028 -0.120541
C49   C     C_R   0.638849 0.112080 0.516089 0.002291
C50   C     C_2   0.613812 0.973388 0.536624 -0.077739
C51   C     C_2   0.573886 0.025585 0.498330 -0.076094
C52   C     C_3   0.947986 0.293355 0.375568 0.302539
C53   C     C_R   0.762612 0.274336 0.533124 -0.286534
C54   C     C_3   0.909338 0.202394 0.355694 -0.381960
C55   C     C_3   0.768168 0.678683 0.705066 0.419896
C56   C     C_3   0.118137 0.316435 0.802247 -0.314688
C57   C     C_3   0.821184 0.733781 0.781702 -0.089636
C58   C     C_3   0.534549 0.263277 0.686175 0.365681
C59   C     C_3   0.490755 0.184093 0.707840 -0.354212
C60   C     C_R   0.989314 0.468320 0.047047 -0.021693
H1    H     H_    0.157107 0.838265 0.623337 0.108542
H2    H     H_    0.668558 0.275125 0.683174 -0.060458
H3    H     H_    0.472901 0.257799 0.631401 0.082047
H4    H     H_    0.540642 0.136050 0.669057 0.081930
H5    H     H_    0.156491 0.666173 0.276538 -0.025388
H6    H     H_    0.542258 0.188924 0.764401 0.108897
H7    H     H_    0.634397 0.382275 0.102339 0.072859
H8    H     H_    0.833476 0.479307 0.651857 0.061355
H9    H     H_    0.584854 0.415219 0.863468 0.110039
H10   H     H_    0.316466 0.610491 0.807996 0.096616
H11   H     H_    0.537922 0.638005 0.901833 0.077322
H12   H     H_    0.994712 0.795929 0.667674 0.100743
H13   H     H_    0.276358 0.765273 0.296910 0.002776
H14   H     H_    0.489848 0.004553 0.450053 0.072655
H15   H     H_    0.701092 0.993885 0.583884 0.075676
H16   H     H_    0.331360 0.897872 0.456176 0.070453
H17   H     H_    0.422351 0.653740 0.453960 0.091114
H18   H     H_    0.813026 0.335965 0.536004 0.060836
H19   H     H_    0.119076 0.688644 0.593282 0.099008
H20   H     H_    0.654255 0.830341 0.374733 0.142455
H21   H     H_    0.749400 0.755886 0.387670 0.207938
H22   H     H_    0.197339 0.820646 0.777014 0.205697
H23   H     H_    0.044923 0.311710 0.420772 0.081204
H24   H     H_    0.322002 0.876573 0.732215 0.180056
H25   H     H_    0.838210 0.319048 0.394303 0.026819
H26   H     H_    0.810605 0.182061 0.311161 0.140113
H27   H     H_    0.558518 0.630113 0.741638 0.194303
H28   H     H_    0.618761 0.572088 0.663966 0.209739
H29   H     H_    0.616015 0.893756 0.278440 0.185949
H30   H     H_    0.473626 0.864669 0.208912 0.178964
H31   H     H_    0.902630 0.788606 0.777609 0.088585
H32   H     H_    0.894777 0.722172 0.883273 0.173900
H33   H     H_    0.024116 0.697124 0.818606 0.188026
H34   H     H_    0.869895 0.180146 0.404142 0.063451
H35   H     H_    0.711319 0.754098 0.808031 0.089137
H36   H     H_    0.507137 0.709006 0.306171 -0.131821
H37   H     H_    0.325889 0.293185 0.314625 0.022108
H38   H     H_    0.526705 0.341172 0.294629 0.004187
H39   H     H_    0.361032 0.171085 0.221141 0.113936
H40   H     H_    0.236477 0.273708 0.184987 0.169959
H41   H     H_    0.417825 0.321145 0.168640 0.160883
H42   H     H_    0.555554 0.219222 0.201800 0.117784
H43   H     H_    0.168828 0.727791 0.169098 0.055695
H44   H     H_    0.957555 0.323909 0.713653 -0.033573
H45   H     H_    0.019541 0.176451 0.336518 0.114002
H46   H     H_    0.982680 0.164952 0.744288 0.177323
H47   H     H_    0.837478 0.221722 0.772060 0.141370
H48   H     H_    0.197370 0.372767 0.800129 0.145898
H49   H     H_    0.194821 0.274953 0.818242 0.124055
H50   H     H_    0.356544 0.167681 0.706213 0.144225
H51   H     H_    0.534713 0.388996 0.981917 0.077188
H52   H     H_    0.964115 0.307091 0.176780 0.161211
H53   H     H_    0.778107 0.315197 0.151696 0.149939
H54   H     H_    0.641768 0.631552 0.023716 0.072749
H55   H     H_    0.601450 0.589552 0.136598 0.103687
H56   H     H_    0.875114 0.658710 0.677180 0.031482
H57   H     H_    0.354955 0.423721 0.359591 0.148623
H58   H     H_    0.523104 0.465100 0.342283 0.194702
H59   H     H_    0.761004 0.848856 0.565929 0.081929
H60   H     H_    0.871347 0.104529 0.568188 0.074835
H61   H     H_    0.434451 0.138079 0.456375 0.087085
H62   H     H_    0.965078 0.707916 0.194950 0.143883
H63   H     H_    0.180363 0.865539 0.238813 0.188328
H64   H     H_    0.984301 0.846235 0.258450 0.223651
H65   H     H_    0.425117 0.764513 0.678567 0.200351
H66   H     H_    0.386568 0.678719 0.613821 0.179728
H67   H     H_    0.505595 0.733143 0.183272 0.062620
H68   H     H_    0.706444 0.789953 0.199517 0.108550
H69   H     H_    0.029960 0.330962 0.844880 0.050897
N1    N     N_3   0.723885 0.787865 0.348883 -0.444445
N2    N     N_3   0.068390 0.829941 0.219487 -0.501279
N3    N     N_3   0.357425 0.736213 0.629233 -0.535098
N4    N     N_3   0.200465 0.854534 0.737543 -0.510857
N5    N     N_3   0.658426 0.609695 0.715192 -0.495831
N6    N     N_3   0.521756 0.847662 0.254156 -0.538451
N7    N     N_3   0.900640 0.691787 0.828459 -0.515402
N8    N     N_3   0.352300 0.264886 0.167791 -0.515765
N9    N     N_3   0.915959 0.206628 0.730218 -0.525369
N10   N     N_3   0.881180 0.347712 0.183428 -0.451725
N11   N     N_3   0.406263 0.478421 0.351011 -0.433119
O1    O     O_2   0.871520 0.445720 0.321500 -0.430826
O2    O     O_2   0.186143 0.221437 0.533550 -0.493724
O3    O     O_3   0.143541 0.257484 0.675234 -0.568606
O4    O     O_3   0.121030 0.451930 0.411150 -0.480135
O5    O     O_3   0.581210 0.598010 0.542960 -0.488739
O6    O     O_2   0.335820 0.303580 0.452320 -0.470798
O7    O     O_3   0.530446 0.249494 0.345274 -0.657903
O8    O     O_2   0.434015 0.471289 0.755675 -0.479233
O9    O     O_3   0.480934 0.324313 0.738600 -0.594219
O10   O     O_3   0.662190 0.593100 0.375060 -0.464816
O11   O     O_2   0.766427 0.527224 0.246104 -0.470576
O12   O     O_3   0.686762 0.722434 0.665084 -0.673038
O13   O     O_3   0.999186 0.318140 0.312860 -0.638417
O14   O     O_3   0.716340 0.671208 0.257167 -0.611199
O15   O     O_2   0.853880 0.696450 0.547730 -0.493093
O16   O     O_3   0.085100 0.636210 0.413950 -0.463717
O17   O     O_2   0.046680 0.782359 0.486027 -0.494946
O18   O     O_3   0.054050 0.757778 0.342977 -0.559534
O19   O     O_2   0.318180 0.554310 0.678550 -0.475838
O20   O     O_3   0.068680 0.548140 0.588860 -0.499938
O21   O     O_3   0.527520 0.406960 0.624950 -0.481246
O22   O     O_3   0.175779 0.682388 0.701458 -0.672065
O23   O     O_3   0.608500 0.402060 0.457050 -0.480825
O24   O     O_3   0.104610 0.363860 0.586060 -0.472742
P1    P     P_3+3 0.038810 0.422920 0.331160 1.016382
P2    P     P_3+3 0.678260 0.686080 0.568600 0.949132
P3    P     P_3+3 0.138743 0.738211 0.422451 0.967468
P4    P     P_3+3 0.150900 0.577150 0.668860 0.952863
P5    P     P_3+3 0.071775 0.263508 0.588117 0.970541
P6    P     P_3+3 0.641731 0.580812 0.279225 0.957374
P7    P     P_3+3 0.520885 0.300022 0.437705 0.944039
P8    P     P_3+3 0.553725 0.416351 0.719238 0.952657

loop_
_geom_bond_atom_site_label_1
_geom_bond_atom_site_label_2
_ccdc_geom_bond_type
C46   C53   A    
O4    P1    S    
O3    P5    S    
H22   N4    S    
C30   C32   A    
C1    H68   S    
O22   P4    S    
H65   N3    S    
C28   O22   S    
Ba2   O20   S    
C47   P7    S    
C4    H13   S    
C12   N1    S    
C42   C43   D    
C26   C30   A    
O2    P5    D    
C24   C25   A    
Ba1   O10   S    
H47   N9    S    
Ba1   O16   S    
C33   C35   A    
C22   C24   A    
H66   N3    S    
C52   H25   S    
O10   P6    S    
C41   C50   S    
C54   H26   S    
C19   C31   A    
Ba1   P1    S    
Ba2   O6    S    
C13   C14   A    
C20   C36   A    
C2    C60   A    
C42   H59   S    
O15   P2    D    
C16   N2    S    
C23   O7    S    
Ba1   Ba2   S    
C7    C11   A    
C3    H7    S    
C15   C17   A    
H29   N6    S    
C9    C13   A    
C59   H4    S    
C23   H37   S    
H64   N2    S    
O13   P1    S    
C6    C7    A    
C28   N3    S    
C45   N9    S    
O18   P3    S    
C55   N5    S    
C1    N6    S    
Ba2   O24   S    
O7    P7    S    
C37   C43   D    
C8    H9    S    
C32   H55   S    
O24   P5    S    
H27   N5    S    
C56   H48   S    
C19   C20   A    
C18   C60   A    
C33   P6    S    
C39   C41   D    
O12   P2    S    
Ba1   O4    S    
H30   N6    S    
Ba2   O19   S    
C38   P3    S    
C43   P2    S    
C12   H36   S    
C44   C46   A    
C36   P1    S    
C4    C16   S    
C52   C54   S    
C40   H12   S    
C35   N11   S    
C7    C60   A    
H52   N10   S    
C5    C6    A    
C14   H8    S    
H53   N10   S    
C8    C9    A    
C37   C38   S    
C3    C5    A    
C2    C21   A    
C15   P4    S    
C14   C15   A    
C18   C26   A    
C57   N7    S    
Ba2   O5    S    
C47   C53   A    
C44   C49   A    
O14   P6    S    
C56   H49   S    
C58   C59   S    
C49   C51   S    
C58   O9    S    
C37   H17   S    
C41   C42   S    
C54   H45   S    
C35   C36   A    
Ba1   O1    S    
H41   N8    S    
C46   P5    S    
H28   N5    S    
C23   H38   S    
C29   C30   A    
O20   P4    S    
Ba1   O23   S    
C56   H69   S    
C45   H44   S    
C48   C49   A    
H58   N11   S    
C34   H39   S    
C10   C11   A    
Ba2   O23   S    
O1    P1    D    
C1    C12   S    
Ba2   P4    S    
O19   P4    D    
C4    H5    S    
O8    P8    D    
C58   H3    S    
H32   N7    S    
Ba1   O5    S    
C51   H14   S    
H20   N1    S    
C50   H15   S    
C29   H54   S    
C39   H16   S    
C50   C51   D    
C22   H10   S    
H46   N9    S    
H63   N2    S    
C52   O13   S    
C38   C39   S    
H33   N7    S    
O17   P3    D    
C13   P8    S    
C12   O14   S    
C1    H67   S    
C11   C25   A    
C48   H61   S    
C2    C3    A    
Ba2   O21   S    
Ba1   O20   S    
C52   H23   S    
C4    O18   S    
C9    C10   A    
O16   P3    S    
Ba2   O4    S    
C55   O12   S    
O6    P7    D    
Ba1   P2    S    
C34   H42   S    
C58   H2    S    
C5    H51   S    
C28   H19   S    
Ba1   O15   S    
C17   C22   A    
C16   H43   S    
H21   N1    S    
C27   C29   A    
C45   C56   S    
C53   H18   S    
O21   P8    S    
C59   H6    S    
O11   P6    D    
C57   H35   S    
C10   C17   A    
C31   C33   A    
C31   C32   A    
C28   C40   S    
H40   N8    S    
C54   H34   S    
C34   N8    S    
C44   H60   S    
C55   C57   S    
O5    P2    S    
C23   C34   S    
H24   N4    S    
C27   H11   S    
C18   C19   A    
C24   C27   A    
C6    C8    A    
C47   C48   A    
C25   C26   A    
O9    P8    S    
H57   N11   S    
C40   N4    S    
C20   C21   A    
C21   N10   S    
C57   H31   S    
C45   O3    S    
C59   H50   S    
O23   P7    S    
C40   H1    S    
C16   H62   S    
C55   H56   S    
