data_mof_unit_66048.cif
_audit_creation_date              2012-12-10T20:05:26-0500
_audit_creation_method            fapswitch 2.2
_symmetry_space_group_name_H-M    P1
_symmetry_Int_Tables_number       1
_space_group_crystal_system       monoclinic
_cell_length_a                    15.884466
_cell_length_b                    15.884464
_cell_length_c                    34.615839
_cell_angle_alpha                 90.0
_cell_angle_beta                  90.0
_cell_angle_gamma                 90.020813
_cell_volume                      8734.13736092

loop_
_atom_site_label
_atom_site_type_symbol
_atom_type_description
_atom_site_fract_x
_atom_site_fract_y
_atom_site_fract_z
_atom_type_partial_charge
C1    C     C_R   0.500000 0.000000 0.355866 0.514753
C2    C     C_R   0.660004 0.839969 0.750010 0.515506
C3    C     C_R   0.883209 0.400738 0.020017 -0.120334
C4    C     C_R   0.400807 0.116777 0.979983 -0.120348
C5    C     C_R   0.599192 0.883223 0.020017 -0.120348
C6    C     C_R   0.883209 0.400738 0.979983 -0.120334
C7    C     C_R   0.116791 0.599262 0.020017 -0.120334
C8    C     C_1   0.099026 0.620599 0.397147 0.212010
C9    C     C_1   0.900974 0.379401 0.602852 0.212010
C10   C     C_1   0.379394 0.900983 0.397147 0.212011
C11   C     C_1   0.620606 0.099017 0.602853 0.212011
C12   C     C_1   0.900976 0.379399 0.397147 0.212009
C13   C     C_R   0.839992 0.339982 0.250004 0.520887
C14   C     C_1   0.099024 0.620600 0.602853 0.212009
C15   C     C_1   0.620606 0.099017 0.397147 0.212012
C16   C     C_1   0.379394 0.900983 0.602853 0.212012
C17   C     C_1   0.401974 0.121291 0.897127 0.213753
C18   C     C_1   0.598025 0.878709 0.102872 0.213753
C19   C     C_1   0.878698 0.401900 0.897127 0.213817
C20   C     C_1   0.121302 0.598100 0.102873 0.213817
C21   C     C_1   0.598025 0.878709 0.897127 0.213753
C22   C     C_1   0.401975 0.121291 0.102872 0.213753
C23   C     C_1   0.121302 0.598101 0.897127 0.213817
C24   C     C_R   0.160008 0.660018 0.749996 0.520887
C25   C     C_1   0.878698 0.401899 0.102873 0.213817
C26   C     C_R   0.660004 0.839969 0.249990 0.515506
C27   C     C_R   0.339995 0.160030 0.750010 0.515506
C28   C     C_R   0.160008 0.660018 0.250004 0.520886
C29   C     C_R   0.839992 0.339982 0.749996 0.520887
C30   C     C_R   0.339973 0.839999 0.749990 0.516494
C31   C     C_R   0.660027 0.160001 0.250010 0.516493
C32   C     C_R   0.839976 0.660014 0.750004 0.511118
C33   C     C_R   0.500000 0.000000 0.644134 0.514753
C34   C     C_R   0.160024 0.339986 0.249996 0.511118
C35   C     C_R   0.660027 0.160001 0.749990 0.516493
C36   C     C_R   0.339973 0.839999 0.250010 0.516493
C37   C     C_R   0.160024 0.339986 0.750004 0.511118
C38   C     C_R   0.839976 0.660014 0.249996 0.511118
C39   C     C_1   0.276655 0.776687 0.250016 0.005990
C40   C     C_1   0.723345 0.223313 0.749984 0.005990
C41   C     C_1   0.223346 0.276681 0.249987 -0.003066
C42   C     C_1   0.776654 0.723319 0.750013 -0.003066
C43   C     C_1   0.723345 0.223313 0.250016 0.005990
C44   C     C_R   0.000000 0.500000 0.355866 0.514765
C45   C     C_1   0.276655 0.776687 0.749984 0.005990
C46   C     C_1   0.776654 0.723319 0.249987 -0.003066
C47   C     C_1   0.223346 0.276681 0.750013 -0.003066
C48   C     C_1   0.276687 0.223346 0.750016 -0.000504
C49   C     C_1   0.723313 0.776654 0.249984 -0.000504
C50   C     C_1   0.223313 0.723340 0.749987 0.008557
C51   C     C_1   0.776687 0.276660 0.250013 0.008557
C52   C     C_1   0.723313 0.776654 0.750016 -0.000504
C53   C     C_1   0.276687 0.223346 0.249984 -0.000504
C54   C     C_1   0.776687 0.276660 0.749987 0.008557
C55   C     C_R   1.000000 0.500000 0.644134 0.514765
C56   C     C_1   0.223313 0.723340 0.250013 0.008557
C57   C     C_R   0.050146 0.558636 0.418440 -0.036673
C58   C     C_R   0.949854 0.441364 0.581560 -0.036673
C59   C     C_R   0.441360 0.949858 0.418440 -0.036693
C60   C     C_R   0.558640 0.050142 0.581560 -0.036693
C61   C     C_R   0.949854 0.441363 0.418440 -0.036673
C62   C     C_R   0.050146 0.558637 0.581560 -0.036673
C63   C     C_R   0.558640 0.050142 0.418440 -0.036692
C64   C     C_R   0.441360 0.949858 0.581560 -0.036692
C65   C     C_R   0.450345 0.059004 0.918436 -0.035247
C66   C     C_R   0.000000 0.500000 0.855865 0.516355
C67   C     C_R   0.549655 0.940996 0.081564 -0.035247
C68   C     C_R   0.940990 0.450309 0.918436 -0.035151
C69   C     C_R   0.059010 0.549691 0.081564 -0.035151
C70   C     C_R   0.549655 0.940996 0.918436 -0.035247
C71   C     C_R   0.450345 0.059004 0.081564 -0.035247
C72   C     C_R   0.059009 0.549691 0.918436 -0.035151
C73   C     C_R   0.940990 0.450309 0.081564 -0.035151
C74   C     C_R   0.000000 0.500000 0.398262 -0.005853
C75   C     C_R   1.000000 0.500000 0.601738 -0.005853
C76   C     C_R   0.500000 1.000000 0.398262 -0.005865
C77   C     C_R   0.000000 0.500000 0.144135 0.516355
C78   C     C_R   0.500000 1.000000 0.601738 -0.005865
C79   C     C_R   0.500000 1.000000 0.898260 -0.004726
C80   C     C_R   0.500000 0.000000 0.101740 -0.004726
C81   C     C_R   1.000000 0.500000 0.898260 -0.004674
C82   C     C_R   0.000000 0.500000 0.101740 -0.004674
C83   C     C_R   0.949488 0.441450 0.459133 0.001815
C84   C     C_R   0.050511 0.558550 0.540867 0.001815
C85   C     C_R   0.558554 0.050507 0.459133 0.001813
C86   C     C_R   0.441446 0.949493 0.540867 0.001813
C87   C     C_R   0.050512 0.558550 0.459133 0.001815
C88   C     C_R   0.500000 0.000000 0.855865 0.516278
C89   C     C_R   0.949488 0.441450 0.540867 0.001815
C90   C     C_R   0.441446 0.949493 0.459133 0.001813
C91   C     C_R   0.558554 0.050507 0.540867 0.001813
C92   C     C_R   0.550008 0.941062 0.959130 0.001383
C93   C     C_R   0.449992 0.058938 0.040870 0.001383
C94   C     C_R   0.058944 0.550044 0.959130 0.001399
C95   C     C_R   0.941056 0.449956 0.040870 0.001399
C96   C     C_R   0.449992 0.058938 0.959130 0.001383
C97   C     C_R   0.550008 0.941062 0.040870 0.001383
C98   C     C_R   0.941055 0.449956 0.959130 0.001399
C99   C     C_R   0.500000 0.000000 0.144135 0.516278
C100  C     C_R   0.058944 0.550044 0.040870 0.001399
C101  C     C_R   0.000000 0.500000 0.479522 0.044396
C102  C     C_R   1.000000 0.500000 0.520478 0.044396
C103  C     C_R   0.500000 1.000000 0.479522 0.044400
C104  C     C_R   0.500000 1.000000 0.520478 0.044400
C105  C     C_R   0.500000 0.000000 0.979521 0.044228
C106  C     C_R   0.500000 0.000000 0.020479 0.044228
C107  C     C_R   1.000000 0.500000 0.979521 0.044222
C108  C     C_R   0.000000 0.500000 0.020479 0.044222
C109  C     C_R   0.899795 0.384004 0.479984 -0.121408
C110  C     C_R   0.339995 0.160030 0.249990 0.515506
C111  C     C_R   0.100205 0.615996 0.520016 -0.121408
C112  C     C_R   0.616004 0.100196 0.479984 -0.121411
C113  C     C_R   0.383996 0.899804 0.520016 -0.121411
C114  C     C_R   0.100205 0.615996 0.479984 -0.121408
C115  C     C_R   0.899795 0.384004 0.520016 -0.121408
C116  C     C_R   0.383996 0.899804 0.479984 -0.121410
C117  C     C_R   0.616004 0.100196 0.520016 -0.121410
C118  C     C_R   0.599193 0.883223 0.979983 -0.120348
C119  C     C_R   0.400807 0.116777 0.020017 -0.120348
C120  C     C_R   0.116791 0.599262 0.979983 -0.120334
H1    H     H_    0.860122 0.338338 0.465577 0.136475
H2    H     H_    0.361541 0.162756 0.034428 0.138602
H3    H     H_    0.162775 0.638555 0.965572 0.138595
H4    H     H_    0.837225 0.361445 0.034428 0.138595
H5    H     H_    0.361542 0.162756 0.965572 0.138602
H6    H     H_    0.638458 0.837244 0.034428 0.138602
H7    H     H_    0.837224 0.361445 0.965572 0.138595
H8    H     H_    0.162775 0.638555 0.034428 0.138595
H9    H     H_    0.139878 0.661662 0.534423 0.136475
H10   H     H_    0.661673 0.139865 0.465577 0.136469
H11   H     H_    0.338327 0.860135 0.534423 0.136469
H12   H     H_    0.139878 0.661662 0.465577 0.136475
H13   H     H_    0.860122 0.338338 0.534423 0.136475
H14   H     H_    0.338327 0.860135 0.465577 0.136469
H15   H     H_    0.661673 0.139865 0.534423 0.136469
H16   H     H_    0.638459 0.837244 0.965572 0.138602
N1    N     N_1   0.137906 0.669919 0.380177 -0.265360
N2    N     N_1   0.636492 0.829134 0.119866 -0.276661
N3    N     N_1   0.829119 0.363404 0.880133 -0.277445
N4    N     N_1   0.170881 0.636596 0.119867 -0.277445
N5    N     N_1   0.636491 0.829134 0.880134 -0.276662
N6    N     N_1   0.363509 0.170866 0.119866 -0.276662
N7    N     N_1   0.170880 0.636598 0.880133 -0.277444
N8    N     N_1   0.829120 0.363401 0.119867 -0.277444
N9    N     N_1   0.862094 0.330081 0.619823 -0.265360
N10   N     N_1   0.330071 0.862106 0.380177 -0.265228
N11   N     N_1   0.669929 0.137894 0.619823 -0.265229
N12   N     N_1   0.862097 0.330078 0.380177 -0.265361
N13   N     N_1   0.137903 0.669922 0.619823 -0.265361
N14   N     N_1   0.669930 0.137892 0.380177 -0.265229
N15   N     N_1   0.330070 0.862108 0.619823 -0.265229
N16   N     N_1   0.363508 0.170866 0.880134 -0.276661
O1    O     O_3   0.500000 0.000000 0.250000 -0.462877
O2    O     O_R   0.500000 0.930770 0.662510 -0.527637
O3    O     O_R   0.930770 0.500000 0.337490 -0.527631
O4    O     O_R   0.069230 0.500000 0.662510 -0.527631
O5    O     O_R   0.000000 0.430770 0.837490 -0.526668
O6    O     O_R   1.000000 0.569230 0.162510 -0.526668
O7    O     O_R   0.569230 0.000000 0.837490 -0.526710
O8    O     O_R   0.430770 0.000000 0.162510 -0.526710
O9    O     O_R   0.000000 0.569230 0.837490 -0.526668
O10   O     O_R   0.000000 0.430770 0.162510 -0.526668
O11   O     O_R   0.430770 0.000000 0.837490 -0.526710
O12   O     O_3   0.500000 0.000000 0.750000 -0.462877
O13   O     O_R   0.569230 0.000000 0.162510 -0.526710
O14   O     O_R   0.402530 0.166640 0.272980 -0.534070
O15   O     O_R   0.597470 0.833360 0.727020 -0.534070
O16   O     O_R   0.833360 0.402530 0.272980 -0.523354
O17   O     O_R   0.166640 0.597470 0.727020 -0.523354
O18   O     O_R   0.597470 0.833360 0.272980 -0.534070
O19   O     O_R   0.402530 0.166640 0.727020 -0.534070
O20   O     O_R   0.166640 0.597470 0.272980 -0.523354
O21   O     O_R   0.833360 0.402530 0.727020 -0.523354
O22   O     O_R   0.402530 0.833360 0.727020 -0.522124
O23   O     O_3   0.000000 0.500000 0.250000 -0.462898
O24   O     O_R   0.597470 0.166640 0.272980 -0.522124
O25   O     O_R   0.833360 0.597470 0.727020 -0.532838
O26   O     O_R   0.166640 0.402530 0.272980 -0.532838
O27   O     O_R   0.597470 0.166640 0.727020 -0.522124
O28   O     O_R   0.402530 0.833360 0.272980 -0.522124
O29   O     O_R   0.166640 0.402530 0.727020 -0.532838
O30   O     O_R   0.833360 0.597470 0.272980 -0.532838
O31   O     O_R   0.902530 0.666640 0.772980 -0.530077
O32   O     O_R   0.097470 0.333360 0.227020 -0.530077
O33   O     O_R   0.333360 0.902530 0.772980 -0.532812
O34   O     O_3   0.000000 0.500000 0.750000 -0.462898
O35   O     O_R   0.666640 0.097470 0.227020 -0.532812
O36   O     O_R   0.097470 0.333360 0.772980 -0.530077
O37   O     O_R   0.902530 0.666640 0.227020 -0.530077
O38   O     O_R   0.666640 0.097470 0.772980 -0.532812
O39   O     O_R   0.333360 0.902530 0.227020 -0.532812
O40   O     O_R   0.902530 0.333360 0.227020 -0.525277
O41   O     O_R   0.097470 0.666640 0.772980 -0.525277
O42   O     O_R   0.333360 0.097470 0.227020 -0.522569
O43   O     O_R   0.666640 0.902530 0.772980 -0.522569
O44   O     O_R   0.097470 0.666640 0.227020 -0.525277
O45   O     O_R   0.500000 0.930770 0.337490 -0.527637
O46   O     O_R   0.902530 0.333360 0.772980 -0.525277
O47   O     O_R   0.666640 0.902530 0.227020 -0.522569
O48   O     O_R   0.333360 0.097470 0.772980 -0.522569
O49   O     O_R   0.500000 0.069230 0.662510 -0.527637
O50   O     O_R   0.069230 0.500000 0.337490 -0.527631
O51   O     O_R   0.930770 0.500000 0.662510 -0.527631
O52   O     O_R   0.500000 0.069230 0.337490 -0.527637
Zn1   Zn    Zn3+2 0.401050 0.000000 0.217300 0.979312
Zn2   Zn    Zn3+2 0.098950 0.500000 0.282700 0.977839
Zn3   Zn    Zn3+2 0.500000 0.901050 0.717300 0.977827
Zn4   Zn    Zn3+2 0.500000 0.098950 0.282700 0.977827
Zn5   Zn    Zn3+2 0.098950 0.500000 0.717300 0.977839
Zn6   Zn    Zn3+2 0.901050 0.500000 0.282700 0.977839
Zn7   Zn    Zn3+2 0.500000 0.098950 0.717300 0.977827
Zn8   Zn    Zn3+2 0.500000 0.901050 0.282700 0.977827
Zn9   Zn    Zn3+2 0.598950 1.000000 0.782700 0.979311
Zn10  Zn    Zn3+2 0.000000 0.401050 0.217300 0.979372
Zn11  Zn    Zn3+2 0.000000 0.598950 0.782700 0.979372
Zn12  Zn    Zn3+2 0.598950 0.000000 0.217300 0.979312
Zn13  Zn    Zn3+2 0.401050 1.000000 0.782700 0.979312
Zn14  Zn    Zn3+2 1.000000 0.598950 0.217300 0.979372
Zn15  Zn    Zn3+2 0.000000 0.401050 0.782700 0.979372
Zn16  Zn    Zn3+2 0.901050 0.500000 0.717300 0.977839

loop_
_geom_bond_atom_site_label_1
_geom_bond_atom_site_label_2
_ccdc_geom_bond_type
O12   Zn13  S    
C53   C110  S    
C96   C105  A    
C89   C115  A    
C101  C102  A    
O7    Zn9   S    
C27   O19   A    
C89   C102  A    
C36   O39   A    
C84   C102  A    
C16   N15   T    
C22   C71   S    
C30   C45   S    
C105  C106  A    
O46   Zn15  S    
C36   O28   A    
O5    Zn15  S    
C91   C104  A    
C85   C112  A    
C109  H1    S    
C28   C56   S    
O37   Zn14  S    
C46   C49   T    
C60   C78   A    
C13   O40   A    
O33   Zn13  S    
O51   Zn16  S    
C86   C113  A    
C65   C79   A    
C68   C81   A    
C6    C98   A    
C6    H7    S    
C2    O43   A    
C112  C117  A    
C93   C106  A    
C33   C78   S    
C88   O7    A    
C37   O36   A    
C116  H14   S    
C63   C76   A    
O12   Zn7   S    
C14   C62   S    
O27   Zn7   S    
O30   Zn6   S    
O29   Zn5   S    
C9    C58   S    
O39   Zn1   S    
O23   Zn6   S    
O40   Zn10  S    
C18   N2    T    
O21   Zn16  S    
C92   C118  A    
C71   C80   A    
C87   C114  A    
C69   C82   A    
C32   O31   A    
O28   Zn8   S    
O8    Zn1   S    
C4    C96   A    
C94   C120  A    
C111  H9    S    
C65   C96   A    
C37   O29   A    
C39   C56   T    
C114  H12   S    
C5    H6    S    
C110  O42   A    
C107  C108  A    
C91   C117  A    
C4    C119  A    
C34   O32   A    
C90   C116  A    
C7    H8    S    
C37   C47   S    
C113  H11   S    
C72   C81   A    
C85   C103  A    
C120  H3    S    
C77   O6    A    
C113  C116  A    
C55   C75   S    
C3    C6    A    
O9    Zn11  S    
O17   Zn5   S    
C13   C51   S    
C99   O8    A    
C63   C85   A    
C44   O50   A    
O48   Zn13  S    
C44   O3    A    
C23   N7    T    
C34   C41   S    
O14   Zn4   S    
C23   C72   S    
C64   C86   A    
C79   C88   S    
C28   O44   A    
C28   O20   A    
C58   C75   A    
O41   Zn11  S    
C31   O24   A    
C36   C39   S    
C35   O27   A    
C55   O4    A    
C1    O45   A    
C94   C107  A    
C100  C108  A    
C84   C111  A    
O43   Zn9   S    
C7    C100  A    
C67   C80   A    
O47   Zn12  S    
C30   O33   A    
O16   Zn6   S    
C61   C83   A    
C26   C49   S    
C67   C97   A    
C33   O2    A    
C13   O16   A    
C115  H13   S    
C18   C67   S    
O34   Zn16  S    
C11   N11   T    
C98   C107  A    
C57   C87   A    
C66   O9    A    
C8    N1    T    
C59   C90   A    
O15   Zn3   S    
C57   C74   A    
O23   Zn10  S    
C24   O17   A    
C8    C57   S    
O1    Zn4   S    
O19   Zn7   S    
O13   Zn12  S    
O32   Zn10  S    
C47   C48   T    
C87   C101  A    
O6    Zn14  S    
C38   O37   A    
C55   O51   A    
O34   Zn11  S    
C22   N6    T    
O31   Zn11  S    
C83   C109  A    
C31   C43   S    
O18   Zn8   S    
C19   C68   S    
C44   C74   S    
C26   O47   A    
C24   C50   S    
C41   C53   T    
C2    C52   S    
C95   C108  A    
C10   N10   T    
O1    Zn1   S    
C97   C106  A    
C4    H5    S    
C59   C76   A    
C5    C97   A    
C35   O38   A    
C40   C54   T    
C80   C99   S    
O22   Zn3   S    
C61   C74   A    
O23   Zn14  S    
C32   O25   A    
O36   Zn15  S    
C17   N16   T    
C73   C95   A    
O25   Zn16  S    
C11   C60   S    
C117  H15   S    
O11   Zn13  S    
C73   C82   A    
C118  H16   S    
C3    H4    S    
O10   Zn10  S    
C60   C91   A    
C77   O10   A    
O42   Zn1   S    
C62   C84   A    
O35   Zn12  S    
C32   C42   S    
C83   C101  A    
O4    Zn5   S    
C1    C76   S    
C64   C78   A    
C7    C120  A    
O3    Zn6   S    
C70   C92   A    
C27   O48   A    
O2    Zn3   S    
C29   O21   A    
O12   Zn3   S    
C9    N9    T    
C86   C104  A    
O1    Zn8   S    
O44   Zn14  S    
O52   Zn4   S    
C71   C93   A    
O12   Zn9   S    
C88   O11   A    
C16   C64   S    
O34   Zn15  S    
C5    C118  A    
C17   C65   S    
C38   O30   A    
C21   C70   S    
C29   C54   S    
O24   Zn4   S    
O20   Zn2   S    
C10   C59   S    
C72   C94   A    
O1    Zn12  S    
O45   Zn8   S    
C12   N12   T    
C66   C81   S    
C45   C50   T    
C12   C61   S    
C110  O14   A    
C43   C51   T    
C20   N4    T    
C70   C79   A    
C77   C82   S    
O26   Zn2   S    
C14   N13   T    
C33   O49   A    
C119  H2    S    
C30   O22   A    
C35   C40   S    
C111  C114  A    
C25   C73   S    
C66   O5    A    
C27   C48   S    
C20   C69   S    
C58   C89   A    
C68   C98   A    
C90   C103  A    
C38   C46   S    
C34   O26   A    
O38   Zn9   S    
C109  C115  A    
C21   N5    T    
C25   N8    T    
C69   C100  A    
C92   C105  A    
C24   O41   A    
C26   O18   A    
C19   N3    T    
C29   O46   A    
O50   Zn2   S    
O34   Zn5   S    
C31   O35   A    
C103  C104  A    
C15   C63   S    
C3    C95   A    
C93   C119  A    
O23   Zn2   S    
C112  H10   S    
C1    O52   A    
C2    O15   A    
O49   Zn7   S    
C15   N14   T    
C62   C75   A    
C42   C52   T    
C99   O13   A    
