data_mof_unit_21848.cif
_audit_creation_date              2013-03-05T15:58:35-0500
_audit_creation_method            fapswitch 2.2
_symmetry_space_group_name_H-M    P1
_symmetry_Int_Tables_number       1
_space_group_crystal_system       triclinic
_cell_length_a                    15.079244
_cell_length_b                    13.711156
_cell_length_c                    10.681575
_cell_angle_alpha                 90.392217
_cell_angle_beta                  89.895496
_cell_angle_gamma                 89.999162
_cell_volume                      2208.40151646

loop_
_atom_site_label
_atom_site_type_symbol
_atom_site_description
_atom_site_fract_x
_atom_site_fract_y
_atom_site_fract_z
_atom_type_partial_charge
O1    O     O_R   0.370260 0.582280 0.500030 -0.585732
O2    O     O_R   0.629740 0.417720 0.499970 -0.585732
O3    O     O_R   0.629740 0.582280 0.499970 -0.599767
O4    O     O_R   0.370260 0.417720 0.500030 -0.599767
C1    C     C_R   0.328504 0.500002 0.500260 0.842339
C2    C     C_R   0.671496 0.499998 0.499740 0.842339
O5    O     O_R   0.499980 0.582260 0.316850 -0.567719
O6    O     O_R   0.500020 0.417740 0.683150 -0.567719
O7    O     O_R   0.500020 0.582260 0.683150 -0.559499
O8    O     O_R   0.499980 0.417740 0.316850 -0.559499
C3    C     C_R   0.498700 0.499568 0.259644 0.915076
C4    C     C_R   0.501299 0.500432 0.740356 0.915076
Cu1   Cu    Cu3+1 0.500000 0.597420 0.500000 1.016179
Cu2   Cu    Cu3+1 0.500000 0.402580 0.500000 1.016179
C5    C     C_3   0.427050 0.544485 0.039864 0.296157
C6    C     C_3   0.572950 0.455515 0.960136 0.296157
C7    C     C_3   0.500230 0.591658 0.961688 0.305822
C8    C     C_3   0.499770 0.408342 0.038312 0.305822
C9    C     C_3   0.427172 0.453041 0.954236 -0.370623
C10   C     C_3   0.572828 0.546958 0.045764 -0.370623
H1    H     H_    0.368022 0.414663 0.916552 0.205841
H2    H     H_    0.631978 0.585337 0.083448 0.205841
C11   C     C_3   0.501968 0.501226 0.876105 -0.271076
C12   C     C_3   0.498032 0.498774 0.123895 -0.271076
C13   C     C_R   0.814711 0.588362 0.490075 -0.214913
C14   C     C_R   0.185288 0.411638 0.509925 -0.214913
C15   C     C_R   0.768336 0.499986 0.499580 -0.057115
C16   C     C_R   0.231664 0.500014 0.500420 -0.057116
C17   C     C_R   0.814682 0.411601 0.509018 -0.169847
C18   C     C_R   0.185318 0.588399 0.490982 -0.169847
C19   C     C_R   0.907064 0.411003 0.509347 0.097764
C20   C     C_R   0.092936 0.588997 0.490653 0.097764
C21   C     C_R   0.953514 0.499994 0.499866 0.068094
C22   C     C_R   0.046486 0.500006 0.500134 0.068094
C23   C     C_R   0.907097 0.588973 0.490111 0.104983
C24   C     C_R   0.092903 0.411027 0.509889 0.104983
C25   C     C_R   0.953738 0.322966 0.519109 -0.167398
C26   C     C_R   0.046262 0.677033 0.480891 -0.167398
C27   C     C_R   0.046196 0.322980 0.519414 -0.173433
C28   C     C_R   0.953804 0.677020 0.480586 -0.173433
H3    H     H_    0.779043 0.656752 0.482359 0.161455
H4    H     H_    0.220957 0.343248 0.517641 0.161455
H5    H     H_    0.778989 0.343203 0.516539 0.167047
H6    H     H_    0.221011 0.656797 0.483461 0.167047
H7    H     H_    0.918732 0.254194 0.526514 0.157369
H8    H     H_    0.081268 0.745806 0.473486 0.157369
H9    H     H_    0.081176 0.254218 0.527059 0.156305
H10   H     H_    0.918824 0.745782 0.472941 0.156305
C29   C     C_R   0.443955 0.793268 0.577695 0.095016
C30   C     C_R   0.556045 0.206731 0.422305 0.095016
C31   C     C_R   0.556017 0.792452 0.422301 0.060383
C32   C     C_R   0.443983 0.207547 0.577699 0.060383
N1    N     N_R   0.500000 0.743810 0.500000 -0.195987
N2    N     N_R   0.500000 0.256190 0.500000 -0.195987
C33   C     C_R   0.557918 0.895784 0.419781 -0.046608
C34   C     C_R   0.442082 0.104216 0.580219 -0.046608
C35   C     C_R   0.441990 0.896635 0.580133 -0.047459
C36   C     C_R   0.558010 0.103365 0.419866 -0.047459
C37   C     C_R   0.499993 0.948187 0.500006 0.072057
C38   C     C_R   0.500007 0.051813 0.499994 0.072057
C39   C     C_R   0.615970 0.947491 0.339659 -0.062590
C40   C     C_R   0.384030 0.052509 0.660340 -0.062590
C41   C     C_R   0.383817 0.949221 0.660067 -0.070200
C42   C     C_R   0.616183 0.050779 0.339933 -0.070200
H11   H     H_    0.400861 0.751238 0.637741 0.146403
H12   H     H_    0.599139 0.248762 0.362259 0.146403
H13   H     H_    0.599220 0.749790 0.362407 0.133798
H14   H     H_    0.400780 0.250209 0.637593 0.133798
N3    N     N_R   0.345833 0.592959 0.080808 0.169300
O9    O     O_R   0.289022 0.622856 0.998057 -0.299848
O10   O     O_R   0.326843 0.601026 0.199193 -0.349588
N4    N     N_R   0.654167 0.407041 0.919192 0.169300
O11   O     O_R   0.710978 0.377144 0.001943 -0.299848
O12   O     O_R   0.673157 0.398974 0.800807 -0.349588
N5    N     N_R   0.502568 0.692538 0.919399 0.146712
O13   O     O_R   0.439404 0.752789 0.949690 -0.301327
O14   O     O_R   0.571470 0.724551 0.858910 -0.329981
N6    N     N_R   0.497432 0.307462 0.080601 0.146712
O15   O     O_R   0.560596 0.247211 0.050310 -0.301327
O16   O     O_R   0.428530 0.275448 0.141090 -0.329981
C43   C     C_1   0.675786 0.894966 0.256565 0.251218
N7    N     N_1   0.723435 0.853057 0.190328 -0.234428
C44   C     C_1   0.324214 0.105034 0.743435 0.251218
N8    N     N_1   0.276565 0.146943 0.809671 -0.234428
C45   C     C_1   0.323065 0.897663 0.741874 0.286680
N9    N     N_1   0.274555 0.856588 0.806991 -0.180859
C46   C     C_1   0.676935 0.102337 0.258126 0.286680
N10   N     N_1   0.725445 0.143412 0.193008 -0.180859

loop_
_geom_bond_atom_site_label_1
_geom_bond_atom_site_label_2
_geom_bond_distance
_ccdc_geom_bond_type
C18   C20   1.393093 A    
C40   C44   1.452011 S    
C33   C37   1.415042 A    
C15   C17   1.403242 A    
C6    N4    1.458394 S    
C46   N10   1.157398 T    
O3    C2    1.291974 A    
C43   N7    1.157403 T    
C45   N9    1.157398 T    
O5    C3    1.284456 A    
C4    C11   1.450034 S    
C30   N2    1.361084 A    
C29   H11   1.081347 S    
C8    C12   1.535643 S    
C9    H1    1.110360 S    
N6    O16   1.300428 A    
C35   C37   1.415185 A    
C36   C38   1.415185 A    
C3    C12   1.450034 S    
C7    C10   1.546506 S    
C29   C35   1.417641 A    
C28   H10   1.083968 S    
C8    C9    1.546506 S    
N3    O10   1.300018 A    
O7    Cu1   1.968756 S    
C5    C9    1.546895 S    
C44   N8    1.157403 T    
C19   C21   1.411077 A    
C20   C26   1.401861 A    
C42   C46   1.451931 S    
C22   C24   1.411086 A    
C32   H14   1.081302 S    
O6    C4    1.284456 A    
C34   C40   1.416662 A    
C37   C38   1.420829 A    
Cu1   Cu2   2.671480 S    
C17   H5    1.084667 S    
C17   C19   1.393093 A    
C18   H6    1.084667 S    
O2    C2    1.291966 A    
C32   N2    1.360947 A    
C35   C41   1.416745 A    
Cu1   N1    2.007176 S    
C36   C42   1.416745 A    
C5    N3    1.458394 S    
C30   C36   1.417641 A    
C10   C12   1.552165 S    
N4    O12   1.300018 A    
O8    Cu2   1.968757 S    
C13   H3    1.084708 S    
N6    O15   1.299816 A    
N4    O11   1.300356 A    
C19   C25   1.401861 A    
C31   N1    1.360946 A    
C20   C22   1.411077 A    
C39   C42   1.416186 A    
C9    C11   1.552165 S    
N5    O13   1.299816 A    
C40   C41   1.416186 A    
C1    C16   1.460270 S    
C30   H12   1.081346 S    
C2    C15   1.460270 S    
C7    C11   1.535643 S    
C6    C10   1.546895 S    
C21   C22   1.401951 A    
C31   H13   1.081302 S    
N5    O14   1.300428 A    
C13   C23   1.393125 A    
C14   C24   1.393125 A    
C8    N6    1.458413 S    
Cu2   N2    2.007176 S    
C10   H2    1.110360 S    
C6    C11   1.534706 S    
O1    C1    1.291967 A    
O1    Cu1   1.967366 S    
C25   H7    1.083944 S    
C14   H4    1.084708 S    
C27   H9    1.083968 S    
C5    C7    1.528850 S    
C5    C12   1.534706 S    
O6    Cu2   1.965926 S    
C24   C27   1.401870 A    
O4    C1    1.291975 A    
O3    Cu1   1.967360 S    
C13   C15   1.403247 A    
C14   C16   1.403247 A    
C16   C18   1.403242 A    
C23   C28   1.401870 A    
C25   C27   1.394208 A    
C39   C43   1.452011 S    
C26   C28   1.394208 A    
C29   N1    1.361084 A    
C33   C39   1.416662 A    
C21   C23   1.411086 A    
C31   C33   1.417528 A    
O4    Cu2   1.967360 S    
N3    O9    1.300356 A    
O2    Cu2   1.967366 S    
O7    C4    1.281387 A    
C26   H8    1.083944 S    
O8    C3    1.281387 A    
C34   C38   1.415042 A    
O5    Cu1   1.965927 S    
C6    C8    1.528850 S    
C7    N5    1.458413 S    
C41   C45   1.451931 S    
C32   C34   1.417528 A    
