data_mof_unit_35792.cif
_audit_creation_date              2012-12-10T19:09:36-0500
_audit_creation_method            fapswitch 2.2
_symmetry_space_group_name_H-M    P1
_symmetry_Int_Tables_number       1
_space_group_crystal_system       triclinic
_cell_length_a                    9.564341
_cell_length_b                    10.832339
_cell_length_c                    17.034348
_cell_angle_alpha                 88.766882
_cell_angle_beta                  94.126876
_cell_angle_gamma                 89.356601
_cell_volume                      1759.70161568

loop_
_atom_site_label
_atom_site_type_symbol
_atom_type_description
_atom_site_fract_x
_atom_site_fract_y
_atom_site_fract_z
_atom_type_partial_charge
C1    C     C_R   0.500482 0.262406 0.498486 0.793320
C2    C     C_R   0.630021 0.566032 0.778891 -0.250324
C3    C     C_R   0.583549 0.436785 0.143907 0.444517
C4    C     C_R   0.590381 0.449899 0.225407 -0.226913
C5    C     C_R   0.456923 0.467718 0.099238 0.255646
C6    C     C_R   0.472872 0.489504 0.263183 -0.134794
C7    C     C_R   0.346403 0.514787 0.218804 -0.189804
C8    C     C_R   0.338743 0.503514 0.137363 -0.205259
C9    C     C_R   0.625647 0.061513 0.505146 0.162673
C10   C     C_R   0.501253 0.129473 0.490886 -0.109754
C11   C     C_R   0.377904 0.067171 0.466594 -0.194529
C12   C     C_R   0.517319 0.499191 0.650821 0.791134
C13   C     C_R   0.377158 0.938268 0.466797 -0.200397
C14   C     C_R   0.499087 0.871052 0.492257 -0.088261
C15   C     C_R   0.623998 0.934324 0.506864 0.183411
C16   C     C_3   0.727075 0.925396 0.576973 -0.501654
C17   C     C_3   0.731837 0.065044 0.573643 -0.479747
C18   C     C_R   0.065405 0.559862 0.441470 0.197147
C19   C     C_R   0.083266 0.431592 0.553389 -0.121418
C20   C     C_R   0.934681 0.433660 0.555152 0.317539
C21   C     C_R   0.917762 0.558496 0.440361 0.166370
C22   C     C_3   0.909474 0.693606 0.419090 0.249006
C23   C     C_R   0.499294 0.737642 0.498783 0.830090
C24   C     C_3   0.068428 0.693982 0.421915 -0.544391
C25   C     C_R   0.482390 0.499049 0.349087 0.874567
C26   C     C_R   0.524701 0.500894 0.736740 -0.016772
C27   C     C_R   0.420150 0.442435 0.776881 -0.232825
C28   C     C_R   0.421360 0.447906 0.858335 -0.150969
C29   C     C_R   0.527542 0.513072 0.901114 0.399948
C30   C     C_R   0.631372 0.571681 0.860654 -0.163131
Cu1   Cu    Cu3+1 0.640670 0.499980 0.500000 1.000427
Cu2   Cu    Cu3+1 0.359330 0.500020 0.500000 0.955115
H1    H     H_    0.686993 0.426368 0.259773 0.224115
H2    H     H_    0.280720 0.892049 0.449653 0.165133
H3    H     H_    0.680211 0.887972 0.630307 0.194870
H4    H     H_    0.828085 0.881621 0.564168 0.196572
H5    H     H_    0.691606 0.109460 0.625954 0.200775
H6    H     H_    0.834014 0.098941 0.555497 0.198082
H7    H     H_    0.146773 0.377864 0.597093 0.146366
H8    H     H_    0.866185 0.750690 0.464894 0.095760
H9    H     H_    0.113852 0.712317 0.364602 0.237706
H10   H     H_    0.114596 0.747725 0.471883 0.171181
H11   H     H_    0.713063 0.622552 0.892686 0.170262
H12   H     H_    0.708566 0.615358 0.748537 0.149783
H13   H     H_    0.253913 0.544084 0.246900 0.198488
H14   H     H_    0.338937 0.401586 0.887354 0.164622
H15   H     H_    0.240870 0.524624 0.103497 0.196920
H16   H     H_    0.337324 0.392357 0.745153 0.148113
H17   H     H_    0.281263 0.117442 0.450281 0.176974
N1    N     N_2   0.534476 0.521326 0.984317 -0.172950
N2    N     N_2   0.443654 0.460565 0.016447 -0.216991
N3    N     N_R   0.147870 0.500930 0.499500 -0.195696
N4    N     N_R   0.851960 0.500890 0.499500 -0.234255
O1    O     O_R   0.618810 0.319640 0.500000 -0.564579
O2    O     O_R   0.381230 0.319680 0.499990 -0.588279
O3    O     O_R   0.631790 0.498830 0.613930 -0.549657
O4    O     O_R   0.394210 0.498870 0.613920 -0.589940
O5    O     O_R   0.618770 0.680320 0.500010 -0.570642
O6    O     O_R   0.381190 0.680360 0.500000 -0.589978
O7    O     O_R   0.605790 0.501130 0.386080 -0.539748
O8    O     O_R   0.368210 0.501170 0.386070 -0.582080
N5    N     N_2   0.872779 0.368066 0.616355 -0.375394
H18   H     H_    0.892406 0.274759 0.614586 0.223725
C31   C     C_3   0.909034 0.413552 0.694418 -0.670669
H19   H     H_    0.019048 0.388055 0.714140 0.195740
H20   H     H_    0.838793 0.371733 0.736491 0.240631
H21   H     H_    0.896813 0.515566 0.695042 0.231517
S1    S     S_3+6 0.830452 0.726454 0.322169 0.028491
O9    O     O_2   0.888604 0.844915 0.291441 -0.252685
O10   O     O_2   0.861966 0.623567 0.268030 -0.275241
O11   O     O_3   0.656218 0.743200 0.325862 -0.537622
H22   H     H_    0.619280 0.753660 0.270273 0.373193
S2    S     S_3+6 0.732363 0.376729 0.100792 0.043287
O12   O     O_2   0.813797 0.482206 0.069017 -0.272969
O13   O     O_2   0.824688 0.305278 0.161275 -0.261587
O14   O     O_3   0.681660 0.282860 0.026949 -0.514089
H23   H     H_    0.767285 0.267839 0.998951 0.372779

loop_
_geom_bond_atom_site_label_1
_geom_bond_atom_site_label_2
_ccdc_geom_bond_type
C27   H16   S    
Cu1   O7    S    
C23   O5    A    
C18   C21   A    
C24   H10   S    
S2    O12   D    
C19   C20   A    
C18   N3    A    
C7    C8    A    
C23   O6    A    
C28   H14   S    
C26   C27   A    
C29   C30   A    
C18   C24   S    
C7    H13   S    
Cu1   O5    S    
C28   C29   A    
Cu2   O8    S    
C16   H3    S    
C6    C25   S    
C15   C16   S    
Cu2   N3    S    
N5    C31   S    
C19   N3    A    
C2    H12   S    
C16   C17   S    
C25   O7    A    
Cu1   O3    S    
C9    C10   A    
Cu2   O2    S    
C13   C14   A    
C24   H9    S    
S2    O13   D    
Cu2   O4    S    
C29   N1    S    
C31   H21   S    
O14   H23   S    
C4    C6    A    
S1    O9    D    
C17   H5    S    
C12   C26   S    
C31   H20   S    
C14   C23   S    
C1    O1    A    
N5    H18   S    
C11   H17   S    
Cu1   Cu2   S    
C22   H8    S    
N1    N2    D    
C2    C26   A    
C25   O8    A    
Cu1   N4    S    
C22   S1    S    
C12   O3    A    
C19   H7    S    
C12   O4    A    
C9    C17   S    
S2    O14   S    
C22   C24   S    
C30   H11   S    
C3    C4    A    
C4    H1    S    
C1    C10   S    
C20   N4    A    
C3    C5    A    
C5    C8    A    
C6    C7    A    
C2    C30   A    
C31   H19   S    
C9    C15   A    
C8    H15   S    
C13   H2    S    
C16   H4    S    
C21   N4    A    
C11   C13   A    
S1    O11   S    
C1    O2    A    
C17   H6    S    
Cu1   O1    S    
C20   N5    S    
C3    S2    S    
C10   C11   A    
O11   H22   S    
S1    O10   D    
C27   C28   A    
C14   C15   A    
C5    N2    S    
Cu2   O6    S    
C21   C22   S    
