data_mof_unit_66345.cif
_audit_creation_date              2012-12-10T16:51:43-0500
_audit_creation_method            fapswitch 2.2
_symmetry_space_group_name_H-M    P1
_symmetry_Int_Tables_number       1
_space_group_crystal_system       triclinic
_cell_length_a                    30.106567
_cell_length_b                    30.968087
_cell_length_c                    21.56497
_cell_angle_alpha                 89.999651
_cell_angle_beta                  134.960982
_cell_angle_gamma                 90.000492
_cell_volume                      14226.727902

loop_
_atom_site_label
_atom_site_type_symbol
_atom_type_description
_atom_site_fract_x
_atom_site_fract_y
_atom_site_fract_z
_atom_type_partial_charge
C1    C     C_R   0.688437 0.809250 0.880193 0.934626
C2    C     C_R   0.311563 0.809250 0.119806 0.934627
C3    C     C_R   0.188437 0.309250 0.880193 0.934627
C4    C     C_R   0.811563 0.309250 0.119806 0.934625
C5    C     C_R   0.453336 0.788343 0.999254 0.154739
C6    C     C_R   0.546667 0.788343 0.000752 0.154738
C7    C     C_R   0.953335 0.288343 0.999251 0.154739
C8    C     C_R   0.046666 0.288343 0.000749 0.154739
C9    C     C_R   0.478074 0.669276 0.002960 0.138398
C10   C     C_R   0.521909 0.669276 0.997011 0.138401
C11   C     C_R   0.978078 0.169276 0.002968 0.138400
C12   C     C_R   0.021914 0.169276 0.997019 0.138398
C13   C     C_R   0.523449 0.827473 0.000771 -0.218771
C14   C     C_R   0.476560 0.827473 0.999245 -0.218769
C15   C     C_R   0.023446 0.327473 0.000765 -0.218771
C16   C     C_R   0.976557 0.327473 0.999239 -0.218771
C17   C     C_2   0.596183 0.909571 0.752478 -0.156564
C18   C     C_2   0.403816 0.909571 0.247522 -0.156549
C19   C     C_2   0.096183 0.409571 0.752478 -0.156562
C20   C     C_2   0.903816 0.409572 0.247521 -0.156565
C21   C     C_2   0.598954 0.911873 0.693388 -0.330361
C22   C     C_2   0.401045 0.911873 0.306612 -0.330358
C23   C     C_2   0.098954 0.411873 0.693388 -0.330360
C24   C     C_2   0.901045 0.411873 0.306612 -0.330360
C25   C     C_2   0.636130 0.878749 0.824698 -0.156181
C26   C     C_2   0.363869 0.878750 0.175302 -0.156174
C27   C     C_2   0.136130 0.378749 0.824698 -0.156180
C28   C     C_2   0.863869 0.378750 0.175301 -0.156181
C29   C     C_2   0.649234 0.840685 0.811430 -0.335423
C30   C     C_2   0.350765 0.840685 0.188570 -0.335428
C31   C     C_2   0.149234 0.340685 0.811430 -0.335425
C32   C     C_2   0.850765 0.340685 0.188570 -0.335423
C33   C     C_R   0.132856 0.749229 0.079542 -0.254980
C34   C     C_R   0.867144 0.749229 0.920459 -0.254981
C35   C     C_R   0.632856 0.249227 0.079542 -0.254982
C36   C     C_R   0.367144 0.249231 0.920459 -0.254973
C37   C     C_R   0.115204 0.750503 0.999766 -0.060318
C38   C     C_R   0.884796 0.750504 0.000235 -0.060319
C39   C     C_R   0.615204 0.250503 0.999766 -0.060321
C40   C     C_R   0.384796 0.250504 0.000235 -0.060314
C41   C     C_R   0.052103 0.751954 0.920068 -0.263273
C42   C     C_R   0.947897 0.751956 0.079933 -0.263275
C43   C     C_R   0.552103 0.251956 0.920068 -0.263275
C44   C     C_R   0.447897 0.251953 0.079933 -0.263270
C45   C     C_R   0.662992 0.749865 0.999717 0.892360
C46   C     C_R   0.337008 0.749865 0.000283 0.892357
C47   C     C_R   0.162991 0.249865 0.999716 0.892358
C48   C     C_R   0.837008 0.249865 0.000283 0.892360
C49   C     C_R   0.005638 0.751364 0.919485 0.123465
C50   C     C_R   0.994362 0.751365 0.080515 0.123464
C51   C     C_R   0.505638 0.251365 0.919486 0.123464
C52   C     C_R   0.494363 0.251362 0.080516 0.123467
C53   C     C_R   0.023184 0.750742 0.999950 0.057311
C54   C     C_R   0.976816 0.750742 0.000051 0.057312
C55   C     C_R   0.523184 0.250741 0.999950 0.057312
C56   C     C_R   0.476817 0.250741 0.000051 0.057310
C57   C     C_R   0.087096 0.750047 0.080314 0.120386
C58   C     C_R   0.912904 0.750047 0.919686 0.120387
C59   C     C_R   0.587096 0.250045 0.080315 0.120386
C60   C     C_R   0.412904 0.250049 0.919687 0.120384
C61   C     C_R   0.942108 0.751197 0.840063 -0.217060
C62   C     C_R   0.057893 0.751198 0.159938 -0.217061
C63   C     C_R   0.442108 0.251201 0.840063 -0.217060
C64   C     C_R   0.557893 0.251194 0.159938 -0.217060
C65   C     C_R   0.895904 0.750228 0.840163 -0.217897
C66   C     C_R   0.104096 0.750229 0.159838 -0.217896
C67   C     C_R   0.395905 0.250232 0.840163 -0.217896
C68   C     C_R   0.604096 0.250224 0.159838 -0.217899
C69   C     C_2   0.910820 0.592610 0.253511 -0.188743
C70   C     C_2   0.089174 0.592612 0.746482 -0.188732
C71   C     C_2   0.410861 0.092630 0.253551 -0.188688
C72   C     C_2   0.589180 0.092609 0.746488 -0.188740
C73   C     C_2   0.900513 0.586983 0.304042 -0.386407
C74   C     C_2   0.099488 0.586982 0.695960 -0.386414
C75   C     C_2   0.400512 0.086977 0.304029 -0.386455
C76   C     C_2   0.599488 0.086983 0.695959 -0.386408
C77   C     C_2   0.871482 0.622620 0.178648 0.271192
C78   C     C_2   0.128510 0.622623 0.821345 0.271200
C79   C     C_2   0.371535 0.122642 0.178687 0.271248
C80   C     C_2   0.628518 0.122620 0.821352 0.271193
C81   C     C_2   0.852535 0.659116 0.188364 -0.424673
C82   C     C_2   0.147467 0.659116 0.811636 -0.424667
C83   C     C_2   0.352527 0.159117 0.188364 -0.424649
C84   C     C_2   0.647465 0.159116 0.811636 -0.424671
C85   C     C_R   0.060957 0.558311 0.621416 0.949337
C86   C     C_R   0.939043 0.558312 0.378584 0.949336
C87   C     C_R   0.560957 0.058312 0.621416 0.949343
C88   C     C_R   0.439042 0.058310 0.378581 0.949344
C89   C     C_R   0.812115 0.690713 0.119721 0.926601
C90   C     C_R   0.187885 0.690713 0.880279 0.926586
C91   C     C_R   0.312113 0.190714 0.119721 0.926516
C92   C     C_R   0.687885 0.190713 0.880279 0.926599
C93   C     C_R   0.560914 0.941621 0.621127 0.929981
C94   C     C_R   0.439086 0.941621 0.378873 0.929982
C95   C     C_R   0.060914 0.441621 0.621127 0.929982
C96   C     C_R   0.939086 0.441621 0.378873 0.929980
C97   C     C_R   0.836978 0.750114 0.000181 0.881622
C98   C     C_R   0.163022 0.750114 0.999819 0.881619
C99   C     C_R   0.336979 0.250114 0.000181 0.881603
C100  C     C_R   0.663022 0.250114 0.999819 0.881622
C101  C     C_R   0.406671 0.788441 0.998081 -0.255323
C102  C     C_R   0.593333 0.788441 0.001926 -0.255324
C103  C     C_R   0.906670 0.288441 0.998078 -0.255323
C104  C     C_R   0.093331 0.288441 0.001923 -0.255323
C105  C     C_R   0.385018 0.749472 0.000749 -0.078696
C106  C     C_R   0.614980 0.749472 0.999249 -0.078701
C107  C     C_R   0.885018 0.249472 0.000749 -0.078697
C108  C     C_R   0.114980 0.249472 0.999249 -0.078701
C109  C     C_R   0.408902 0.710070 0.003742 -0.221393
C110  C     C_R   0.591090 0.710070 0.996243 -0.221394
C111  C     C_R   0.908904 0.210070 0.003745 -0.221394
C112  C     C_R   0.091091 0.210070 0.996247 -0.221395
C113  C     C_R   0.454904 0.708954 0.002964 0.044025
C114  C     C_R   0.545086 0.708954 0.997019 0.044026
C115  C     C_R   0.954907 0.208954 0.002969 0.044026
C116  C     C_R   0.045088 0.208954 0.997023 0.044025
C117  C     C_R   0.477081 0.748514 0.000546 0.006572
C118  C     C_R   0.522916 0.748514 0.999448 0.006573
C119  C     C_R   0.977081 0.248514 0.000547 0.006572
C120  C     C_R   0.022917 0.248514 0.999449 0.006573
H1    H     H_    0.387847 0.818753 0.996603 0.143788
H2    H     H_    0.612162 0.818752 0.003413 0.143792
H3    H     H_    0.887844 0.318753 0.996597 0.143788
H4    H     H_    0.112159 0.318753 0.003407 0.143790
H5    H     H_    0.039411 0.752568 0.858827 0.147713
H6    H     H_    0.960589 0.752569 0.141173 0.147714
H7    H     H_    0.539411 0.252571 0.858827 0.147715
H8    H     H_    0.460589 0.252565 0.141174 0.147712
H9    H     H_    0.928227 0.751543 0.778027 0.148240
H10   H     H_    0.071773 0.751544 0.221974 0.148240
H11   H     H_    0.428227 0.251547 0.778027 0.148240
H12   H     H_    0.571773 0.251537 0.221974 0.148240
H13   H     H_    0.846959 0.749824 0.778198 0.147983
H14   H     H_    0.153041 0.749825 0.221803 0.147983
H15   H     H_    0.346959 0.249829 0.778198 0.147983
H16   H     H_    0.653042 0.249819 0.221803 0.147983
H17   H     H_    0.947756 0.574757 0.266561 0.176935
H18   H     H_    0.052232 0.574764 0.733424 0.176940
H19   H     H_    0.447833 0.074801 0.266654 0.176968
H20   H     H_    0.552244 0.074757 0.733438 0.176935
H21   H     H_    0.860524 0.601915 0.287402 0.162655
H22   H     H_    0.139482 0.601911 0.712607 0.162655
H23   H     H_    0.360496 0.101888 0.287347 0.162660
H24   H     H_    0.639477 0.101915 0.712599 0.162654
H25   H     H_    0.870729 0.667690 0.251780 0.146147
H26   H     H_    0.129281 0.667688 0.748224 0.146145
H27   H     H_    0.370672 0.167677 0.251757 0.146132
H28   H     H_    0.629271 0.167690 0.748220 0.146148
H29   H     H_    0.389993 0.680466 0.004294 0.183811
H30   H     H_    0.609994 0.680466 0.995684 0.183814
H31   H     H_    0.889997 0.180466 0.004300 0.183812
H32   H     H_    0.109996 0.180466 0.995689 0.183813
H33   H     H_    0.541303 0.858046 0.001427 0.143774
H34   H     H_    0.458712 0.858046 0.998599 0.143775
H35   H     H_    0.041299 0.358046 0.001418 0.143773
H36   H     H_    0.958707 0.358046 0.998590 0.143773
H37   H     H_    0.566569 0.931340 0.749821 0.163579
H38   H     H_    0.433431 0.931340 0.250180 0.163580
H39   H     H_    0.066569 0.431339 0.749820 0.163579
H40   H     H_    0.933430 0.431341 0.250179 0.163579
H41   H     H_    0.633782 0.893639 0.701831 0.157700
H42   H     H_    0.366216 0.893639 0.298168 0.157699
H43   H     H_    0.133782 0.393639 0.701831 0.157700
H44   H     H_    0.866217 0.393639 0.298169 0.157699
H45   H     H_    0.652802 0.886649 0.887389 0.163020
H46   H     H_    0.347198 0.886650 0.112612 0.163023
H47   H     H_    0.152802 0.386649 0.887388 0.163020
H48   H     H_    0.847197 0.386650 0.112611 0.163019
H49   H     H_    0.626714 0.830816 0.746259 0.156274
H50   H     H_    0.373285 0.830817 0.253741 0.156274
H51   H     H_    0.126714 0.330816 0.746259 0.156275
H52   H     H_    0.873285 0.330817 0.253741 0.156275
H53   H     H_    0.182167 0.748431 0.140738 0.148315
H54   H     H_    0.817833 0.748431 0.859262 0.148316
H55   H     H_    0.682167 0.248427 0.140738 0.148317
H56   H     H_    0.317833 0.248434 0.859263 0.148315
O1    O     O_R   0.679230 0.769690 0.858450 -0.625269
O2    O     O_R   0.320770 0.769690 0.141550 -0.625269
O3    O     O_R   0.179230 0.269690 0.858450 -0.625266
O4    O     O_R   0.820770 0.269690 0.141550 -0.625269
O5    O     O_R   0.082500 0.545230 0.590410 -0.621063
O6    O     O_R   0.917500 0.545230 0.409590 -0.621063
O7    O     O_R   0.582500 0.045230 0.590410 -0.621064
O8    O     O_R   0.417500 0.045230 0.409590 -0.621060
O9    O     O_R   0.507930 0.954750 0.590450 -0.619304
O10   O     O_R   0.492070 0.954750 0.409550 -0.619303
O11   O     O_R   0.007930 0.454750 0.590450 -0.619304
O12   O     O_R   0.992070 0.454750 0.409550 -0.619303
O13   O     O_R   0.582530 0.954770 0.590430 -0.622212
O14   O     O_R   0.417470 0.954770 0.409570 -0.622212
O15   O     O_R   0.082530 0.454770 0.590430 -0.622212
O16   O     O_R   0.917470 0.454770 0.409570 -0.622211
O17   O     O_R   0.730270 0.820760 0.960570 -0.616987
O18   O     O_R   0.269730 0.820760 0.039430 -0.616984
O19   O     O_R   0.230270 0.320760 0.960570 -0.616986
O20   O     O_R   0.769730 0.320760 0.039430 -0.616987
O21   O     O_R   0.658400 0.724440 0.948940 -0.623726
O22   O     O_R   0.341600 0.724440 0.051060 -0.623724
O23   O     O_R   0.158400 0.224440 0.948940 -0.623723
O24   O     O_R   0.841600 0.224440 0.051060 -0.623725
O25   O     O_R   0.709450 0.775510 0.051050 -0.624221
O26   O     O_R   0.290550 0.775510 0.948950 -0.624219
O27   O     O_R   0.209450 0.275510 0.051050 -0.624220
O28   O     O_R   0.790550 0.275510 0.948950 -0.624220
O29   O     O_R   0.769710 0.679220 0.039380 -0.601557
O30   O     O_R   0.230290 0.679220 0.960620 -0.601565
O31   O     O_R   0.269710 0.179220 0.039380 -0.601607
O32   O     O_R   0.730290 0.179220 0.960620 -0.601558
O33   O     O_R   0.820750 0.730290 0.141500 -0.622774
O34   O     O_R   0.179250 0.730290 0.858500 -0.622771
O35   O     O_R   0.320750 0.230290 0.141500 -0.622750
O36   O     O_R   0.679250 0.230290 0.858500 -0.622774
O37   O     O_R   0.790530 0.724470 0.948890 -0.630639
O38   O     O_R   0.209470 0.724470 0.051110 -0.630640
O39   O     O_R   0.290530 0.224470 0.948890 -0.630640
O40   O     O_R   0.709470 0.224470 0.051110 -0.630640
O41   O     O_R   0.841580 0.775540 0.051010 -0.620866
O42   O     O_R   0.158420 0.775540 0.948990 -0.620864
O43   O     O_R   0.341580 0.275540 0.051010 -0.620861
O44   O     O_R   0.658420 0.275540 0.948990 -0.620865
O45   O     O_R   0.007900 0.545210 0.590430 -0.623460
O46   O     O_R   0.992100 0.545210 0.409570 -0.623457
O47   O     O_R   0.507900 0.045210 0.590430 -0.623456
O48   O     O_R   0.492100 0.045210 0.409570 -0.623473
Zn1   Zn    Zn3+2 0.715910 0.715890 0.931790 0.959918
Zn2   Zn    Zn3+2 0.284090 0.715890 0.068210 0.959918
Zn3   Zn    Zn3+2 0.215910 0.215890 0.931790 0.959914
Zn4   Zn    Zn3+2 0.784090 0.215890 0.068210 0.959919
Zn5   Zn    Zn3+2 0.784070 0.784090 0.068160 0.953548
Zn6   Zn    Zn3+2 0.215930 0.784090 0.931840 0.953556
Zn7   Zn    Zn3+2 0.284070 0.284090 0.068160 0.953553
Zn8   Zn    Zn3+2 0.715930 0.284090 0.931840 0.953548
Zn9   Zn    Zn3+2 0.450180 0.999980 0.499990 0.949866
Zn10  Zn    Zn3+2 0.549820 0.999980 0.500010 0.949858
Zn11  Zn    Zn3+2 0.950180 0.499980 0.499990 0.949862
Zn12  Zn    Zn3+2 0.049820 0.499980 0.500010 0.949863
N1    N     N_2   0.856822 0.614595 0.100264 -0.270880
H57   H     H_    0.861581 0.640833 0.075850 0.230107
C121  C     C_3   0.875386 0.573909 0.091134 -0.794995
H58   H     H_    0.853923 0.570893 0.023244 0.241781
H59   H     H_    0.858631 0.546488 0.103418 0.252020
H60   H     H_    0.927230 0.572548 0.137174 0.226408
N2    N     N_2   0.143157 0.614603 0.899721 -0.270883
H61   H     H_    0.138414 0.640846 0.924143 0.230112
C122  C     C_3   0.124559 0.573927 0.908828 -0.795019
H62   H     H_    0.146009 0.570913 0.976712 0.241785
H63   H     H_    0.141301 0.546495 0.896546 0.252016
H64   H     H_    0.072713 0.572584 0.862776 0.226415
N3    N     N_2   0.356950 0.114645 0.100352 -0.270907
H65   H     H_    0.361610 0.140918 0.075890 0.230145
C123  C     C_3   0.375725 0.074028 0.091359 -0.795142
H66   H     H_    0.354334 0.071022 0.023506 0.241812
H67   H     H_    0.359052 0.046539 0.103638 0.252000
H68   H     H_    0.427581 0.072781 0.137472 0.226457
N4    N     N_2   0.643177 0.114594 0.899735 -0.270880
H69   H     H_    0.638419 0.140832 0.924150 0.230107
C124  C     C_3   0.624610 0.073909 0.908863 -0.794995
H70   H     H_    0.646072 0.070893 0.976753 0.241780
H71   H     H_    0.641364 0.046487 0.896579 0.252019
H72   H     H_    0.572767 0.072548 0.862822 0.226408
N5    N     N_2   0.455826 0.629622 0.006528 -0.314675
H73   H     H_    0.448856 0.605154 0.968021 0.236413
C125  C     C_3   0.489123 0.615501 0.094240 -0.807356
H74   H     H_    0.538692 0.607763 0.131647 0.234388
H75   H     H_    0.466264 0.586104 0.090624 0.245279
H76   H     H_    0.488131 0.640933 0.129576 0.255781
N6    N     N_2   0.544149 0.629622 0.993428 -0.314674
H77   H     H_    0.551113 0.605151 0.031926 0.236413
C126  C     C_3   0.510850 0.615509 0.905711 -0.807357
H78   H     H_    0.461277 0.607779 0.868298 0.234388
H79   H     H_    0.533698 0.586108 0.909316 0.245276
H80   H     H_    0.511853 0.640943 0.870389 0.255783
N7    N     N_2   0.955833 0.129622 0.006542 -0.314674
H81   H     H_    0.948866 0.105153 0.968039 0.236413
C127  C     C_3   0.989131 0.115505 0.094256 -0.807355
H82   H     H_    0.038703 0.107772 0.131666 0.234388
H83   H     H_    0.966280 0.086104 0.090645 0.245278
H84   H     H_    0.988132 0.140936 0.129584 0.255783
N8    N     N_2   0.044156 0.129622 0.993442 -0.314677
H85   H     H_    0.051123 0.105153 0.031944 0.236413
C128  C     C_3   0.010859 0.115507 0.905728 -0.807358
H86   H     H_    0.961289 0.107769 0.868320 0.234387
H87   H     H_    0.033715 0.086110 0.909338 0.245282
H88   H     H_    0.011852 0.140941 0.870396 0.255782

loop_
_geom_bond_atom_site_label_1
_geom_bond_atom_site_label_2
_ccdc_geom_bond_type
O10   Zn10  S    
C125  H76   S    
O9    Zn9   S    
C55   C56   A    
N4    C124  S    
C122  H63   S    
C80   N4    S    
C55   C59   A    
C70   C78   S    
C22   C94   S    
O18   Zn6   S    
C69   C77   S    
C121  H58   S    
C18   C26   S    
C50   C54   A    
O17   Zn5   S    
C57   C66   A    
C72   C76   D    
C103  H3    S    
C40   C99   S    
C71   C79   S    
C95   O11   A    
C123  H66   S    
O42   Zn6   S    
C73   H21   S    
C53   C54   A    
C128  H88   S    
C84   C92   S    
O46   Zn12  S    
N3    H65   S    
O40   Zn4   S    
O35   Zn7   S    
C48   O24   A    
C37   C41   A    
C18   H38   S    
C64   C68   A    
C127  H83   S    
C38   C42   A    
C126  H80   S    
C24   C96   S    
C54   C58   A    
N5    H73   S    
C22   H42   S    
C3    O3    A    
C46   O22   A    
C48   C107  S    
C45   O21   A    
N2    H61   S    
C46   C105  S    
C126  H78   S    
O23   Zn3   S    
C25   C29   D    
C35   C59   A    
C124  H70   S    
O24   Zn4   S    
C111  H31   S    
O19   Zn7   S    
C65   H13   S    
C62   H10   S    
C30   H50   S    
O48   Zn10  S    
O47   Zn9   S    
O41   Zn5   S    
C66   H14   S    
C52   C56   A    
C1    O1    A    
C89   O29   A    
C103  C107  A    
O20   Zn8   S    
C60   C67   A    
N2    C122  S    
C9    N5    S    
C16   H36   S    
C85   O5    A    
N8    H85   S    
C88   O48   A    
C69   C73   D    
C47   C108  S    
C63   H11   S    
C33   H53   S    
C9    C10   A    
C110  C114  A    
C15   H35   S    
O12   Zn12  S    
C109  C113  A    
O26   Zn6   S    
C81   H25   S    
C81   C89   S    
C44   C52   A    
O25   Zn5   S    
C98   O38   A    
C46   O26   A    
C90   O30   A    
C13   C14   A    
C14   H34   S    
C101  C105  A    
C79   N3    S    
C47   O23   A    
C24   H44   S    
C4    O4    A    
C38   C97   S    
C28   C32   D    
C41   C49   A    
C37   C98   S    
C82   H26   S    
C77   N1    S    
C23   H43   S    
C84   H28   S    
C69   H17   S    
N1    C121  S    
O8    Zn9   S    
N8    C128  S    
C5    C101  A    
N3    C123  S    
C49   C61   A    
C10   N6    S    
C62   C66   A    
C27   C31   D    
C80   C84   D    
C86   O6    A    
C41   H5    S    
C68   H16   S    
C127  H84   S    
C51   C63   A    
C88   O8    A    
C91   O35   A    
C10   C114  A    
C52   C64   A    
C43   H7    S    
N5    C125  S    
C126  H79   S    
O44   Zn8   S    
O30   Zn2   S    
C34   C38   A    
C123  H68   S    
C89   O33   A    
C20   C28   S    
C25   H45   S    
C128  H86   S    
O4    Zn4   S    
C3    O19   A    
C116  C120  A    
C5    C117  A    
C2    O18   A    
C87   O47   A    
O28   Zn8   S    
C19   C23   D    
C94   O14   A    
C63   C67   A    
C70   C74   D    
C67   H15   S    
C34   H54   S    
C7    C119  A    
C59   C68   A    
C26   H46   S    
C78   C82   D    
C58   C65   A    
C91   O31   A    
C12   N8    S    
C36   C40   A    
C109  H29   S    
C119  C120  A    
C17   H37   S    
C1    C29   S    
N7    H81   S    
O34   Zn6   S    
C47   O27   A    
C121  H59   S    
O14   Zn9   S    
O33   Zn5   S    
O29   Zn1   S    
O13   Zn10  S    
C8    C104  A    
C76   C87   S    
C13   H33   S    
C5    C14   A    
C114  C118  A    
C75   H23   S    
O6    Zn11  S    
C42   C50   A    
C83   H27   S    
C76   H24   S    
C111  C115  A    
O31   Zn3   S    
C7    C16   A    
C127  H82   S    
C99   O43   A    
C70   H18   S    
C8    C15   A    
C115  C119  A    
C98   O42   A    
O11   Zn11  S    
C20   H40   S    
C50   C62   A    
C97   O41   A    
C44   H8    S    
C92   O36   A    
C93   O9    A    
C72   H20   S    
N4    H69   S    
O21   Zn1   S    
C71   H19   S    
C104  C108  A    
C11   C115  A    
C45   C106  S    
C8    C120  A    
O16   Zn11  S    
C33   C37   A    
C106  C110  A    
C113  C117  A    
C108  C112  A    
C4    O20   A    
O37   Zn1   S    
C105  C109  A    
C100  O40   A    
C87   O7    A    
C33   C57   A    
C95   O15   A    
C2    O2    A    
C29   H49   S    
C18   C22   D    
C107  C111  A    
C21   H41   S    
C94   O10   A    
O43   Zn7   S    
C17   C25   S    
C110  H30   S    
C53   C57   A    
C112  H32   S    
C39   C43   A    
C11   C12   A    
C112  C116  A    
C36   H56   S    
C104  H4    S    
C32   H52   S    
C93   O13   A    
C92   O32   A    
C128  H87   S    
C83   C91   S    
C48   O28   A    
O22   Zn2   S    
C64   H12   S    
C78   N2    S    
C82   C90   S    
C61   H9    S    
C2    C30   S    
C124  H72   S    
C19   H39   S    
C96   O16   A    
C125  H74   S    
O15   Zn12  S    
C35   H55   S    
C72   C80   S    
C102  H2    S    
C125  H75   S    
C117  C118  A    
O32   Zn4   S    
C3    C31   S    
C71   C75   D    
C42   H6    S    
N6    C126  S    
O5    Zn12  S    
C43   C51   A    
C39   C100  S    
C31   H51   S    
C6    C118  A    
O36   Zn8   S    
N1    H57   S    
C9    C113  A    
C7    C103  A    
C11   N7    S    
N7    C127  S    
O39   Zn3   S    
C23   C95   S    
O27   Zn7   S    
C102  C106  A    
C121  H60   S    
C51   C55   A    
C6    C102  A    
C74   C85   S    
O3    Zn3   S    
O38   Zn2   S    
C21   C93   S    
C101  H1    S    
C73   C86   S    
O2    Zn2   S    
C49   C53   A    
C123  H67   S    
C28   H48   S    
O7    Zn10  S    
O1    Zn1   S    
C4    C32   S    
C79   C83   D    
C61   C65   A    
C75   C88   S    
C40   C44   A    
C35   C39   A    
C56   C60   A    
C74   H22   S    
C6    C13   A    
C45   O25   A    
C77   C81   D    
C90   O34   A    
C122  H64   S    
N6    H77   S    
C34   C58   A    
C36   C60   A    
C1    O17   A    
C100  O44   A    
C97   O37   A    
C86   O46   A    
C124  H71   S    
C122  H62   S    
C85   O45   A    
C96   O12   A    
C20   C24   D    
O45   Zn11  S    
C15   C16   A    
C99   O39   A    
C27   H47   S    
C19   C27   S    
C12   C116  A    
C26   C30   D    
C17   C21   D    
