data_mof_unit_22239.cif
_audit_creation_date              2012-12-10T20:30:11-0500
_audit_creation_method            fapswitch 2.2
_symmetry_space_group_name_H-M    P1
_symmetry_Int_Tables_number       1
_space_group_crystal_system       triclinic
_cell_length_a                    9.903013
_cell_length_b                    10.690162
_cell_length_c                    13.047123
_cell_angle_alpha                 90.0212
_cell_angle_beta                  69.696422
_cell_angle_gamma                 89.282979
_cell_volume                      1295.2937799

loop_
_atom_site_label
_atom_site_type_symbol
_atom_type_description
_atom_site_fract_x
_atom_site_fract_y
_atom_site_fract_z
_atom_type_partial_charge
C1    C     C_R   0.500601 0.740030 0.496584 0.864773
C2    C     C_R   0.433639 0.475992 0.984338 0.057597
C3    C     C_R   0.457203 0.430129 0.877982 0.036229
C4    C     C_R   0.545741 0.466689 0.027725 0.013886
C5    C     C_R   0.665457 0.386874 0.975670 0.094355
C6    C     C_R   0.676633 0.325331 0.879060 -0.269071
C7    C     C_R   0.570967 0.341156 0.831496 0.144303
C8    C     C_R   0.545589 0.537441 0.119297 0.121252
C9    C     C_R   0.749860 0.413488 0.126429 -0.254695
C10   C     C_R   0.366152 0.477608 0.823466 -0.135040
C11   C     C_R   0.378422 0.939035 0.495248 0.093486
C12   C     C_R   0.419732 0.493344 0.704596 0.832293
C13   C     C_R   0.505099 0.871607 0.479480 -0.104338
C14   C     C_R   0.637202 0.933672 0.442424 -0.248632
C15   C     C_R   0.638344 0.063336 0.445734 -0.218312
C16   C     C_R   0.506819 0.128870 0.483603 -0.102260
C17   C     C_R   0.379303 0.066168 0.498975 0.094611
C18   C     C_3   0.233150 0.074192 0.586445 -0.092892
C19   C     C_3   0.232409 0.932314 0.581273 -0.506882
C20   C     C_R   0.888284 0.536044 0.591040 0.162961
C21   C     C_R   0.968277 0.455046 0.413116 -0.151155
C22   C     C_R   0.112179 0.456426 0.412577 -0.134304
C23   C     C_R   0.501960 0.260315 0.496900 0.859046
C24   C     C_R   0.029194 0.527006 0.593210 0.132477
C25   C     C_3   0.015218 0.640264 0.660895 -0.513839
C26   C     C_3   0.868041 0.662225 0.649403 0.267158
C27   C     C_R   0.580322 0.504313 0.295396 0.893613
C28   C     C_R   0.770341 0.365512 0.023232 -0.188409
C29   C     C_R   0.632850 0.493900 0.177050 -0.084601
C30   C     C_R   0.231901 0.530768 0.884420 -0.182841
C31   C     C_R   0.194191 0.547701 0.996448 -0.157074
C32   C     C_R   0.295774 0.524059 0.045790 -0.182661
H1    H     H_    0.820503 0.382221 0.169022 0.160072
H2    H     H_    0.740267 0.111094 0.423669 0.166981
H3    H     H_    0.150161 0.120544 0.559320 0.169097
H4    H     H_    0.233229 0.884200 0.656681 0.204994
H5    H     H_    0.152173 0.898968 0.546517 0.195087
H6    H     H_    0.947132 0.420952 0.342163 0.141549
H7    H     H_    0.198618 0.423487 0.340871 0.151723
H8    H     H_    0.011059 0.614557 0.744327 0.174273
H9    H     H_    0.098805 0.709089 0.621082 0.213358
H10   H     H_    0.766979 0.262216 0.841635 0.157309
H11   H     H_    0.861274 0.303308 0.984997 0.148638
H12   H     H_    0.158498 0.563508 0.845041 0.146900
H13   H     H_    0.265235 0.541739 0.132173 0.152421
H14   H     H_    0.089525 0.586400 0.043857 0.145314
H15   H     H_    0.738098 0.882732 0.416287 0.180564
N1    N     N_R   0.856940 0.500860 0.500710 -0.107519
N2    N     N_R   0.142580 0.500820 0.500710 -0.095669
O1    O     O_R   0.385310 0.683210 0.499990 -0.618897
O2    O     O_R   0.614650 0.683240 0.500000 -0.620440
O3    O     O_R   0.328390 0.499940 0.653610 -0.605847
O4    O     O_R   0.557730 0.499980 0.653620 -0.625091
O5    O     O_R   0.385350 0.316760 0.500000 -0.616517
O6    O     O_R   0.614690 0.316790 0.500010 -0.629931
O7    O     O_R   0.442270 0.500020 0.346380 -0.607308
O8    O     O_R   0.671610 0.500060 0.346390 -0.623507
Zn1   Zn    Zn3+2 0.346870 0.499980 0.499990 0.922882
Zn2   Zn    Zn3+2 0.653130 0.500020 0.500010 0.913792
N3    N     N_3   0.233276 0.120009 0.692287 -0.449325
H16   H     H_    0.242709 0.217243 0.688470 0.200215
H17   H     H_    0.322103 0.083401 0.708501 0.203755
C33   C     C_3   0.743532 0.662693 0.761037 -0.391811
C34   C     C_3   0.748716 0.773458 0.833879 -0.910879
H18   H     H_    0.660717 0.765382 0.913617 0.251327
H19   H     H_    0.852464 0.775232 0.848645 0.265827
H20   H     H_    0.732631 0.863052 0.796678 0.257028
H21   H     H_    0.638954 0.667512 0.747783 0.226007
H22   H     H_    0.746577 0.574934 0.805608 0.209894
C35   C     C_3   0.866343 0.780782 0.580241 -0.322475
C36   C     C_3   0.964625 0.775979 0.459673 -0.918957
H23   H     H_    0.073745 0.739616 0.449585 0.267826
H24   H     H_    0.916944 0.717701 0.411109 0.278743
H25   H     H_    0.976810 0.871964 0.425463 0.233175
H26   H     H_    0.754750 0.802354 0.585310 0.222948
H27   H     H_    0.899720 0.862022 0.618456 0.198657
C37   C     C_3   0.500572 0.675852 0.128986 -0.460654
C38   C     C_3   0.386079 0.716872 0.236771 -0.811299
H28   H     H_    0.299218 0.647664 0.267471 0.262986
H29   H     H_    0.436911 0.733368 0.298717 0.262654
H30   H     H_    0.336716 0.807092 0.224988 0.236273
H31   H     H_    0.598130 0.732680 0.116838 0.204837
H32   H     H_    0.462311 0.703668 0.061759 0.217629
C39   C     C_3   0.575553 0.251245 0.740259 -0.331815
C40   C     C_3   0.569754 0.114314 0.775666 -0.936425
H33   H     H_    0.665346 0.087831 0.796952 0.259111
H34   H     H_    0.470548 0.097841 0.847135 0.271258
H35   H     H_    0.568805 0.052757 0.707304 0.253382
H36   H     H_    0.482340 0.265641 0.713496 0.185474
H37   H     H_    0.676468 0.265889 0.669907 0.229369

loop_
_geom_bond_atom_site_label_1
_geom_bond_atom_site_label_2
_ccdc_geom_bond_type
O6    Zn2   S    
C27   C29   S    
C32   H13   S    
C4    C8    A    
O4    Zn2   S    
C37   C38   S    
C11   C19   S    
N1    Zn2   S    
C8    C29   A    
N3    H17   S    
C3    C7    A    
C19   H4    S    
C25   H8    S    
O5    Zn1   S    
C30   C31   A    
C38   H29   S    
O8    Zn2   S    
C37   H32   S    
C15   C16   A    
C2    C32   A    
C18   C19   S    
C19   H5    S    
C14   H15   S    
C21   H6    S    
C33   H22   S    
C16   C17   A    
C31   H14   S    
C35   C36   S    
C1    O1    A    
C15   H2    S    
C12   O4    A    
C9    C29   A    
C21   N1    A    
C7    C39   S    
C21   C22   A    
C9    H1    S    
C30   H12   S    
C39   H37   S    
C12   O3    A    
C40   H34   S    
O3    Zn1   S    
O1    Zn1   S    
C34   H20   S    
C20   C24   A    
C39   C40   S    
C27   O8    A    
C25   H9    S    
C36   H24   S    
C38   H28   S    
C25   C26   S    
C40   H33   S    
N2    Zn1   S    
N3    H16   S    
C34   H19   S    
C2    C4    A    
C26   C33   S    
C5    C28   A    
C10   C30   A    
C31   C32   A    
C17   C18   S    
C24   C25   S    
C1    O2    A    
C20   N1    A    
C10   C12   S    
C22   N2    A    
C18   N3    S    
C16   C23   S    
C35   H27   S    
C8    C37   S    
C26   C35   S    
C1    C13   S    
C39   H36   S    
C23   O5    A    
C18   H3    S    
C40   H35   S    
C24   N2    A    
C33   H21   S    
C11   C17   A    
C27   O7    A    
C4    C5    A    
C36   H25   S    
C23   O6    A    
C6    C7    A    
C28   H11   S    
C34   H18   S    
C2    C3    A    
C36   H23   S    
C3    C10   A    
C11   C13   A    
C38   H30   S    
C5    C6    A    
C20   C26   S    
C37   H31   S    
C22   H7    S    
O7    Zn1   S    
C33   C34   S    
O2    Zn2   S    
C6    H10   S    
C35   H26   S    
C14   C15   A    
C13   C14   A    
C9    C28   A    
