data_mof_unit_66069.cif
_audit_creation_date              2012-12-10T19:10:59-0500
_audit_creation_method            fapswitch 2.2
_symmetry_space_group_name_H-M    P1
_symmetry_Int_Tables_number       1
_space_group_crystal_system       triclinic
_cell_length_a                    37.231705
_cell_length_b                    30.279454
_cell_length_c                    21.612439
_cell_angle_alpha                 89.999926
_cell_angle_beta                  54.351036
_cell_angle_gamma                 89.999949
_cell_volume                      19798.9957327

loop_
_atom_site_label
_atom_site_type_symbol
_atom_type_description
_atom_site_fract_x
_atom_site_fract_y
_atom_site_fract_z
_atom_type_partial_charge
C1    C     C_R   0.086315 0.500011 0.414177 0.899598
C2    C     C_R   0.970581 0.470929 0.249037 -0.001243
C3    C     C_R   0.202961 0.985147 0.743486 -0.209079
C4    C     C_R   0.274097 0.499981 0.227395 0.144416
C5    C     C_R   0.725905 0.499964 0.772618 0.144404
C6    C     C_R   0.774094 0.999949 0.227366 0.144372
C7    C     C_R   0.225905 0.999963 0.772614 0.144415
C8    C     C_R   1.000000 0.413732 0.000001 0.867517
C9    C     C_R   0.500000 0.913732 1.000000 0.867572
C10   C     C_R   0.000049 0.498925 0.879785 0.877936
C11   C     C_R   0.999951 0.498926 0.120216 0.877917
C12   C     C_R   0.500049 0.998925 0.879785 0.877937
C13   C     C_R   0.529405 0.970915 0.750978 -0.001259
C14   C     C_R   0.499951 0.998924 0.120214 0.877962
C15   C     C_R   1.000000 0.586257 1.000000 0.863625
C16   C     C_R   0.500000 0.086257 0.000000 0.863623
C17   C     C_R   0.500000 0.413700 0.000000 0.869013
C18   C     C_R   1.000000 0.913700 0.000000 0.869019
C19   C     C_R   0.413712 0.499393 0.086327 0.869914
C20   C     C_R   0.586288 0.499392 0.913673 0.869927
C21   C     C_R   0.913712 0.999391 0.086327 0.869939
C22   C     C_R   0.086288 0.999392 0.913673 0.869929
C23   C     C_R   0.500001 0.586307 0.999999 0.871565
C24   C     C_R   0.470611 0.970901 0.249005 -0.001282
C25   C     C_R   0.999999 0.086307 0.000001 0.871576
C26   C     C_R   0.038371 0.297146 0.978135 -0.197382
C27   C     C_R   0.961626 0.297146 0.021872 -0.197384
C28   C     C_R   0.538377 0.797146 0.978112 -0.197421
C29   C     C_R   0.461626 0.797146 0.021881 -0.197418
C30   C     C_R   0.943227 0.597912 0.730341 -0.099527
C31   C     C_R   0.056825 0.597879 0.269615 -0.099542
C32   C     C_R   0.443212 0.097914 0.730383 -0.099577
C33   C     C_R   0.556694 0.097939 0.269779 -0.099419
C34   C     C_R   0.038321 0.342886 0.978526 -0.220425
C35   C     C_R   0.028675 0.472500 0.687715 -0.248510
C36   C     C_R   0.961677 0.342887 0.021479 -0.220490
C37   C     C_R   0.538325 0.842887 0.978506 -0.220466
C38   C     C_R   0.461676 0.842886 0.021490 -0.220403
C39   C     C_R   1.000000 0.365887 0.000002 -0.031006
C40   C     C_R   0.500000 0.865887 0.999998 -0.030987
C41   C     C_R   0.999999 0.274331 0.000004 0.137210
C42   C     C_R   0.500001 0.774331 0.999996 0.137184
C43   C     C_R   0.468862 0.703892 0.066336 -0.210361
C44   C     C_R   0.531142 0.703892 0.933659 -0.210351
C45   C     C_R   0.968848 0.203891 0.066334 -0.210340
C46   C     C_R   0.971310 0.472514 0.312301 -0.248531
C47   C     C_R   0.031147 0.203892 0.933672 -0.210352
C48   C     C_R   0.468321 0.657912 0.067788 0.074341
C49   C     C_R   0.531684 0.657912 0.932209 0.074338
C50   C     C_R   0.968306 0.157911 0.067784 0.074337
C51   C     C_R   0.031689 0.157912 0.932219 0.074338
C52   C     C_R   0.500002 0.634474 0.999999 -0.084438
C53   C     C_R   0.999998 0.134474 0.000001 -0.084421
C54   C     C_R   0.500002 0.726510 0.999997 0.050846
C55   C     C_R   0.999998 0.226509 0.000004 0.050825
C56   C     C_R   0.038115 0.703092 0.944038 -0.179969
C57   C     C_R   0.528676 0.972500 0.687714 -0.248506
C58   C     C_R   0.961885 0.703092 0.055962 -0.179967
C59   C     C_R   0.538115 0.203092 0.944038 -0.179967
C60   C     C_R   0.461885 0.203092 0.055963 -0.179970
C61   C     C_R   0.038223 0.657296 0.944299 -0.194231
C62   C     C_R   0.961777 0.657296 0.055701 -0.194230
C63   C     C_R   0.538223 0.157296 0.944299 -0.194230
C64   C     C_R   0.461777 0.157296 0.055702 -0.194230
C65   C     C_R   0.000000 0.634232 0.000000 -0.029325
C66   C     C_R   0.500000 0.134232 0.000000 -0.029323
C67   C     C_R   0.934615 0.553746 0.754479 0.119657
C68   C     C_R   0.471340 0.972486 0.312268 -0.248482
C69   C     C_R   0.065412 0.553708 0.245505 0.119606
C70   C     C_R   0.434612 0.053741 0.754481 0.119683
C71   C     C_R   0.565353 0.053792 0.245542 0.119664
C72   C     C_R   1.000000 0.726006 0.000000 0.111774
C73   C     C_R   0.500000 0.226006 0.000000 0.111775
C74   C     C_R   0.487174 0.296865 0.066147 -0.179367
C75   C     C_R   0.512826 0.296865 0.933853 -0.179371
C76   C     C_R   0.987174 0.796865 0.066147 -0.179368
C77   C     C_R   0.012826 0.796865 0.933853 -0.179365
C78   C     C_R   0.487437 0.342662 0.066036 -0.194037
C79   C     C_R   0.998785 0.500126 0.687420 -0.073296
C80   C     C_R   0.512563 0.342662 0.933965 -0.194030
C81   C     C_R   0.987437 0.842662 0.066036 -0.194026
C82   C     C_R   0.012563 0.842662 0.933964 -0.194033
C83   C     C_R   0.500000 0.365726 0.000000 -0.028845
C84   C     C_R   1.000000 0.865726 0.000000 -0.028847
C85   C     C_R   0.500000 0.273952 0.000000 0.112610
C86   C     C_R   1.000000 0.773952 0.000000 0.112609
C87   C     C_R   0.892477 0.535975 0.786086 -0.175403
C88   C     C_R   0.107532 0.535906 0.213950 -0.175372
C89   C     C_R   0.392483 0.035957 0.786050 -0.175388
C90   C     C_R   0.001214 0.500124 0.312582 -0.073261
C91   C     C_R   0.607522 0.036071 0.213830 -0.175460
C92   C     C_R   0.859234 0.562218 0.793668 -0.120876
C93   C     C_R   0.140784 0.562125 0.206385 -0.120845
C94   C     C_R   0.359236 0.062197 0.793640 -0.120879
C95   C     C_R   0.640749 0.062346 0.206245 -0.120910
C96   C     C_R   0.868026 0.606122 0.769039 -0.113423
C97   C     C_R   0.132018 0.606034 0.230984 -0.113395
C98   C     C_R   0.368015 0.106108 0.769050 -0.113417
C99   C     C_R   0.631910 0.106231 0.230973 -0.113484
C100  C     C_R   0.969823 0.525409 0.813486 -0.241870
C101  C     C_R   0.498785 0.000125 0.687420 -0.073288
C102  C     C_R   0.030192 0.525393 0.186504 -0.241866
C103  C     C_R   0.469823 0.025409 0.813485 -0.241872
C104  C     C_R   0.530164 0.025425 0.186524 -0.241876
C105  C     C_3   0.226749 0.605001 0.311031 0.060417
C106  C     C_3   0.248120 0.649578 0.275313 -0.309707
C107  C     C_3   0.250783 0.678527 0.330314 -0.990326
C108  C     C_3   0.773254 0.605054 0.689315 0.060384
C109  C     C_3   0.751800 0.649567 0.725252 -0.309679
C110  C     C_3   0.749147 0.678627 0.670352 -0.990327
C111  C     C_3   0.726734 0.105125 0.310306 0.060355
C112  C     C_R   0.913686 0.500010 0.585820 0.899573
C113  C     C_R   0.501216 0.000128 0.312577 -0.073322
C114  C     C_3   0.748247 0.149583 0.274153 -0.309647
C115  C     C_3   0.750883 0.178767 0.328946 -0.990303
C116  C     C_3   0.273265 0.105060 0.689289 0.060375
C117  C     C_3   0.251828 0.149581 0.725216 -0.309691
C118  C     C_3   0.249180 0.178644 0.670315 -0.990333
C119  C     C_3   0.432541 0.635776 0.142012 -0.423912
C120  C     C_3   0.394946 0.618598 0.138839 -0.331548
C121  C     C_3   0.358111 0.598668 0.215131 -0.877996
C122  C     C_3   0.567465 0.635775 0.857988 -0.423917
C123  C     C_3   0.605059 0.618598 0.861167 -0.331548
C124  C     C_R   0.968862 0.526661 0.750535 -0.007294
C125  C     C_3   0.641900 0.598677 0.784872 -0.877982
C126  C     C_3   0.932514 0.135774 0.141994 -0.423946
C127  C     C_3   0.894927 0.118606 0.138787 -0.331575
C128  C     C_3   0.858066 0.098701 0.215082 -0.877951
C129  C     C_3   0.067478 0.135776 0.858005 -0.423934
C130  C     C_3   0.105066 0.118604 0.861203 -0.331573
C131  C     C_3   0.141919 0.098691 0.784910 -0.877983
C132  C     C_R   0.031151 0.526643 0.249455 -0.007299
C133  C     C_R   0.468862 0.026659 0.750535 -0.007294
C134  C     C_R   0.531123 0.026680 0.249475 -0.007291
C135  C     C_R   0.104999 0.443590 0.701764 -0.139242
C136  C     C_R   0.894971 0.443638 0.298284 -0.139277
C137  C     C_R   0.605000 0.943594 0.701770 -0.139237
C138  C     C_R   0.395031 0.943549 0.298177 -0.139193
C139  C     C_R   0.132870 0.412067 0.700511 -0.145166
C140  C     C_R   0.586313 0.000010 0.414181 0.899555
C141  C     C_R   0.867083 0.412130 0.299554 -0.145172
C142  C     C_R   0.632871 0.912071 0.700517 -0.145173
C143  C     C_R   0.367177 0.912012 0.299414 -0.145168
C144  C     C_R   0.114940 0.375125 0.748101 -0.115530
C145  C     C_R   0.884992 0.375187 0.251967 -0.115559
C146  C     C_R   0.614941 0.875127 0.748099 -0.115532
C147  C     C_R   0.385125 0.875068 0.251832 -0.115501
C148  C     C_R   0.069121 0.369732 0.797165 -0.126503
C149  C     C_R   0.930808 0.369775 0.202888 -0.126498
C150  C     C_R   0.569123 0.869730 0.797157 -0.126510
C151  C     C_R   0.413686 0.000010 0.585819 0.899585
C152  C     C_R   0.430946 0.869687 0.202793 -0.126510
C153  C     C_R   0.041121 0.401552 0.799598 -0.140894
C154  C     C_R   0.958827 0.401579 0.200439 -0.140809
C155  C     C_R   0.541122 0.901550 0.799590 -0.140913
C156  C     C_R   0.458931 0.901521 0.200376 -0.141009
C157  C     C_R   0.999130 0.500042 0.620971 0.884467
C158  C     C_R   0.000868 0.500042 0.379032 0.884471
C159  C     C_R   0.499130 0.000042 0.620970 0.884459
C160  C     C_R   0.500872 0.000043 0.379027 0.884460
C161  C     C_R   0.058944 0.438620 0.751688 0.134745
C162  C     C_R   0.999978 0.498089 0.813633 -0.081560
C163  C     C_R   0.941023 0.438650 0.248346 0.134767
C164  C     C_R   0.558945 0.938621 0.751688 0.134747
C165  C     C_R   0.441088 0.938591 0.248278 0.134723
C166  C     C_R   0.203378 0.461045 0.308031 -0.254938
C167  C     C_R   0.796628 0.461046 0.691870 -0.254949
C168  C     C_R   0.703367 0.961052 0.308244 -0.254945
C169  C     C_R   0.296628 0.961045 0.691871 -0.254957
C170  C     C_R   0.157590 0.460729 0.353267 -0.200361
C171  C     C_R   0.842417 0.460734 0.646628 -0.200324
C172  C     C_R   0.657578 0.960744 0.353491 -0.200288
C173  C     C_R   0.000022 0.498088 0.186368 -0.081580
C174  C     C_R   0.342417 0.960733 0.646631 -0.200322
C175  C     C_R   0.134350 0.500222 0.367661 -0.090488
C176  C     C_R   0.865652 0.500219 0.632336 -0.090459
C177  C     C_R   0.634346 0.000217 0.367663 -0.090423
C178  C     C_R   0.365652 0.000218 0.632331 -0.090457
C179  C     C_R   0.157268 0.540092 0.337309 -0.296683
C180  C     C_R   0.842732 0.540076 0.662797 -0.296730
C181  C     C_R   0.657269 0.040060 0.337074 -0.296745
C182  C     C_R   0.342732 0.040077 0.662783 -0.296764
C183  C     C_R   0.203268 0.540632 0.291567 0.466538
C184  C     C_R   0.499979 0.998089 0.813633 -0.081558
C185  C     C_R   0.796732 0.540609 0.708559 0.466558
C186  C     C_R   0.703269 0.040590 0.291300 0.466567
C187  C     C_R   0.296732 0.040610 0.708543 0.466557
C188  C     C_R   0.226208 0.500696 0.276224 0.000096
C189  C     C_R   0.773795 0.500682 0.723791 0.000166
C190  C     C_R   0.726203 0.000672 0.276193 0.000254
C191  C     C_R   0.273795 0.000682 0.723784 0.000178
C192  C     C_R   0.296806 0.513795 0.151697 -0.110160
C193  C     C_R   0.703194 0.513727 0.848344 -0.110101
C194  C     C_R   0.796807 0.013668 0.151618 -0.110059
C195  C     C_R   0.500022 0.998089 0.186365 -0.081537
C196  C     C_R   0.203195 0.013730 0.848337 -0.110123
C197  C     C_R   0.342616 0.513027 0.105065 -0.227338
C198  C     C_R   0.657385 0.512967 0.894967 -0.227365
C199  C     C_R   0.842616 0.012914 0.105003 -0.227396
C200  C     C_R   0.157386 0.012969 0.894963 -0.227364
C201  C     C_R   0.365775 0.498787 0.134335 -0.020369
C202  C     C_R   0.634226 0.498781 0.865667 -0.020392
C203  C     C_R   0.865774 0.998775 0.134330 -0.020398
C204  C     C_R   0.134226 0.998779 0.865666 -0.020386
C205  C     C_R   0.910032 0.623912 0.737176 -0.157699
C206  C     C_R   0.029404 0.470915 0.750979 -0.001261
C207  C     C_R   0.090029 0.623854 0.262797 -0.157664
C208  C     C_R   0.410013 0.123910 0.737223 -0.157699
C209  C     C_R   0.589873 0.123970 0.262940 -0.157735
C210  C     C_R   0.342849 0.484653 0.210112 -0.206167
C211  C     C_R   0.657154 0.484693 0.789865 -0.206166
C212  C     C_R   0.842843 0.984725 0.210152 -0.206173
C213  C     C_R   0.157153 0.984688 0.789867 -0.206171
C214  C     C_R   0.297040 0.485115 0.256495 -0.209084
C215  C     C_R   0.702963 0.485153 0.743487 -0.209102
C216  C     C_R   0.797035 0.985182 0.256525 -0.209094
H1    H     H_    0.842312 0.626300 0.774512 0.142336
H2    H     H_    0.944606 0.340750 0.167198 0.146261
H3    H     H_    0.380801 0.971791 0.335902 0.121979
H4    H     H_    0.168365 0.416090 0.662211 0.124347
H5    H     H_    0.831590 0.416167 0.337865 0.124353
H6    H     H_    0.668365 0.916096 0.662222 0.124347
H7    H     H_    0.331680 0.916025 0.337694 0.124340
H8    H     H_    0.246632 0.587780 0.327174 0.145819
H9    H     H_    0.192767 0.611167 0.363175 0.135238
H10   H     H_    0.281953 0.644325 0.222760 0.229614
H11   H     H_    0.228337 0.666951 0.259304 0.218531
H12   H     H_    0.217098 0.685612 0.382008 0.264421
H13   H     H_    0.555310 0.840705 0.832843 0.146283
H14   H     H_    0.267108 0.710285 0.302198 0.264482
H15   H     H_    0.270342 0.661838 0.347328 0.262657
H16   H     H_    0.753431 0.587873 0.673010 0.145759
H17   H     H_    0.807244 0.611307 0.637251 0.135275
H18   H     H_    0.717957 0.644221 0.777726 0.229610
H19   H     H_    0.771519 0.666896 0.741434 0.218536
H20   H     H_    0.782841 0.685812 0.618757 0.264414
H21   H     H_    0.732747 0.710329 0.698636 0.264490
H22   H     H_    0.729664 0.661974 0.653150 0.262671
H23   H     H_    0.746510 0.088003 0.326763 0.145725
H24   H     H_    0.444774 0.840663 0.167108 0.146301
H25   H     H_    0.692736 0.111452 0.362294 0.135292
H26   H     H_    0.782099 0.144161 0.221747 0.229596
H27   H     H_    0.728575 0.166855 0.257816 0.218512
H28   H     H_    0.717183 0.186027 0.380464 0.264397
H29   H     H_    0.767326 0.210426 0.300507 0.264485
H30   H     H_    0.770320 0.162175 0.346296 0.262682
H31   H     H_    0.253435 0.087889 0.672989 0.145782
H32   H     H_    0.307256 0.111302 0.637224 0.135261
H33   H     H_    0.217986 0.144247 0.777698 0.229619
H34   H     H_    0.271558 0.166902 0.741384 0.218526
H35   H     H_    0.005658 0.396959 0.837736 0.113864
H36   H     H_    0.282874 0.185812 0.618707 0.264415
H37   H     H_    0.232799 0.210354 0.698588 0.264491
H38   H     H_    0.229680 0.162003 0.653137 0.262669
H39   H     H_    0.371122 0.571054 0.230551 0.270101
H40   H     H_    0.343750 0.624131 0.260554 0.254290
H41   H     H_    0.331586 0.585824 0.211264 0.270305
H42   H     H_    0.381062 0.646253 0.125061 0.218567
H43   H     H_    0.407561 0.593159 0.093725 0.216858
H44   H     H_    0.446332 0.609027 0.157279 0.227060
H45   H     H_    0.418280 0.659821 0.189773 0.192729
H46   H     H_    0.994287 0.396972 0.162290 0.113831
H47   H     H_    0.628893 0.571074 0.769424 0.270081
H48   H     H_    0.656271 0.624148 0.739462 0.254273
H49   H     H_    0.668416 0.585819 0.788751 0.270263
H50   H     H_    0.618937 0.646253 0.874959 0.218575
H51   H     H_    0.592444 0.593155 0.906274 0.216858
H52   H     H_    0.553676 0.609024 0.842721 0.227049
H53   H     H_    0.581727 0.659819 0.810225 0.192739
H54   H     H_    0.871057 0.071107 0.230576 0.270064
H55   H     H_    0.843683 0.124185 0.260474 0.254240
H56   H     H_    0.831563 0.085836 0.211176 0.270235
H57   H     H_    0.505659 0.896955 0.837724 0.113869
H58   H     H_    0.881068 0.146262 0.124961 0.218595
H59   H     H_    0.907545 0.093155 0.093691 0.216861
H60   H     H_    0.946292 0.109016 0.157271 0.227036
H61   H     H_    0.918247 0.159815 0.189761 0.192763
H62   H     H_    0.128924 0.071089 0.769441 0.270083
H63   H     H_    0.156293 0.124168 0.739507 0.254274
H64   H     H_    0.168431 0.085836 0.788804 0.270283
H65   H     H_    0.118933 0.146260 0.875015 0.218583
H66   H     H_    0.092448 0.093157 0.906305 0.216865
H67   H     H_    0.053696 0.109021 0.842729 0.227045
H68   H     H_    0.494396 0.896939 0.162256 0.113907
H69   H     H_    0.081743 0.159819 0.810240 0.192751
H70   H     H_    0.221101 0.430279 0.296629 0.158059
H71   H     H_    0.778908 0.430287 0.703190 0.158049
H72   H     H_    0.721084 0.930303 0.297021 0.158031
H73   H     H_    0.157738 0.626193 0.225525 0.142405
H74   H     H_    0.278908 0.930285 0.703197 0.158049
H75   H     H_    0.140459 0.429645 0.376752 0.166846
H76   H     H_    0.859550 0.429660 0.623054 0.166822
H77   H     H_    0.640441 0.929682 0.377168 0.166795
H78   H     H_    0.359550 0.929658 0.623064 0.166823
H79   H     H_    0.139669 0.570816 0.347863 0.176204
H80   H     H_    0.860329 0.570791 0.652322 0.176207
H81   H     H_    0.639672 0.070765 0.347458 0.176207
H82   H     H_    0.360329 0.070793 0.652304 0.176203
H83   H     H_    0.279034 0.524996 0.128941 0.145126
H84   H     H_    0.342299 0.126282 0.774528 0.142339
H85   H     H_    0.720964 0.524885 0.871126 0.145178
H86   H     H_    0.779039 0.024789 0.128811 0.145264
H87   H     H_    0.220966 0.024891 0.871116 0.145181
H88   H     H_    0.359875 0.524224 0.046726 0.154597
H89   H     H_    0.640125 0.524124 0.953327 0.154628
H90   H     H_    0.859876 0.024039 0.046626 0.154657
H91   H     H_    0.140127 0.024129 0.953321 0.154627
H92   H     H_    0.360299 0.473378 0.233402 0.152576
H93   H     H_    0.639706 0.473460 0.766549 0.152599
H94   H     H_    0.860290 0.973527 0.233491 0.152617
H95   H     H_    0.657611 0.126432 0.225497 0.142248
H96   H     H_    0.139704 0.973451 0.766554 0.152598
H97   H     H_    0.916782 0.657919 0.718225 0.123089
H98   H     H_    0.083299 0.657865 0.281725 0.123086
H99   H     H_    0.416753 0.157923 0.718304 0.123094
H100  H     H_    0.583087 0.157963 0.281968 0.123077
H101  H     H_    0.279451 0.474393 0.315161 0.135504
H102  H     H_    0.720552 0.474472 0.684800 0.135511
H103  H     H_    0.779445 0.974536 0.315230 0.135516
H104  H     H_    0.220550 0.974463 0.684802 0.135509
H105  H     H_    0.068067 0.279514 0.961560 0.135570
H106  H     H_    0.136537 0.350534 0.746588 0.120020
H107  H     H_    0.931931 0.279516 0.038448 0.135574
H108  H     H_    0.568075 0.779515 0.961524 0.135583
H109  H     H_    0.431928 0.779514 0.038469 0.135579
H110  H     H_    0.068140 0.360195 0.962050 0.160426
H111  H     H_    0.931859 0.360196 0.037953 0.160433
H112  H     H_    0.568146 0.860195 0.962019 0.160441
H113  H     H_    0.431855 0.860194 0.037979 0.160435
H114  H     H_    0.444893 0.722440 0.117192 0.132726
H115  H     H_    0.555112 0.722439 0.882802 0.132731
H116  H     H_    0.944871 0.222437 0.117186 0.132738
H117  H     H_    0.863382 0.350608 0.253492 0.120027
H118  H     H_    0.055124 0.222439 0.882820 0.132732
H119  H     H_    0.067795 0.720675 0.900814 0.131984
H120  H     H_    0.932204 0.720675 0.099186 0.131985
H121  H     H_    0.567795 0.220675 0.900814 0.131983
H122  H     H_    0.432205 0.220675 0.099187 0.131981
H123  H     H_    0.067980 0.639988 0.900686 0.153317
H124  H     H_    0.932020 0.639988 0.099315 0.153318
H125  H     H_    0.567980 0.139988 0.900686 0.153317
H126  H     H_    0.432020 0.139988 0.099315 0.153316
H127  H     H_    0.477439 0.279282 0.117404 0.130998
H128  H     H_    0.636538 0.850536 0.746587 0.120020
H129  H     H_    0.522560 0.279282 0.882597 0.130996
H130  H     H_    0.977440 0.779282 0.117403 0.130998
H131  H     H_    0.022560 0.779282 0.882597 0.130998
H132  H     H_    0.477477 0.359972 0.117622 0.151519
H133  H     H_    0.522523 0.359972 0.882379 0.151521
H134  H     H_    0.977477 0.859972 0.117622 0.151524
H135  H     H_    0.022523 0.859973 0.882378 0.151522
H136  H     H_    0.975517 0.612105 0.706454 0.121844
H137  H     H_    0.024547 0.612095 0.293471 0.121844
H138  H     H_    0.475495 0.112117 0.706525 0.121842
H139  H     H_    0.363541 0.850467 0.253332 0.120013
H140  H     H_    0.524380 0.112096 0.293743 0.121850
H141  H     H_    0.885322 0.502023 0.805465 0.131958
H142  H     H_    0.114665 0.501949 0.194600 0.131948
H143  H     H_    0.385339 0.002000 0.805397 0.131946
H144  H     H_    0.614714 0.002136 0.194370 0.131985
H145  H     H_    0.826688 0.548490 0.818424 0.146906
H146  H     H_    0.173316 0.548372 0.181669 0.146784
H147  H     H_    0.326696 0.048459 0.818369 0.146907
H148  H     H_    0.673318 0.048656 0.181410 0.147033
H149  H     H_    0.947044 0.545872 0.862500 0.159272
H150  H     H_    0.055309 0.340709 0.832856 0.146282
H151  H     H_    0.052982 0.545844 0.137481 0.159283
H152  H     H_    0.447043 0.045871 0.862499 0.159271
H153  H     H_    0.552931 0.045900 0.137520 0.159261
H154  H     H_    0.051081 0.451762 0.638867 0.152112
H155  H     H_    0.948894 0.451788 0.361160 0.152083
H156  H     H_    0.551082 0.951762 0.638865 0.152096
H157  H     H_    0.448946 0.951736 0.361105 0.152129
H158  H     H_    0.119215 0.471830 0.664034 0.121980
H159  H     H_    0.880770 0.471881 0.336013 0.121986
H160  H     H_    0.619215 0.971837 0.664045 0.121987
O1    O     O_R   0.065470 0.536950 0.434540 -0.622658
O2    O     O_R   0.565480 0.500010 0.986250 -0.625718
O3    O     O_R   0.934520 0.000010 0.013750 -0.625735
O4    O     O_R   0.065480 0.000010 0.986250 -0.625717
O5    O     O_R   0.500000 0.565470 0.051720 -0.629269
O6    O     O_R   0.500000 0.565470 0.948280 -0.629275
O7    O     O_R   0.000000 0.065470 0.051720 -0.629275
O8    O     O_R   0.000000 0.065470 0.948280 -0.629271
O9    O     O_R   0.065450 0.463030 0.434550 -0.630815
O10   O     O_R   0.934550 0.463030 0.565450 -0.630803
O11   O     O_R   0.565450 0.963030 0.434550 -0.630784
O12   O     O_R   0.934530 0.536950 0.565460 -0.622670
O13   O     O_R   0.434550 0.963030 0.565450 -0.630804
O14   O     O_R   0.000000 0.536950 0.591620 -0.621639
O15   O     O_R   0.000000 0.536950 0.408380 -0.621626
O16   O     O_R   0.500000 0.036950 0.591620 -0.621613
O17   O     O_R   0.500000 0.036950 0.408380 -0.621669
O18   O     O_R   0.999990 0.463030 0.591630 -0.624146
O19   O     O_R   0.000010 0.463030 0.408370 -0.624159
O20   O     O_R   0.499990 0.963030 0.591630 -0.624166
O21   O     O_R   0.500010 0.963030 0.408370 -0.624141
O22   O     O_R   0.963040 0.434500 0.036950 -0.621343
O23   O     O_R   0.565470 0.036950 0.434540 -0.622683
O24   O     O_R   0.036960 0.434500 0.963050 -0.621334
O25   O     O_R   0.463040 0.934500 0.036950 -0.621340
O26   O     O_R   0.536960 0.934500 0.963050 -0.621349
O27   O     O_R   0.963030 0.499970 0.945350 -0.627777
O28   O     O_R   0.036970 0.499970 0.054650 -0.627780
O29   O     O_R   0.463030 0.999970 0.945350 -0.627779
O30   O     O_R   0.536970 0.999970 0.054650 -0.627780
O31   O     O_R   0.036950 0.499990 0.871430 -0.611647
O32   O     O_R   0.963050 0.499990 0.128570 -0.611640
O33   O     O_R   0.536950 0.999990 0.871430 -0.611649
O34   O     O_R   0.434530 0.036950 0.565460 -0.622665
O35   O     O_R   0.463050 0.999990 0.128570 -0.611657
O36   O     O_R   0.963030 0.565430 0.036970 -0.626960
O37   O     O_R   0.036970 0.565430 0.963030 -0.626962
O38   O     O_R   0.463030 0.065430 0.036970 -0.626963
O39   O     O_R   0.536970 0.065430 0.963030 -0.626962
O40   O     O_R   0.499980 0.434540 0.051730 -0.625316
O41   O     O_R   0.500020 0.434540 0.948270 -0.625313
O42   O     O_R   0.999980 0.934540 0.051730 -0.625312
O43   O     O_R   0.000020 0.934540 0.948270 -0.625316
O44   O     O_3   0.225708 0.579545 0.257401 -0.666874
O45   O     O_R   0.434520 0.500000 0.117190 -0.627452
O46   O     O_3   0.774289 0.579498 0.742860 -0.666920
O47   O     O_3   0.725716 0.079454 0.256851 -0.666976
O48   O     O_3   0.274288 0.079500 0.742842 -0.666924
O49   O     O_R   0.565480 0.500000 0.882810 -0.627455
O50   O     O_R   0.934520 0.000000 0.117190 -0.627459
O51   O     O_R   0.065480 0.000000 0.882810 -0.627454
O52   O     O_R   0.434520 0.500010 0.013750 -0.625702
Zn1   Zn    Zn3+2 1.000000 0.549340 0.500000 0.946343
Zn2   Zn    Zn3+2 0.500010 0.500000 0.930920 0.930074
Zn3   Zn    Zn3+2 0.999990 0.000000 0.069080 0.930072
Zn4   Zn    Zn3+2 0.000010 0.000000 0.930920 0.930065
Zn5   Zn    Zn3+2 0.500000 0.049340 0.500000 0.946325
Zn6   Zn    Zn3+2 0.000000 0.450640 0.500000 0.942551
Zn7   Zn    Zn3+2 0.500000 0.950640 0.500000 0.942564
Zn8   Zn    Zn3+2 0.950630 0.499960 0.049360 0.952473
Zn9   Zn    Zn3+2 0.049370 0.499960 0.950640 0.952461
Zn10  Zn    Zn3+2 0.450630 0.999960 0.049360 0.952452
Zn11  Zn    Zn3+2 0.549370 0.999960 0.950640 0.952459
Zn12  Zn    Zn3+2 0.499990 0.500000 0.069080 0.930070

loop_
_geom_bond_atom_site_label_1
_geom_bond_atom_site_label_2
_ccdc_geom_bond_type
C172  C177  A    
C126  C127  S    
O14   Zn1   S    
C107  H15   S    
C29   C42   A    
C135  C161  A    
C142  C146  A    
C114  C115  S    
C110  H21   S    
C144  C148  A    
C135  C139  A    
C153  H35   S    
C23   O6    A    
C166  C188  A    
C102  C132  A    
C138  C143  A    
C95   C99   A    
C106  C107  S    
C168  C190  A    
C108  C109  S    
C89   C94   A    
C129  H67   S    
C4    C192  A    
C82   H135  S    
O10   Zn6   S    
C146  C150  A    
C139  H4    S    
O33   Zn11  S    
O52   Zn2   S    
C56   C72   A    
C18   C84   S    
C169  C174  A    
C198  H89   S    
C59   C73   A    
C141  C145  A    
C192  H83   S    
O2    Zn12  S    
C119  H44   S    
C25   O7    A    
C10   C162  S    
C81   H134  S    
C18   O42   A    
C98   C208  A    
O37   Zn9   S    
C80   C83   A    
C9    O25   A    
C172  H77   S    
O7    Zn3   S    
O8    Zn4   S    
C50   C53   A    
C4    C214  A    
C104  H153  S    
C92   H145  S    
C127  H59   S    
C170  H75   S    
C194  H86   S    
C167  C171  A    
C47   H118  S    
C112  O10   A    
O25   Zn10  S    
C153  C161  A    
C100  C124  A    
C64   C66   A    
C186  C190  A    
C31   C207  A    
C136  C141  A    
C43   C54   A    
C116  H31   S    
C13   C184  A    
C131  H64   S    
C178  C182  A    
C69   C88   A    
C82   C84   A    
C138  C165  A    
C148  C153  A    
C6    C194  A    
C211  H93   S    
C35   H154  S    
C105  C106  S    
C126  H60   S    
C125  H49   S    
C159  O20   A    
O21   Zn7   S    
O45   Zn12  S    
C60   H122  S    
C187  O48   S    
C25   C53   S    
C102  H151  S    
C117  H34   S    
O30   Zn11  S    
C101  C133  A    
C3    C213  A    
C105  H8    S    
C59   C63   A    
C22   O51   A    
C181  H81   S    
C10   O27   A    
C60   C64   A    
C4    C188  S    
C43   H114  S    
C129  H69   S    
C130  C131  S    
C5    C189  S    
C210  C214  A    
C183  C188  A    
C16   O39   A    
C77   C82   A    
C148  H150  S    
C125  H48   S    
C64   H126  S    
C104  C195  A    
C24   C165  S    
C97   H73   S    
C33   C71   A    
O42   Zn3   S    
C61   C65   A    
C48   C52   A    
O17   Zn5   S    
C151  O13   A    
C106  H11   S    
O39   Zn11  S    
C7    C196  A    
O40   Zn12  S    
C63   H125  S    
C96   H1    S    
C141  H5    S    
C44   H115  S    
C38   C40   A    
C137  C142  A    
C68   H157  S    
C21   C203  S    
C202  C211  A    
C14   O30   A    
O3    Zn4   S    
C51   C129  S    
C122  H52   S    
C8    O24   A    
O4    Zn3   S    
C112  O12   A    
C104  C134  A    
O26   Zn11  S    
O15   Zn1   S    
C37   C40   A    
C13   C57   A    
C5    C215  A    
C92   C96   A    
O20   Zn7   S    
C131  H62   S    
C62   H124  S    
C122  H53   S    
C26   H105  S    
O27   Zn8   S    
O1    Zn1   S    
C29   C38   A    
C198  C202  A    
O49   Zn2   S    
C105  H9    S    
C57   H156  S    
C12   O33   A    
C30   C67   A    
C115  H30   S    
C111  H25   S    
C186  O47   S    
C128  H56   S    
C160  O21   A    
O43   Zn4   S    
C75   C85   A    
C121  H39   S    
C31   H137  S    
C167  C189  A    
C34   C39   A    
C59   H121  S    
C11   O32   A    
C37   H112  S    
O11   Zn7   S    
O13   Zn7   S    
C32   C70   A    
C30   C205  A    
C51   C53   A    
O32   Zn8   S    
C118  H37   S    
C14   O35   A    
C205  H97   S    
C35   C206  A    
C91   H144  S    
C200  C204  A    
O38   Zn10  S    
C73   C85   S    
C215  H102  S    
C109  H19   S    
C112  C176  S    
C138  H3    S    
C166  C170  A    
C1    O9    A    
C150  C155  A    
C70   C89   A    
C169  C191  A    
O18   Zn6   S    
C93   C97   A    
C120  C121  S    
C129  C130  S    
C108  H16   S    
C151  O34   A    
C17   O40   A    
C1    C175  S    
C114  H26   S    
C36   C39   A    
C146  H128  S    
C181  C186  A    
C110  H22   S    
C185  C189  A    
C197  H88   S    
C57   C101  A    
O9    Zn6   S    
C36   H111  S    
C22   C204  S    
C23   O5    A    
C212  H94   S    
C20   C202  S    
C100  H149  S    
O19   Zn6   S    
C117  C118  S    
O41   Zn2   S    
C123  H50   S    
C23   C52   S    
C28   C37   A    
C177  C181  A    
C35   C79   A    
O12   Zn1   S    
C74   C85   A    
C91   C95   A    
C115  H28   S    
C44   C54   A    
C31   C69   A    
C6    C216  A    
C45   C55   A    
O34   Zn5   S    
C100  C162  A    
C180  H80   S    
C121  H41   S    
C103  H152  S    
C58   C62   A    
C14   C195  S    
C207  H98   S    
C10   O31   A    
C216  H103  S    
C18   O43   A    
C182  H82   S    
C179  H79   S    
C71   C134  S    
O35   Zn10  S    
C102  C173  A    
C15   O36   A    
C199  H90   S    
C130  H65   S    
C3    C7    A    
C2    C173  A    
C99   C209  A    
C123  C125  S    
C111  O47   S    
C94   C98   A    
C193  C198  A    
C15   C65   S    
C60   C73   A    
C137  H160  S    
C41   C55   S    
C214  H101  S    
C167  H71   S    
C88   C93   A    
C78   C83   A    
C168  H72   S    
O22   Zn8   S    
C116  H32   S    
C136  H159  S    
C22   O4    A    
C174  C178  A    
C209  H100  S    
C131  H63   S    
O6    Zn2   S    
C196  C200  A    
C68   C113  A    
C90   C132  A    
C171  H76   S    
C63   C66   A    
C87   C92   A    
C162  C206  A    
C199  C203  A    
C7    C191  S    
C110  H20   S    
C48   C119  S    
C170  C175  A    
C126  H61   S    
C95   H148  S    
C103  C184  A    
C166  H70   S    
C156  H68   S    
C117  H33   S    
C47   C51   A    
C158  O19   A    
C19   O45   A    
O16   Zn5   S    
C9    C40   S    
C38   H113  S    
C149  C154  A    
C154  H46   S    
C20   O49   A    
C140  O23   A    
C49   C52   A    
C125  H47   S    
C140  C177  S    
C160  O17   A    
C3    H104  S    
C56   H119  S    
C28   H108  S    
C25   O8    A    
C113  C134  A    
O29   Zn10  S    
C74   H127  S    
C161  C206  S    
C16   C66   S    
C21   O50   A    
C76   C86   A    
C9    O26   A    
C13   C164  S    
C5    C193  A    
C79   C124  A    
O24   Zn9   S    
C30   H136  S    
C174  H78   S    
C67   C87   A    
C2    C163  S    
C79   C157  S    
C72   C86   S    
C119  C120  S    
C46   C90   A    
C27   C36   A    
C120  H43   S    
O51   Zn4   S    
C24   C195  A    
C145  H117  S    
C109  C110  S    
C42   C54   S    
C45   C50   A    
O36   Zn8   S    
C12   C184  S    
C156  C165  A    
C111  C114  S    
C29   H109  S    
C149  H2    S    
O23   Zn5   S    
C94   H147  S    
C144  H106  S    
C24   C68   A    
C123  H51   S    
C168  C172  A    
C71   C91   A    
C19   O52   A    
C101  C159  S    
C74   C78   A    
C107  H14   S    
C76   H130  S    
C56   C61   A    
C78   H132  S    
C145  C149  A    
C115  H29   S    
C136  C163  A    
C44   C49   A    
C21   O3    A    
C211  C215  A    
C157  O18   A    
C93   H146  S    
C99   H95   S    
C19   C201  S    
C155  H57   S    
C98   H84   S    
C67   C124  S    
C157  O14   A    
C96   C205  A    
C105  O44   S    
C2    C46   A    
C143  C147  A    
C150  H13   S    
C17   O41   A    
C152  C156  A    
C213  H96   S    
C143  H7    S    
C116  C117  S    
C108  O46   S    
C185  O46   S    
C118  H38   S    
C193  H85   S    
C33   C209  A    
C26   C34   A    
C212  C216  A    
O28   Zn9   S    
C70   C133  S    
C88   H142  S    
C106  H10   S    
C197  C201  A    
C50   C126  S    
C8    C39   S    
C43   C48   A    
C187  C191  A    
C109  H18   S    
C114  H27   S    
O5    Zn12  S    
C12   O29   A    
C196  H87   S    
C32   H138  S    
O31   Zn9   S    
C179  C183  A    
O50   Zn3   S    
C1    O1    A    
C11   C173  S    
C27   H107  S    
C75   H129  S    
C154  C163  A    
C210  H92   S    
C116  O48   S    
C151  C178  S    
C175  C179  A    
C80   H133  S    
C192  C197  A    
C16   O38   A    
C204  C213  A    
C111  H23   S    
C159  O16   A    
C17   C83   S    
C90   C158  S    
C171  C176  A    
C128  H54   S    
C77   H131  S    
C139  C144  A    
C27   C41   A    
C194  C199  A    
C152  H24   S    
C176  C180  A    
C107  H12   S    
C6    C190  S    
C97   C207  A    
C135  H158  S    
C46   H155  S    
C45   H116  S    
C77   C86   A    
C128  H55   S    
C203  C212  A    
C32   C208  A    
C127  H58   S    
C201  C210  A    
C81   C84   A    
C121  H40   S    
C47   C55   A    
C158  O15   A    
C75   C80   A    
C147  H139  S    
C108  H17   S    
C62   C65   A    
C87   H141  S    
C15   O37   A    
C76   C81   A    
C137  C164  A    
C140  O11   A    
C155  C164  A    
C34   H110  S    
C20   O2    A    
C58   H120  S    
C33   H140  S    
C147  C152  A    
C103  C133  A    
C130  H66   S    
C118  H36   S    
C169  H74   S    
C89   H143  S    
C58   C72   A    
C119  H45   S    
C69   C132  S    
C120  H42   S    
C49   C122  S    
C28   C42   A    
C208  H99   S    
C183  O44   S    
C182  C187  A    
C113  C160  S    
C11   O28   A    
C180  C185  A    
C8    O22   A    
C61   H123  S    
C200  H91   S    
C122  C123  S    
C142  H6    S    
C127  C128  S    
C26   C41   A    
