data_mof_unit_60392.cif
_audit_creation_date              2012-12-10T20:00:27-0500
_audit_creation_method            fapswitch 2.2
_symmetry_space_group_name_H-M    P1
_symmetry_Int_Tables_number       1
_space_group_crystal_system       triclinic
_cell_length_a                    32.108662
_cell_length_b                    32.108662
_cell_length_c                    30.157094
_cell_angle_alpha                 90.01091
_cell_angle_beta                  90.010906
_cell_angle_gamma                 90.023311
_cell_volume                      31090.9401627

loop_
_atom_site_label
_atom_site_type_symbol
_atom_type_description
_atom_site_fract_x
_atom_site_fract_y
_atom_site_fract_z
_atom_type_partial_charge
C1    C     C_R   0.419374 0.999992 0.999999 0.929447
C2    C     C_R   0.012751 0.728051 0.038408 0.317574
C3    C     C_R   0.000004 0.500010 0.634530 -0.269455
C4    C     C_R   0.999990 0.499996 0.865470 -0.269454
C5    C     C_R   0.500009 0.999987 0.865471 -0.269377
C6    C     C_R   0.000013 0.499991 0.134529 -0.269401
C7    C     C_R   0.500002 0.000011 0.134530 -0.269402
C8    C     C_R   0.525622 0.971271 0.296724 -0.096957
C9    C     C_R   0.971280 0.474334 0.296713 -0.096967
C10   C     C_R   0.474359 0.028733 0.296726 -0.096980
C11   C     C_R   0.028761 0.525622 0.296738 -0.096977
C12   C     C_R   0.525666 0.028720 0.703287 -0.096979
C13   C     C_R   0.728053 0.988366 0.038577 0.316836
C14   C     C_R   0.971269 0.525636 0.703274 -0.097225
C15   C     C_R   0.474378 0.971238 0.703262 -0.096944
C16   C     C_R   0.028733 0.474376 0.703276 -0.097027
C17   C     C_R   0.025624 0.471267 0.796724 -0.097028
C18   C     C_R   0.471280 0.974333 0.796713 -0.096980
C19   C     C_R   0.974364 0.528731 0.796726 -0.097225
C20   C     C_R   0.528762 0.025622 0.796738 -0.096943
C21   C     C_R   0.025666 0.528720 0.203287 -0.096968
C22   C     C_R   0.471267 0.025641 0.203274 -0.096980
C23   C     C_R   0.974378 0.471239 0.203262 -0.096977
C24   C     C_R   0.988173 0.271953 0.038544 0.317031
C25   C     C_R   0.528729 0.974378 0.203276 -0.096958
C26   C     C_R   0.499992 0.000004 0.273333 -0.083687
C27   C     C_R   0.000022 0.499978 0.273333 -0.083699
C28   C     C_R   0.500023 0.999978 0.726667 -0.083652
C29   C     C_R   0.999999 0.500004 0.726667 -0.083742
C30   C     C_R   0.999996 0.500001 0.773333 -0.083742
C31   C     C_R   0.500022 0.999977 0.773333 -0.083652
C32   C     C_R   0.000022 0.499978 0.226667 -0.083699
C33   C     C_R   0.499996 0.000008 0.226667 -0.083686
C34   C     C_R   0.554158 0.946077 0.273137 0.371537
C35   C     C_R   0.271935 0.987797 0.961598 0.317226
C36   C     C_R   0.946078 0.445786 0.273113 0.371534
C37   C     C_R   0.445826 0.053930 0.273137 0.371463
C38   C     C_R   0.053972 0.554164 0.273161 0.371505
C39   C     C_R   0.554214 0.053922 0.726887 0.371535
C40   C     C_R   0.946072 0.554169 0.726863 0.370927
C41   C     C_R   0.445837 0.946027 0.726839 0.371481
C42   C     C_R   0.053926 0.445839 0.726863 0.371443
C43   C     C_R   0.054161 0.446074 0.773137 0.371443
C44   C     C_R   0.446078 0.945785 0.773113 0.371536
C45   C     C_R   0.945831 0.553928 0.773137 0.370927
C46   C     C_R   0.011759 0.271947 0.961465 0.316989
C47   C     C_R   0.553973 0.054163 0.773161 0.371480
C48   C     C_R   0.054214 0.553922 0.226887 0.371534
C49   C     C_R   0.446070 0.054174 0.226863 0.371461
C50   C     C_R   0.945836 0.446028 0.226839 0.371506
C51   C     C_R   0.553922 0.945841 0.226863 0.371539
C52   C     C_R   0.228136 0.987841 0.961291 -0.126159
C53   C     C_R   0.991910 0.771901 0.960178 -0.127676
C54   C     C_R   0.771845 0.011704 0.961117 -0.126354
C55   C     C_R   0.011718 0.228148 0.961158 -0.126178
C56   C     C_R   0.228165 0.012051 0.038750 -0.126161
C57   C     C_R   0.728046 0.011753 0.961429 0.317105
C58   C     C_R   0.988226 0.228154 0.038858 -0.126220
C59   C     C_R   0.771852 0.988414 0.038885 -0.126332
C60   C     C_R   0.014083 0.771843 0.038324 -0.128365
C61   C     C_R   0.728157 0.485918 0.461676 -0.128366
C62   C     C_R   0.487945 0.271835 0.461251 -0.126160
C63   C     C_R   0.271846 0.511773 0.461142 -0.126220
C64   C     C_R   0.511574 0.728148 0.461111 -0.126332
C65   C     C_R   0.728099 0.508089 0.539822 -0.127676
C66   C     C_R   0.488307 0.728155 0.538887 -0.126354
C67   C     C_R   0.271852 0.488283 0.538842 -0.126178
C68   C     C_R   0.990732 0.728112 0.960790 0.318395
C69   C     C_R   0.512162 0.271864 0.538708 -0.126159
C70   C     C_R   0.206480 0.999951 0.000021 -0.115032
C71   C     C_R   0.003587 0.793529 0.999088 -0.108287
C72   C     C_R   0.793519 0.000054 0.999998 -0.115402
C73   C     C_R   0.999976 0.206481 0.000010 -0.115186
C74   C     C_R   0.706471 0.496412 0.500912 -0.108286
C75   C     C_R   0.500049 0.293520 0.499979 -0.115032
C76   C     C_R   0.293519 0.500023 0.499990 -0.115186
C77   C     C_R   0.499945 0.706481 0.500002 -0.115401
C78   C     C_2   0.205055 0.975008 0.920710 1.023247
C79   C     C_R   0.771888 0.509267 0.539211 0.318396
C80   C     C_2   0.980985 0.795069 0.919029 1.016247
C81   C     C_2   0.794906 0.024052 0.920367 1.023392
C82   C     C_2   0.024171 0.205081 0.920446 1.023603
C83   C     C_2   0.205116 0.024878 0.079338 1.023720
C84   C     C_2   0.975779 0.205092 0.079572 1.023574
C85   C     C_2   0.794919 0.976075 0.079636 1.023799
C86   C     C_2   0.026408 0.794953 0.079075 1.021467
C87   C     C_2   0.705047 0.473594 0.420924 1.021467
C88   C     C_2   0.475116 0.294884 0.420664 1.023718
C89   C     C_2   0.294908 0.524220 0.420427 1.023574
C90   C     C_R   0.512205 0.228065 0.538401 0.317225
C91   C     C_2   0.523902 0.705081 0.420356 1.023799
C92   C     C_2   0.704931 0.519013 0.580971 1.016245
C93   C     C_2   0.475971 0.705094 0.579641 1.023392
C94   C     C_2   0.294919 0.475830 0.579554 1.023602
C95   C     C_2   0.524998 0.294945 0.579288 1.023246
C96   C     C_R   0.228053 0.488242 0.538535 0.316989
C97   C     C_R   0.000011 0.580633 0.000021 0.929548
C98   C     C_R   0.488258 0.771954 0.538575 0.317105
C99   C     C_R   0.771949 0.487250 0.461592 0.317574
C100  C     C_R   0.511623 0.771947 0.461419 0.316837
C101  C     C_R   0.228047 0.511827 0.461455 0.317031
C102  C     C_R   0.487904 0.228036 0.461564 0.317052
C103  C     C_R   0.293422 0.999948 0.000015 -0.088237
C104  C     C_R   0.001034 0.706614 0.999798 -0.089374
C105  C     C_R   0.706577 0.000055 0.000002 -0.088178
C106  C     C_R   0.999964 0.293423 0.000004 -0.088204
C107  C     C_R   0.793386 0.498966 0.500202 -0.089374
C108  C     C_R   0.580626 0.000008 0.000000 0.929529
C109  C     C_R   0.500052 0.206577 0.499985 -0.088237
C110  C     C_R   0.206577 0.500036 0.499996 -0.088204
C111  C     C_R   0.499945 0.793423 0.499997 -0.088177
C112  C     C_1   0.161783 0.999968 0.000018 0.113170
C113  C     C_1   0.002095 0.838218 0.999603 0.109226
C114  C     C_1   0.838216 0.000038 0.999992 0.112008
C115  C     C_1   0.999986 0.161783 0.000013 0.112832
C116  C     C_1   0.661782 0.497905 0.500397 0.109226
C117  C     C_1   0.500032 0.338217 0.499982 0.113170
C118  C     C_1   0.338217 0.500014 0.499987 0.112832
C119  C     C_R   0.999992 0.419374 1.000000 0.929537
C120  C     C_1   0.499962 0.661783 0.500008 0.112006
C121  C     C_1   0.337975 0.999960 0.000008 0.171264
C122  C     C_1   0.000398 0.662052 0.999942 0.171853
C123  C     C_1   0.662024 0.000041 0.000000 0.171327
C124  C     C_1   0.999967 0.337975 0.000003 0.171258
C125  C     C_1   0.837948 0.499602 0.500058 0.171853
C126  C     C_1   0.500040 0.162025 0.499992 0.171263
C127  C     C_1   0.162025 0.500033 0.499997 0.171258
C128  C     C_1   0.499958 0.837975 0.499999 0.171328
C129  C     C_1   0.375228 0.999974 0.000003 -0.023504
C130  C     C_R   0.919367 0.499989 0.499979 0.929549
C131  C     C_1   0.000092 0.624792 0.000001 -0.023659
C132  C     C_1   0.624772 0.000027 0.000000 -0.023485
C133  C     C_1   0.999976 0.375228 0.000002 -0.023573
C134  C     C_1   0.875208 0.499908 0.499999 -0.023659
C135  C     C_1   0.500026 0.124772 0.499997 -0.023504
C136  C     C_1   0.124772 0.500024 0.499998 -0.023573
C137  C     C_1   0.499973 0.875228 0.500000 -0.023484
C138  C     C_1   0.124511 0.999983 0.000012 -0.069428
C139  C     C_1   0.000955 0.875478 0.999903 -0.075130
C140  C     C_1   0.875488 0.000022 0.999990 -0.072369
C141  C     C_R   0.500008 0.080626 0.500001 0.929446
C142  C     C_1   0.999993 0.124511 0.000011 -0.070532
C143  C     C_1   0.624522 0.499045 0.500097 -0.075130
C144  C     C_1   0.500017 0.375489 0.499987 -0.069428
C145  C     C_1   0.375489 0.500006 0.499989 -0.070532
C146  C     C_1   0.499978 0.624512 0.500010 -0.072370
C147  C     C_R   0.000000 0.080344 0.000004 0.886102
C148  C     C_R   0.080344 0.999998 0.000004 0.888727
C149  C     C_R   0.000031 0.919649 0.999990 0.883714
C150  C     C_R   0.919656 0.000004 0.999996 0.881766
C151  C     C_R   0.499996 0.580344 0.500004 0.881763
C152  C     C_R   0.080626 0.500008 0.500000 0.929536
C153  C     C_R   0.580351 0.499969 0.500010 0.883713
C154  C     C_R   0.500002 0.419656 0.499996 0.888728
C155  C     C_R   0.419656 0.499999 0.499996 0.886102
C156  C     C_R   0.500000 0.000004 0.086767 0.993495
C157  C     C_R   0.000004 0.499999 0.086767 0.993551
C158  C     C_R   0.500000 0.999996 0.913233 0.993497
C159  C     C_R   0.999997 0.499999 0.913233 0.993652
C160  C     C_R   0.000001 0.500003 0.586767 0.993652
C161  C     C_R   0.500004 1.000000 0.586767 0.993497
C162  C     C_R   0.000000 0.499996 0.413233 0.993552
C163  C     C_R   0.499992 0.919374 0.500000 0.929531
C164  C     C_R   0.499996 1.000000 0.413233 0.993496
C165  C     C_R   0.479255 0.031787 0.342959 0.359236
C166  C     C_R   0.031810 0.520730 0.342969 0.359277
C167  C     C_R   0.520720 0.968210 0.342952 0.359328
C168  C     C_R   0.968218 0.479235 0.342943 0.359299
C169  C     C_R   0.479271 0.968190 0.657031 0.359364
C170  C     C_R   0.031793 0.479279 0.657047 0.359201
C171  C     C_R   0.520765 0.031782 0.657057 0.359193
C172  C     C_R   0.968213 0.520738 0.657042 0.359120
C173  C     C_R   0.979261 0.531787 0.842958 0.359120
C174  C     C_R   0.271964 0.012093 0.038437 0.317052
C175  C     C_R   0.531810 0.020729 0.842969 0.359361
C176  C     C_R   0.020721 0.468207 0.842952 0.359201
C177  C     C_R   0.468218 0.979235 0.842943 0.359193
C178  C     C_R   0.979270 0.468190 0.157031 0.359277
C179  C     C_R   0.531790 0.979280 0.157048 0.359325
C180  C     C_R   0.020765 0.531782 0.157057 0.359300
C181  C     C_R   0.468212 0.020745 0.157041 0.359238
C182  C     C_R   0.499989 0.999998 0.365470 -0.269401
C183  C     C_R   0.000009 0.499987 0.365470 -0.269401
C184  C     C_R   0.500013 0.999991 0.634529 -0.269378
Cl1   Cl    Cl    0.466498 0.077598 0.373189 -0.443407
Cl2   Cl    Cl    0.577622 0.033507 0.873209 -0.443273
Cl3   Cl    Cl    0.033472 0.422392 0.873165 -0.443526
Cl4   Cl    Cl    0.422398 0.966457 0.873147 -0.443422
Cl5   Cl    Cl    0.966492 0.422378 0.126791 -0.443437
Cl6   Cl    Cl    0.577605 0.966528 0.126837 -0.443412
Cl7   Cl    Cl    0.033544 0.577601 0.126853 -0.443455
Cl8   Cl    Cl    0.422402 0.033503 0.126811 -0.443406
Cl9   Cl    Cl    0.595729 0.919436 0.299575 -0.331836
Cl10  Cl    Cl    0.919429 0.404197 0.299532 -0.331632
Cl11  Cl    Cl    0.404251 0.080567 0.299566 -0.331368
Cl12  Cl    Cl    0.077622 0.533508 0.373209 -0.443437
Cl13  Cl    Cl    0.080631 0.595746 0.299606 -0.331608
Cl14  Cl    Cl    0.595803 0.080571 0.700467 -0.331114
Cl15  Cl    Cl    0.919434 0.595742 0.700432 -0.330385
Cl16  Cl    Cl    0.404255 0.919367 0.700393 -0.331650
Cl17  Cl    Cl    0.080570 0.404271 0.700424 -0.331676
Cl18  Cl    Cl    0.095729 0.419430 0.799576 -0.331675
Cl19  Cl    Cl    0.419429 0.904197 0.799533 -0.331116
Cl20  Cl    Cl    0.904258 0.580566 0.799568 -0.330384
Cl21  Cl    Cl    0.580632 0.095745 0.799606 -0.331644
Cl22  Cl    Cl    0.095803 0.580571 0.200467 -0.331631
Cl23  Cl    Cl    0.533471 0.922395 0.373163 -0.443411
Cl24  Cl    Cl    0.419434 0.095749 0.200434 -0.331370
Cl25  Cl    Cl    0.904253 0.419369 0.200393 -0.331608
Cl26  Cl    Cl    0.580563 0.904271 0.200425 -0.331831
Cl27  Cl    Cl    0.300397 0.970780 0.914561 -0.409793
Cl28  Cl    Cl    0.978368 0.699597 0.912147 -0.411172
Cl29  Cl    Cl    0.699562 0.028218 0.914179 -0.409999
Cl30  Cl    Cl    0.028340 0.300424 0.914259 -0.410375
Cl31  Cl    Cl    0.300462 0.029107 0.085472 -0.410001
Cl32  Cl    Cl    0.971584 0.300435 0.085746 -0.410214
Cl33  Cl    Cl    0.699577 0.971903 0.085831 -0.410661
Cl34  Cl    Cl    0.922399 0.466456 0.373147 -0.443455
Cl35  Cl    Cl    0.027719 0.699455 0.086139 -0.409341
Cl36  Cl    Cl    0.800545 0.472283 0.413860 -0.409342
Cl37  Cl    Cl    0.470886 0.199538 0.414531 -0.409999
Cl38  Cl    Cl    0.199565 0.528415 0.414253 -0.410214
Cl39  Cl    Cl    0.528073 0.800422 0.414160 -0.410665
Cl40  Cl    Cl    0.800403 0.521629 0.587853 -0.411172
Cl41  Cl    Cl    0.471806 0.800438 0.585830 -0.410004
Cl42  Cl    Cl    0.199576 0.471662 0.585741 -0.410375
Cl43  Cl    Cl    0.529227 0.199603 0.585437 -0.409791
Cl44  Cl    Cl    0.466494 0.922378 0.626791 -0.443273
Cl45  Cl    Cl    0.077607 0.466528 0.626835 -0.443527
Cl46  Cl    Cl    0.533542 0.077602 0.626853 -0.443422
Cl47  Cl    Cl    0.922398 0.533486 0.626816 -0.443304
Cl48  Cl    Cl    0.966514 0.577602 0.873184 -0.443305
H1    H     H_    0.158545 0.940842 0.894169 0.367502
H2    H     H_    0.440943 0.341344 0.394110 0.366142
H3    H     H_    0.341408 0.558128 0.393529 0.366167
H4    H     H_    0.557742 0.658607 0.393343 0.365656
H5    H     H_    0.658520 0.504643 0.623414 0.365243
H6    H     H_    0.442134 0.658595 0.606644 0.366169
H7    H     H_    0.341391 0.441905 0.606449 0.366109
H8    H     H_    0.559167 0.341455 0.605825 0.367503
H9    H     H_    0.995354 0.841480 0.876586 0.365243
H10   H     H_    0.841405 0.057896 0.893375 0.366170
H11   H     H_    0.058097 0.158609 0.893552 0.366109
H12   H     H_    0.158655 0.059048 0.105896 0.366142
H13   H     H_    0.941870 0.158591 0.106470 0.366166
H14   H     H_    0.841393 0.942228 0.106638 0.365656
H15   H     H_    0.060447 0.841345 0.106037 0.365640
H16   H     H_    0.658655 0.439555 0.393962 0.365640
O1    O     O_R   0.439020 0.965540 0.000010 -0.597396
O2    O     O_R   0.465540 0.060980 0.500010 -0.597439
O3    O     O_R   0.060980 0.534460 0.500010 -0.597548
O4    O     O_R   0.534460 0.939020 0.500010 -0.597412
O5    O     O_R   0.939020 0.534460 0.499990 -0.597463
O6    O     O_R   0.465540 0.939020 0.499990 -0.597512
O7    O     O_R   0.060980 0.465540 0.499990 -0.597412
O8    O     O_R   0.534460 0.060980 0.499990 -0.597396
O9    O     O_R   0.500030 0.965530 0.066070 -0.590224
O10   O     O_R   0.965530 0.499970 0.066070 -0.590218
O11   O     O_R   0.499970 0.034470 0.066070 -0.590194
O12   O     O_R   0.965540 0.560980 0.000010 -0.597463
O13   O     O_R   0.034470 0.500030 0.066070 -0.590247
O14   O     O_R   0.500030 0.034470 0.933930 -0.590307
O15   O     O_R   0.965530 0.500030 0.933930 -0.590330
O16   O     O_R   0.499970 0.965530 0.933930 -0.590100
O17   O     O_R   0.034470 0.499970 0.933930 -0.590155
O18   O     O_R   0.000030 0.465530 0.566070 -0.590155
O19   O     O_R   0.465530 0.999970 0.566070 -0.590308
O20   O     O_R   0.999970 0.534470 0.566070 -0.590330
O21   O     O_R   0.534470 0.000030 0.566070 -0.590099
O22   O     O_R   0.000030 0.534470 0.433930 -0.590218
O23   O     O_R   0.560980 0.034460 0.000010 -0.597512
O24   O     O_R   0.465530 0.000030 0.433930 -0.590192
O25   O     O_R   0.999970 0.465530 0.433930 -0.590247
O26   O     O_R   0.534470 0.999970 0.433930 -0.590225
O27   O     O_R   0.000010 0.060910 0.037350 -0.601808
O28   O     O_R   0.060910 0.999990 0.037350 -0.601897
O29   O     O_R   0.999990 0.939090 0.037350 -0.603515
O30   O     O_R   0.939090 0.000010 0.037350 -0.601852
O31   O     O_R   0.000010 0.939090 0.962650 -0.596933
O32   O     O_R   0.060910 0.000010 0.962650 -0.600434
O33   O     O_R   0.999990 0.060910 0.962650 -0.601960
O34   O     O_R   0.034460 0.439020 0.000010 -0.597412
O35   O     O_R   0.939090 0.999990 0.962650 -0.603391
O36   O     O_R   0.500010 0.560910 0.537350 -0.603390
O37   O     O_R   0.560910 0.499990 0.537350 -0.596934
O38   O     O_R   0.499990 0.439090 0.537350 -0.600434
O39   O     O_R   0.439090 0.500010 0.537350 -0.601959
O40   O     O_R   0.500010 0.439090 0.462650 -0.601898
O41   O     O_R   0.560910 0.500010 0.462650 -0.603515
O42   O     O_R   0.499990 0.560910 0.462650 -0.601851
O43   O     O_R   0.439090 0.499990 0.462650 -0.601808
O44   O     O_2   0.214896 0.989132 0.884541 -0.517470
O45   O     O_R   0.439020 0.034460 0.999990 -0.597439
O46   O     O_R   0.171883 0.946940 0.923947 -0.780555
O47   O     O_2   0.949910 0.785590 0.897853 -0.516434
O48   O     O_R   0.006128 0.828008 0.904741 -0.774303
O49   O     O_2   0.785045 0.009501 0.884387 -0.517083
O50   O     O_R   0.828083 0.052153 0.923232 -0.783523
O51   O     O_2   0.009702 0.214907 0.884425 -0.517456
O52   O     O_R   0.052278 0.171940 0.923392 -0.783969
O53   O     O_2   0.214959 0.010742 0.115501 -0.517053
O54   O     O_R   0.171973 0.052956 0.076114 -0.784296
O55   O     O_2   0.990240 0.214954 0.115593 -0.517383
O56   O     O_R   0.965540 0.439020 0.999990 -0.597548
O57   O     O_R   0.947686 0.171914 0.076629 -0.783851
O58   O     O_2   0.785090 0.990642 0.115612 -0.517243
O59   O     O_R   0.828063 0.947963 0.076780 -0.786708
O60   O     O_2   0.011580 0.785405 0.115012 -0.519528
O61   O     O_R   0.054755 0.827920 0.076212 -0.776965
O62   O     O_2   0.714595 0.488423 0.384987 -0.519528
O63   O     O_R   0.672080 0.445246 0.423786 -0.776964
O64   O     O_2   0.489249 0.285041 0.384500 -0.517052
O65   O     O_R   0.447038 0.328027 0.423890 -0.784297
O66   O     O_2   0.285046 0.509758 0.384407 -0.517382
O67   O     O_R   0.560980 0.965540 0.999990 -0.597411
O68   O     O_R   0.328085 0.552313 0.423370 -0.783852
O69   O     O_2   0.509325 0.714910 0.384385 -0.517246
O70   O     O_R   0.552015 0.671937 0.423203 -0.786702
O71   O     O_2   0.714410 0.550087 0.602148 -0.516433
O72   O     O_R   0.671992 0.493869 0.595259 -0.774302
O73   O     O_2   0.490531 0.714955 0.615617 -0.517086
O74   O     O_R   0.447869 0.671917 0.576785 -0.783518
O75   O     O_2   0.285093 0.490299 0.615575 -0.517455
O76   O     O_R   0.328060 0.447723 0.576609 -0.783968
O77   O     O_2   0.510877 0.285104 0.615458 -0.517468
O78   O     O_R   0.034460 0.560980 0.999990 -0.597494
O79   O     O_R   0.553066 0.328117 0.576048 -0.780555
O80   O     O_R   0.939020 0.465540 0.500010 -0.597494
Zn1   Zn    Zn3+2 0.500000 0.953990 0.000000 1.145139
Zn2   Zn    Zn3+2 1.000000 0.000000 0.950190 1.072392
Zn3   Zn    Zn3+2 0.500000 0.500000 0.549810 1.072392
Zn4   Zn    Zn3+2 0.500000 0.500000 0.450190 1.069890
Zn5   Zn    Zn3+2 0.953990 0.500000 0.000000 1.144656
Zn6   Zn    Zn3+2 0.500000 0.046010 0.000000 1.144834
Zn7   Zn    Zn3+2 0.046010 0.500000 0.000000 1.144867
Zn8   Zn    Zn3+2 1.000000 0.453990 0.500000 1.144867
Zn9   Zn    Zn3+2 0.453990 0.000000 0.500000 1.144833
Zn10  Zn    Zn3+2 1.000000 0.546010 0.500000 1.144656
Zn11  Zn    Zn3+2 0.546010 0.000000 0.500000 1.145138
Zn12  Zn    Zn3+2 0.000000 0.000000 0.049810 1.069890

loop_
_geom_bond_atom_site_label_1
_geom_bond_atom_site_label_2
_ccdc_geom_bond_type
C157  O13   A    
C120  C146  T    
C8    C26   A    
C64   C77   A    
C75   C117  S    
C79   Cl40  S    
C19   C30   A    
C124  C133  T    
C39   C47   A    
C22   C181  A    
C1    C129  S    
C84   O57   S    
C162  O25   A    
C82   O52   S    
C20   C175  A    
C63   C76   A    
C170  Cl45  S    
C105  C123  S    
C174  Cl31  S    
C53   C68   A    
O29   Zn12  S    
C26   C33   A    
C80   O48   S    
C18   C177  A    
H11   O52   S    
C46   C55   A    
H6    O74   S    
C44   Cl19  S    
O4    Zn11  S    
C85   O59   S    
C21   C48   A    
H14   O59   S    
C86   O60   D    
C27   C32   A    
C171  Cl46  S    
C17   C30   A    
C130  C134  S    
C41   Cl16  S    
C136  C152  S    
C87   O63   S    
C88   O64   D    
C47   Cl21  S    
C112  C138  T    
C127  C136  T    
C97   C131  S    
C178  Cl5   S    
C60   C86   S    
C101  C110  A    
C62   C88   S    
C76   C118  S    
C56   C174  A    
C96   Cl42  S    
C163  O6    A    
C17   C43   A    
C18   C44   A    
C2    C104  A    
C53   C80   S    
O26   Zn11  S    
O20   Zn10  S    
C107  C125  S    
C70   C112  S    
C22   C49   A    
C39   Cl14  S    
C158  O16   A    
C4    C173  A    
C153  O37   A    
C62   C75   A    
C53   C71   A    
C36   C50   A    
C56   C83   S    
C95   O79   S    
H15   O61   S    
C66   C77   A    
C108  O23   A    
C69   C95   S    
O5    Zn10  S    
O37   Zn3   S    
C40   Cl15  S    
C61   C74   A    
C108  O67   A    
O34   Zn7   S    
O9    Zn1   S    
C161  C184  S    
O1    Zn1   S    
C162  C183  S    
O10   Zn5   S    
C175  Cl2   S    
H4    O70   S    
C94   O76   S    
O16   Zn1   S    
C150  O35   A    
C144  C154  S    
C36   Cl10  S    
C20   C47   A    
O14   Zn6   S    
C167  C182  A    
C99   Cl36  S    
C100  C111  A    
C5    C158  S    
C106  C124  S    
C102  C109  A    
C18   C31   A    
C64   C91   S    
O11   Zn6   S    
H3    O68   S    
C54   C81   S    
C147  O27   A    
C101  Cl38  S    
O7    Zn8   S    
C160  O18   A    
C65   C79   A    
C123  C132  T    
H9    O48   S    
C25   C51   A    
O19   Zn9   S    
C71   C113  S    
C34   C51   A    
C177  Cl4   S    
C37   Cl11  S    
C163  O4    A    
C166  Cl12  S    
C58   C84   S    
C91   O70   S    
C1    O1    A    
O23   Zn6   S    
C104  C122  S    
C84   O55   D    
H1    O46   S    
C88   O65   S    
C61   C87   S    
C7    C156  S    
C92   O72   S    
C138  C148  S    
C158  O14   A    
C9    C36   A    
C113  C139  T    
C154  O40   A    
C114  C140  T    
C119  O56   A    
O35   Zn2   S    
C38   C48   A    
C95   O77   D    
H13   O57   S    
C83   O53   D    
C38   Cl13  S    
C7    C181  A    
C117  C144  T    
C50   Cl25  S    
C137  C163  S    
C100  Cl39  S    
C103  C174  A    
C65   C74   A    
C59   C85   S    
C169  C184  A    
C29   C30   A    
C67   C94   S    
O41   Zn4   S    
C49   Cl24  S    
C168  C183  A    
C63   C89   S    
C169  Cl44  S    
C8    C34   A    
C66   C93   S    
C130  O80   A    
C57   Cl29  S    
C160  O20   A    
C24   C106  A    
C14   C29   A    
O27   Zn12  S    
C68   Cl28  S    
O3    Zn10  S    
C122  C131  T    
C156  O9    A    
C6    C180  A    
C141  O8    A    
C142  C147  S    
C9    C168  A    
C180  Cl7   S    
C19   C45   A    
C13   C59   A    
O45   Zn6   S    
C1    O45   A    
C151  O42   A    
C66   C98   A    
C81   O50   S    
C24   Cl32  S    
O32   Zn2   S    
C67   C96   A    
C161  O19   A    
C46   C106  A    
C154  O38   A    
C149  O31   A    
C93   O73   D    
C108  C132  S    
C146  C151  S    
C55   C73   A    
C109  C126  S    
C135  C141  S    
C159  O15   A    
C111  C128  S    
C90   C109  A    
C97   O12   A    
C25   C33   A    
C85   O58   D    
C62   C102  A    
C54   C57   A    
C125  C134  T    
C86   O61   S    
C16   C42   A    
C77   C120  S    
C12   C28   A    
C165  C182  A    
C164  O26   A    
C35   C103  A    
C2    C60   A    
C3    C172  A    
C143  C153  S    
C4    C159  S    
C72   C114  S    
O33   Zn2   S    
C153  O41   A    
O13   Zn7   S    
O67   Zn1   S    
H12   O54   S    
C59   C72   A    
O15   Zn5   S    
C98   Cl41  S    
C115  C142  T    
C6    C178  A    
C141  O2    A    
C5    C175  A    
C52   C78   S    
C172  Cl47  S    
C12   C171  A    
C118  C145  T    
C40   C45   A    
H16   O63   S    
C90   Cl43  S    
C15   C41   A    
C13   C105  A    
O18   Zn8   S    
C82   O51   D    
C23   C50   A    
C60   C71   A    
C161  O21   A    
C96   C110  A    
C139  C149  S    
C148  O32   A    
O56   Zn5   S    
C11   C38   A    
C19   C173  A    
C173  Cl48  S    
C37   C49   A    
C171  C184  A    
C80   O47   D    
C43   Cl18  S    
C79   C107  A    
C156  O11   A    
C34   Cl9   S    
C126  C135  T    
O28   Zn12  S    
C2    Cl35  S    
C41   C44   A    
C42   C43   A    
O31   Zn2   S    
C9    C27   A    
C176  Cl3   S    
O78   Zn7   S    
C28   C31   A    
C166  C183  A    
C68   C104  A    
H2    O65   S    
C121  C129  T    
O6    Zn9   S    
O40   Zn4   S    
C152  O7    A    
C25   C179  A    
C3    C170  A    
C99   C107  A    
C73   C115  S    
H7    O76   S    
C23   C32   A    
C12   C39   A    
O80   Zn8   S    
C91   O69   D    
C51   Cl26  S    
C15   C28   A    
C45   Cl20  S    
C181  Cl8   S    
C69   C75   A    
C164  C182  S    
C130  O5    A    
C16   C170  A    
C64   C100  A    
C24   C58   A    
C4    C176  A    
C35   C52   A    
C13   Cl33  S    
C151  O36   A    
O36   Zn3   S    
C97   O78   A    
C102  Cl37  S    
O30   Zn12  S    
C65   C92   S    
C57   C105  A    
C63   C101  A    
C149  O29   A    
C119  C133  S    
C10   C37   A    
C8    C167  A    
C147  O33   A    
C78   O46   S    
H5    O72   S    
C94   O75   D    
C15   C169  A    
O17   Zn7   S    
C35   Cl27  S    
C23   C178  A    
C21   C180  A    
C46   Cl30  S    
C11   C166  A    
C11   C27   A    
C89   O66   D    
H8    O79   S    
C93   O74   S    
C17   C176  A    
C110  C127  S    
C10   C26   A    
C87   O62   D    
C164  O24   A    
C61   C99   A    
C119  O34   A    
C21   C32   A    
O43   Zn4   S    
C14   C172  A    
C16   C29   A    
O25   Zn8   S    
C165  Cl1   S    
C167  Cl23  S    
C128  C137  T    
C150  O30   A    
C81   O49   D    
C116  C143  T    
O39   Zn3   S    
C157  O10   A    
C92   O71   D    
C74   C116  S    
C148  O28   A    
O2    Zn9   S    
C7    C179  A    
C55   C82   S    
C5    C177  A    
C56   C70   A    
O8    Zn11  S    
C3    C160  S    
O22   Zn10  S    
C155  O39   A    
C69   C90   A    
C140  C150  S    
C6    C157  S    
C83   O54   S    
H10   O50   S    
C22   C33   A    
C162  O22   A    
C98   C111  A    
C155  O43   A    
C78   O44   D    
C159  O17   A    
O21   Zn11  S    
O12   Zn5   S    
O38   Zn3   S    
C179  Cl6   S    
C10   C165  A    
O24   Zn9   S    
C89   O68   S    
C52   C70   A    
C14   C40   A    
C145  C155  S    
C54   C72   A    
C48   Cl22  S    
C42   Cl17  S    
C67   C76   A    
C168  Cl34  S    
C152  O3    A    
C58   C73   A    
O42   Zn4   S    
C20   C31   A    
C103  C121  S    
