data_mof_unit_54940.cif
_audit_creation_date              2012-12-10T16:48:50-0500
_audit_creation_method            fapswitch 2.2
_symmetry_space_group_name_H-M    P1
_symmetry_Int_Tables_number       1
_space_group_crystal_system       triclinic
_cell_length_a                    17.344971
_cell_length_b                    8.684111
_cell_length_c                    7.443984
_cell_angle_alpha                 102.958232
_cell_angle_beta                  89.859241
_cell_angle_gamma                 93.074296
_cell_volume                      1091.07550312

loop_
_atom_site_label
_atom_site_type_symbol
_atom_type_description
_atom_site_fract_x
_atom_site_fract_y
_atom_site_fract_z
_atom_type_partial_charge
C1    C     C_R   0.497653 0.199771 0.453633 0.880446
C2    C     C_R   0.502347 0.800229 0.546366 0.880449
C3    C     C_2   0.496612 0.031872 0.427512 -0.337228
C4    C     C_2   0.503388 0.968128 0.572488 -0.337298
C5    C     C_R   0.351742 0.505775 0.527263 0.832432
C6    C     C_R   0.648259 0.494206 0.472735 0.832423
C7    C     C_R   0.268547 0.514781 0.545594 -0.236262
C8    C     C_R   0.731454 0.485158 0.454423 -0.236312
C9    C     C_R   0.222154 0.401438 0.422851 0.622706
C10   C     C_R   0.777848 0.598424 0.577270 0.622741
C11   C     C_R   0.143114 0.414231 0.418172 -0.197437
C12   C     C_R   0.856879 0.585538 0.582063 -0.197463
C13   C     C_R   0.108743 0.538864 0.538607 0.032305
C14   C     C_R   0.891248 0.460912 0.461614 0.032257
C15   C     C_R   0.154431 0.650675 0.664067 -0.115802
C16   C     C_R   0.845565 0.349178 0.336053 -0.115725
C17   C     C_R   0.234779 0.641284 0.668926 -0.101268
C18   C     C_R   0.765220 0.358639 0.331100 -0.101247
C19   C     C_2   0.025726 0.560526 0.529867 -0.158486
C20   C     C_2   0.974259 0.439215 0.470405 -0.158500
Cu1   Cu    Cu3+1 0.508700 0.517250 0.683000 1.005473
Cu2   Cu    Cu3+1 0.491300 0.482750 0.317000 1.005451
H1    H     H_    0.992905 0.319466 0.425776 0.153265
H2    H     H_    0.007076 0.680274 0.574485 0.153261
H3    H     H_    0.127202 0.747742 0.754804 0.186159
H4    H     H_    0.872796 0.252122 0.245296 0.186192
H5    H     H_    0.890183 0.670520 0.685089 0.165248
H6    H     H_    0.109806 0.329174 0.315236 0.165232
H7    H     H_    0.490268 0.960376 0.287771 0.185197
H8    H     H_    0.509732 0.039624 0.712229 0.185184
H9    H     H_    0.439324 0.379335 0.958405 0.243845
H10   H     H_    0.560676 0.620665 0.041595 0.243857
N1    N     N_2   0.478180 0.456750 0.041980 -0.216860
N2    N     N_2   0.521820 0.543250 0.958020 -0.216852
O1    O     O_R   0.505650 0.286040 0.618880 -0.591383
O2    O     O_R   0.494350 0.713960 0.381120 -0.591357
O3    O     O_R   0.490960 0.256910 0.309800 -0.579458
O4    O     O_R   0.509040 0.743090 0.690200 -0.579435
O5    O     O_R   0.394600 0.516230 0.672450 -0.613655
O6    O     O_R   0.605400 0.483770 0.327550 -0.613703
O7    O     O_R   0.379910 0.487100 0.363380 -0.525590
O8    O     O_R   0.620090 0.512900 0.636620 -0.525564
F1    F     F_    0.253829 0.279680 0.303571 -0.633529
F2    F     F_    0.746179 0.720184 0.696560 -0.633504
C21   C     C_2   0.718024 0.230552 0.206145 0.423971
H11   H     H_    0.655834 0.220755 0.218273 0.078400
O9    O     O_2   0.748431 0.132162 0.087885 -0.502498
C22   C     C_2   0.281975 0.769418 0.793803 0.424204
H12   H     H_    0.344151 0.779423 0.781367 0.078209
O10   O     O_2   0.251588 0.867604 0.912340 -0.502494

loop_
_geom_bond_atom_site_label_1
_geom_bond_atom_site_label_2
_ccdc_geom_bond_type
C2    C4    S    
C20   H1    S    
C15   C17   A    
Cu1   O1    S    
C14   C20   S    
C8    C18   A    
C11   C13   A    
C2    O4    A    
C19   C20   D    
Cu1   O5    S    
C17   C22   S    
C1    O3    A    
Cu2   O6    S    
C22   O10   D    
N1    N2    D    
Cu1   Cu2   S    
C9    C11   A    
C3    H7    S    
C10   C12   A    
C11   H6    S    
C8    C10   A    
C22   H12   S    
C12   C14   A    
C19   H2    S    
C6    O6    A    
C5    O5    A    
C13   C15   A    
C16   H4    S    
C14   C16   A    
C9    F1    S    
Cu2   O7    S    
C15   H3    S    
H9    N1    S    
C13   C19   S    
C12   H5    S    
C10   F2    S    
Cu1   O8    S    
C18   C21   S    
C7    C9    A    
Cu2   O2    S    
C1    O1    A    
C16   C18   A    
C6    O8    A    
C21   O9    D    
C2    O2    A    
C5    C7    S    
Cu2   N1    S    
C5    O7    A    
C6    C8    S    
Cu1   N2    S    
C1    C3    S    
C21   H11   S    
Cu2   O3    S    
C4    H8    S    
Cu1   O4    S    
C3    C4    D    
C7    C17   A    
H10   N2    S    
