data_mof_unit_39169.cif
_audit_creation_date              2012-12-11T15:52:33-0500
_audit_creation_method            fapswitch 2.2
_symmetry_space_group_name_H-M    P1
_symmetry_Int_Tables_number       1
_space_group_crystal_system       triclinic
_cell_length_a                    6.92667
_cell_length_b                    14.560894
_cell_length_c                    16.025509
_cell_angle_alpha                 90.206252
_cell_angle_beta                  89.954177
_cell_angle_gamma                 89.897592
_cell_volume                      1616.29534257

loop_
_atom_site_label
_atom_site_type_symbol
_atom_type_description
_atom_site_fract_x
_atom_site_fract_y
_atom_site_fract_z
_atom_type_partial_charge
O1    O     O_R   0.494400 0.415640 0.412830 -0.513674
O2    O     O_R   0.823920 0.405510 0.586560 -0.507398
O3    O     O_R   0.994250 0.584360 0.587170 -0.489955
C1    C     C_R   0.655203 0.383506 0.615702 0.754574
O4    O     O_R   0.824110 0.404610 0.413450 -0.548605
O5    O     O_R   0.994440 0.583460 0.412820 -0.545063
C2    C     C_R   0.655176 0.383097 0.383718 0.736285
O6    O     O_R   0.494210 0.416540 0.587180 -0.552009
O7    O     O_3   0.660810 0.558680 0.500000 -0.358442
V1    V     V_3+5 0.935650 0.489110 0.500000 1.613308
O8    O     O_R   0.324150 0.594490 0.413440 -0.546750
C3    C     C_R   0.155065 0.616614 0.384323 0.718735
O9    O     O_R   0.323970 0.595390 0.586550 -0.541070
C4    C     C_R   0.154131 0.618559 0.614884 0.762062
V2    V     V_3+5 0.435660 0.510890 0.500000 1.568839
O10   O     O_3   0.160630 0.441320 0.500000 -0.369748
C5    C     C_3   0.924722 0.717264 0.704057 0.892746
C6    C     C_3   0.915355 0.786261 0.777867 -0.335085
H1    H     H_    0.826674 0.756775 0.829083 0.209554
H2    H     H_    0.840697 0.850560 0.758679 0.134706
H3    H     H_    0.205739 0.807508 0.604763 0.192996
H4    H     H_    0.164361 0.912087 0.711629 0.173352
C7    C     C_3   0.255828 0.777279 0.664560 -0.390556
C8    C     C_3   0.226769 0.648223 0.766733 -0.352902
C9    C     C_3   0.139835 0.688974 0.685404 -0.099278
H5    H     H_    0.378794 0.626507 0.755513 0.185043
H6    H     H_    0.145846 0.585223 0.784180 0.236965
C10   C     C_3   0.120659 0.810153 0.810666 -0.076825
C11   C     C_3   0.237125 0.849406 0.735818 -0.425779
C12   C     C_3   0.222517 0.719928 0.839139 0.255916
H7    H     H_    0.374009 0.736301 0.856850 0.125666
H8    H     H_    0.410562 0.759482 0.656011 0.237491
H9    H     H_    0.384121 0.870203 0.756472 0.172088
C13   C     C_R   0.953269 0.773745 0.215828 -0.122464
H10   H     H_    0.812424 0.792168 0.191812 0.118969
C14   C     C_R   0.964261 0.710630 0.281448 -0.115098
H11   H     H_    0.831356 0.682234 0.305771 0.120975
C15   C     C_R   0.143937 0.684503 0.315047 -0.040802
C16   C     C_R   0.312312 0.723231 0.281045 -0.124116
H12   H     H_    0.453160 0.704796 0.305051 0.118497
C17   C     C_R   0.301316 0.786352 0.215430 -0.125522
H13   H     H_    0.434221 0.814744 0.191105 0.116692
C18   C     C_R   0.121630 0.812554 0.181891 -0.037536
C19   C     C_R   0.811051 0.289458 0.729720 0.637718
C20   C     C_R   0.799023 0.224301 0.793465 -0.206997
H14   H     H_    0.929252 0.206517 0.827160 0.154753
C21   C     C_R   0.621538 0.183599 0.814316 -0.136230
C22   C     C_R   0.455794 0.209533 0.769638 -0.113808
H15   H     H_    0.316857 0.179289 0.783745 0.145040
C23   C     C_R   0.467770 0.273972 0.705237 -0.197745
H16   H     H_    0.337827 0.291225 0.671281 0.207548
C24   C     C_R   0.645215 0.314826 0.684223 -0.183038
C25   C     C_R   0.797674 0.256750 0.295343 -0.179903
H17   H     H_    0.927632 0.258359 0.332859 0.179125
C26   C     C_R   0.785141 0.193029 0.229902 -0.150571
H18   H     H_    0.905933 0.147092 0.219340 0.172494
C27   C     C_R   0.618840 0.187419 0.179583 -0.220396
C28   C     C_R   0.464962 0.249436 0.195898 0.306175
C29   C     C_R   0.477504 0.312302 0.262302 0.594535
C30   C     C_R   0.643342 0.316327 0.313181 -0.232029
O11   O     O_R   0.771300 0.080930 0.910090 -0.547867
O12   O     O_R   0.441270 0.092800 0.083770 -0.513929
O13   O     O_R   0.271080 0.913920 0.084380 -0.544957
C31   C     C_R   0.609813 0.116815 0.111701 0.773514
O14   O     O_R   0.441580 0.091910 0.910670 -0.541594
O15   O     O_R   0.271390 0.913020 0.910040 -0.550289
C32   C     C_R   0.610556 0.114362 0.882034 0.723064
O16   O     O_R   0.770990 0.081830 0.084440 -0.539497
O17   O     O_3   0.604750 0.938760 0.997250 -0.378349
V3    V     V_3+5 0.329850 0.008280 0.997210 1.503923
O18   O     O_R   0.941680 0.901940 0.910610 -0.540538
C33   C     C_R   0.110578 0.880271 0.881237 0.743637
O19   O     O_R   0.941370 0.902830 0.083720 -0.544173
C34   C     C_R   0.110474 0.880623 0.112764 0.718902
V4    V     V_3+5 0.829860 0.986420 0.997150 1.472440
O20   O     O_3   0.104830 0.056030 0.997180 -0.351831
Cl1   Cl    Cl    0.811873 0.767602 0.613952 -0.722413
F1    F     F_    0.984775 0.328650 0.714029 -0.698679
F2    F     F_    0.818184 0.640137 0.725359 -0.671250
Cl2   Cl    Cl    0.256196 0.255246 0.132863 -0.552360
F3    F     F_    0.328226 0.371362 0.275371 -0.645895
Cl3   Cl    Cl    0.111565 0.671804 0.930301 -0.595310

loop_
_geom_bond_atom_site_label_1
_geom_bond_atom_site_label_2
_ccdc_geom_bond_type
C26   H18   S    
H4    C11   S    
O19   V4    S    
C17   H13   S    
C8    H6    S    
C1    O6    A    
C16   C17   A    
O15   V3    S    
C25   H17   S    
O11   V4    S    
O16   V4    S    
C1    C24   S    
C7    C11   S    
C10   C11   S    
C8    H5    S    
C6    H1    S    
O5    C3    A    
C12   H7    S    
O14   V3    S    
C11   H9    S    
C5    F2    S    
O12   V3    S    
C13   H10   S    
O19   C34   A    
C20   C21   A    
O12   C31   A    
O8    V2    S    
O15   C33   A    
O14   C32   A    
C23   C24   A    
O1    V2    S    
O7    V1    S    
C13   C14   A    
C28   Cl2   S    
C19   C24   A    
C18   C34   S    
C22   C23   A    
C29   C30   A    
O9    C4    A    
C17   C18   A    
C10   C33   S    
C21   C32   S    
C25   C30   A    
C23   H16   S    
C25   C26   A    
H3    C7    S    
C6    C10   S    
C8    C9    S    
C16   H12   S    
O4    C2    A    
C28   C29   A    
C20   H14   S    
C12   Cl3   S    
O2    C1    A    
V4    O20   S    
O11   C32   A    
C21   C22   A    
O13   V3    S    
C5    Cl1   S    
C5    C6    S    
C26   C27   A    
O3    C4    A    
C22   H15   S    
O6    V2    S    
O9    V2    S    
V3    O20   S    
C14   C15   A    
O2    V1    S    
C31   O16   A    
C2    C30   S    
C19   C20   A    
C27   C31   S    
C14   H11   S    
O1    C2    A    
C13   C18   A    
C29   F3    S    
O5    V1    S    
O8    C3    A    
O13   C34   A    
C5    C9    S    
C7    H8    S    
C10   C12   S    
O7    V2    S    
O18   C33   A    
O3    V1    S    
V1    O10   S    
O18   V4    S    
C27   C28   A    
C15   C16   A    
C19   F1    S    
O17   V4    S    
C6    H2    S    
C7    C9    S    
C4    C9    S    
C3    C15   S    
O17   V3    S    
C8    C12   S    
O4    V1    S    
V2    O10   S    
