data_mof_unit_47043.cif
_audit_creation_date              2013-03-05T16:54:29-0500
_audit_creation_method            fapswitch 2.2
_symmetry_space_group_name_H-M    P1
_symmetry_Int_Tables_number       1
_space_group_crystal_system       triclinic
_cell_length_a                    17.435265
_cell_length_b                    16.771249
_cell_length_c                    10.556436
_cell_angle_alpha                 92.048787
_cell_angle_beta                  90.887922
_cell_angle_gamma                 89.773102
_cell_volume                      3084.45820981

loop_
_atom_site_label
_atom_site_type_symbol
_atom_site_description
_atom_site_fract_x
_atom_site_fract_y
_atom_site_fract_z
_atom_type_partial_charge
O1    O     O_R   0.389110 0.566570 0.499990 -0.561726
O2    O     O_R   0.610890 0.566570 0.500010 -0.585255
O3    O     O_R   0.389090 0.433480 0.499980 -0.635243
O4    O     O_R   0.610910 0.433480 0.500020 -0.619541
C1    C     C_R   0.352932 0.500012 0.500039 0.994337
C2    C     C_R   0.647182 0.499738 0.499038 0.952022
O5    O     O_R   0.500000 0.566560 0.316760 -0.593004
O6    O     O_R   0.500000 0.566560 0.683240 -0.584883
O7    O     O_R   0.499970 0.433470 0.316760 -0.570075
O8    O     O_R   0.500030 0.433470 0.683240 -0.595960
C3    C     C_R   0.494704 0.498593 0.257658 1.022749
C4    C     C_R   0.515633 0.501602 0.737841 0.929295
Zn1   Zn    Zn3+2 0.500000 0.588860 0.500000 1.110266
Zn2   Zn    Zn3+2 0.500000 0.411140 0.500000 1.018903
C5    C     C_R   0.436794 0.633775 0.103844 0.239576
C6    C     C_R   0.539117 0.653735 0.904203 0.296070
C7    C     C_R   0.448538 0.710410 0.056362 0.150197
C8    C     C_R   0.503891 0.721080 0.962857 0.172156
C9    C     C_R   0.519375 0.576436 0.942985 -0.135613
C10   C     C_R   0.481340 0.568222 0.056360 -0.138200
C11   C     C_R   0.493688 0.495990 0.120368 -0.193549
C12   C     C_R   0.534967 0.505949 0.871692 -0.185106
C13   C     C_R   0.524775 0.427699 0.056214 0.361318
C14   C     C_R   0.548981 0.434661 0.931955 0.357202
C15   C     C_R   0.843325 0.561646 0.605620 -0.206079
C16   C     C_R   0.160480 0.550902 0.628158 -0.195940
H1    H     H_    0.870695 0.613594 0.650167 0.193208
H2    H     H_    0.136495 0.592345 0.698177 0.191559
C17   C     C_R   0.765810 0.563965 0.576580 -0.113006
C18   C     C_R   0.238162 0.552917 0.603660 -0.155517
H3    H     H_    0.733504 0.616851 0.604048 0.254239
H4    H     H_    0.273827 0.594043 0.658807 0.241887
C19   C     C_R   0.730367 0.498766 0.513368 -0.233739
C20   C     C_R   0.270102 0.499786 0.513556 -0.205947
C21   C     C_R   0.773585 0.430225 0.477596 0.181861
C22   C     C_R   0.223535 0.442623 0.448055 0.223293
C23   C     C_R   0.851000 0.425941 0.515854 0.416997
C24   C     C_R   0.144459 0.442375 0.470565 0.404075
C25   C     C_R   0.885489 0.493363 0.574796 -0.052863
C26   C     C_R   0.114211 0.495743 0.562382 -0.042341
C27   C     C_1   0.966225 0.496782 0.585132 0.036296
C28   C     C_1   0.034251 0.497436 0.581307 0.027847
C29   C     C_R   0.442954 0.836055 0.555918 -0.206247
C30   C     C_R   0.558888 0.831018 0.438233 -0.222636
H5    H     H_    0.397479 0.869738 0.602153 0.200486
H6    H     H_    0.604721 0.860553 0.390222 0.193791
C31   C     C_R   0.442824 0.751832 0.557552 0.458566
C32   C     C_R   0.557146 0.746778 0.438926 0.427117
N1    N     N_R   0.500000 0.707230 0.500000 -0.187101
C33   C     C_R   0.501508 0.876551 0.497044 0.036154
C34   C     C_1   0.502182 0.964131 0.496696 0.085088
C35   C     C_1   0.502125 0.037097 0.497108 -0.001660
C36   C     C_R   0.435205 0.166829 0.463236 -0.236150
C37   C     C_R   0.566878 0.168839 0.534861 -0.236718
H7    H     H_    0.383419 0.135072 0.434779 0.173617
H8    H     H_    0.619094 0.138655 0.563158 0.161359
C38   C     C_R   0.435537 0.250866 0.465420 -0.006732
C39   C     C_R   0.564905 0.252872 0.535398 0.108194
H9    H     H_    0.383895 0.282379 0.439157 0.180894
H10   H     H_    0.615561 0.286045 0.564663 0.152502
N2    N     N_R   0.500000 0.292770 0.500000 -0.102226
C40   C     C_R   0.501505 0.124701 0.498054 0.124605
O9    O     O_3   0.539681 0.357910 0.119500 -0.594445
C41   C     C_3   0.492780 0.294500 0.071520 0.081099
H11   H     H_    0.517940 0.238211 0.106226 0.187580
H12   H     H_    0.491807 0.288384 0.966384 0.176528
C42   C     C_3   0.410712 0.302456 0.119751 -0.341525
H13   H     H_    0.412418 0.312051 0.224048 0.271709
H14   H     H_    0.382450 0.354665 0.076673 0.250271
C43   C     C_3   0.363685 0.227920 0.086397 -0.849834
H15   H     H_    0.361229 0.216939 0.982016 0.261396
H16   H     H_    0.304332 0.236293 0.121239 0.304795
H17   H     H_    0.389392 0.175200 0.131935 0.265485
O10   O     O_3   0.583305 0.371152 0.866502 -0.654833
C44   C     C_3   0.660090 0.361747 0.909458 0.130258
H18   H     H_    0.673459 0.296894 0.906695 0.168692
H19   H     H_    0.670456 0.383424 0.009488 0.201244
C45   C     C_3   0.715018 0.403087 0.821410 -0.390989
H20   H     H_    0.711124 0.374239 0.725124 0.213722
H21   H     H_    0.698527 0.466721 0.814287 0.262565
C46   C     C_3   0.797558 0.398458 0.870894 -0.913207
H22   H     H_    0.802766 0.428219 0.966335 0.292157
H23   H     H_    0.836057 0.429152 0.805942 0.262214
H24   H     H_    0.816060 0.335267 0.876664 0.258083
N3    N     N_R   0.376442 0.621523 0.192384 0.228591
O11   O     O_R   0.364906 0.672116 0.286562 -0.325393
O12   O     O_R   0.331072 0.560552 0.176420 -0.367439
N4    N     N_R   0.599770 0.663458 0.815101 0.238714
O13   O     O_R   0.596308 0.718807 0.732009 -0.361657
O14   O     O_R   0.660530 0.618403 0.820233 -0.436461
N5    N     N_R   0.406053 0.777734 0.105507 0.267468
O15   O     O_R   0.441715 0.838576 0.158381 -0.333000
O16   O     O_R   0.331681 0.779464 0.093773 -0.280762
N6    N     N_R   0.522633 0.799960 0.925599 0.262872
O17   O     O_R   0.469396 0.846909 0.882758 -0.323599
O18   O     O_R   0.592332 0.826460 0.940574 -0.294382
N7    N     N_R   0.740994 0.368804 0.394759 0.230089
O19   O     O_R   0.752710 0.293758 0.415634 -0.414971
O20   O     O_R   0.702459 0.388049 0.293707 -0.369676
N8    N     N_R   0.255200 0.386888 0.356468 0.196422
O21   O     O_R   0.232563 0.312988 0.350737 -0.387209
O22   O     O_R   0.300432 0.411832 0.269780 -0.416107
O23   O     O_3   0.895574 0.360551 0.480416 -0.621863
C47   C     C_3   0.892396 0.302172 0.574114 0.156375
H25   H     H_    0.893557 0.242808 0.523960 0.202539
H26   H     H_    0.838472 0.304181 0.629922 0.128864
C48   C     C_3   0.962261 0.308252 0.663789 -0.400086
H27   H     H_    0.015498 0.310826 0.607523 0.279567
H28   H     H_    0.958128 0.363432 0.724511 0.216672
C49   C     C_3   0.967229 0.237078 0.749652 -0.900717
H29   H     H_    0.914547 0.233124 0.806842 0.260113
H30   H     H_    0.017369 0.244309 0.815157 0.277297
H31   H     H_    0.974445 0.180862 0.692145 0.279946
O24   O     O_3   0.096914 0.388601 0.405227 -0.606822
C50   C     C_3   0.072973 0.422128 0.290105 0.135514
H32   H     H_    0.123178 0.439296 0.232915 0.170585
H33   H     H_    0.036533 0.475828 0.309290 0.143606
C51   C     C_3   0.025930 0.360418 0.212610 -0.274689
H34   H     H_    0.061892 0.306646 0.192576 0.245642
H35   H     H_    0.975684 0.342238 0.268118 0.273373
C52   C     C_3   0.997541 0.393554 0.087333 -0.944288
H36   H     H_    0.960514 0.446776 0.105089 0.278396
H37   H     H_    0.963388 0.347382 0.033896 0.275059
H38   H     H_    0.046913 0.410343 0.028593 0.272538
N9    N     N_R   0.381123 0.714416 0.619447 0.219564
O25   O     O_R   0.394623 0.678144 0.724171 -0.410635
O26   O     O_R   0.311059 0.735694 0.592575 -0.365234
N10   N     N_R   0.616190 0.703757 0.373663 0.230219
O27   O     O_R   0.603086 0.677087 0.258270 -0.381153
O28   O     O_R   0.686925 0.713096 0.412091 -0.371516

loop_
_geom_bond_atom_site_label_1
_geom_bond_atom_site_label_2
_geom_bond_distance
_ccdc_geom_bond_type
C24   C26   1.403132 A    
O6    Zn1   1.983268 S    
C4    C12   1.446910 S    
C27   C28   1.187457 T    
C9    C10   1.388619 A    
C7    N5    1.433922 S    
O7    Zn2   1.983373 S    
C16   C26   1.389732 A    
N10   O27   1.299751 A    
C47   H26   1.116986 S    
O24   C50   1.413701 S    
C25   C27   1.411433 S    
N3    O11   1.301298 A    
O5    C3    1.282710 A    
O1    C1    1.284345 A    
C21   C23   1.405186 A    
C24   O24   1.385628 S    
C45   H21   1.109028 S    
C13   O9    1.389941 S    
C38   H9    1.079749 S    
N5    O16   1.300987 A    
C39   H10   1.080817 S    
C50   H32   1.115520 S    
C17   C19   1.401154 A    
O2    Zn1   1.967749 S    
C51   H34   1.112271 S    
C52   H38   1.111645 S    
N7    O20   1.301626 A    
C49   H29   1.110447 S    
C50   H33   1.114542 S    
C48   H27   1.111511 S    
C31   N9    1.426324 S    
C43   H15   1.110849 S    
N7    O19   1.300314 A    
C5    N3    1.438385 S    
C39   N2    1.366295 A    
N3    O12   1.299891 A    
C17   H3    1.082029 S    
C48   H28   1.109509 S    
O2    C2    1.284737 A    
C47   H25   1.111053 S    
C46   H23   1.108121 S    
C30   H6    1.083725 S    
C33   C34   1.469058 S    
C49   H30   1.110510 S    
C36   H7    1.083112 S    
C15   C17   1.381894 A    
C5    C10   1.424468 A    
C37   H8    1.083078 S    
O10   C44   1.416844 S    
C18   C20   1.400273 A    
C34   C35   1.223588 T    
C41   C42   1.529924 S    
C9    C12   1.406406 A    
O4    C2    1.281203 A    
O8    Zn2   1.957083 S    
N5    O15   1.301119 A    
C23   O23   1.385466 S    
C36   C38   1.408800 A    
C45   H20   1.111205 S    
C37   C40   1.403724 A    
Zn2   N2    1.985213 S    
C3    C11   1.448225 S    
C46   H22   1.110873 S    
C42   H13   1.106952 S    
C42   H14   1.111038 S    
C51   C52   1.527372 S    
C41   H12   1.110806 S    
C44   H18   1.110911 S    
C32   N10   1.426724 S    
C29   H5    1.083843 S    
C36   C40   1.403376 A    
O6    C4    1.277121 A    
C50   C51   1.529217 S    
C1    C20   1.453430 S    
C43   H17   1.111000 S    
N8    O22   1.298750 A    
C7    C8    1.407575 A    
C22   N8    1.435678 S    
C10   C11   1.422110 A    
N6    O18   1.300985 A    
C44   H19   1.116709 S    
C49   H31   1.110750 S    
C52   H36   1.111697 S    
O3    Zn2   1.968250 S    
O8    C4    1.289349 A    
Zn1   N1    1.985213 S    
C32   N1    1.379865 A    
N4    O14   1.300367 A    
C16   C18   1.383569 A    
O7    C3    1.279343 A    
N9    O25   1.298662 A    
C8    N6    1.433944 S    
C48   C49   1.525803 S    
C12   C14   1.393228 A    
O1    Zn1   1.970656 S    
C22   C24   1.402712 A    
C46   H24   1.110056 S    
N9    O26   1.301202 A    
C37   C39   1.409436 A    
C30   C33   1.395976 A    
C5    C7    1.412948 A    
O3    C1    1.279406 A    
N10   O28   1.300604 A    
C29   C33   1.394665 A    
C38   N2    1.365867 A    
C31   N1    1.379428 A    
C16   H2    1.083919 S    
C2    C19   1.455986 S    
C42   C43   1.525329 S    
C41   H11   1.111015 S    
C11   C13   1.419583 A    
C23   C25   1.403852 A    
C35   C40   1.468895 S    
C15   C25   1.389919 A    
C18   H4    1.079254 S    
C45   C46   1.525987 S    
C14   O10   1.387521 S    
C6    C9    1.418663 A    
C26   C28   1.411458 S    
N8    O21   1.301263 A    
C19   C21   1.415156 A    
C20   C22   1.413421 A    
O4    Zn2   1.971159 S    
N6    O17   1.301057 A    
C44   C45   1.529932 S    
C51   H35   1.111112 S    
C52   H37   1.111042 S    
C13   C14   1.393165 A    
O9    C41   1.418338 S    
O5    Zn1   1.957013 S    
N4    O13   1.300337 A    
C6    C8    1.411570 A    
O23   C47   1.418251 S    
C6    N4    1.439724 S    
C43   H16   1.110330 S    
C21   N7    1.439970 S    
C29   C31   1.413250 A    
C47   C48   1.532545 S    
C30   C32   1.413546 A    
C15   H1    1.083948 S    
