data_mof_unit_33870.cif
_audit_creation_date              2012-12-10T18:51:34-0500
_audit_creation_method            fapswitch 2.2
_symmetry_space_group_name_H-M    P1
_symmetry_Int_Tables_number       1
_space_group_crystal_system       triclinic
_cell_length_a                    10.615361
_cell_length_b                    9.868994
_cell_length_c                    10.494906
_cell_angle_alpha                 89.699921
_cell_angle_beta                  90.116274
_cell_angle_gamma                 90.026869
_cell_volume                      1099.45968604

loop_
_atom_site_label
_atom_site_type_symbol
_atom_type_description
_atom_site_fract_x
_atom_site_fract_y
_atom_site_fract_z
_atom_type_partial_charge
C1    C     C_R   0.871925 0.500061 0.500012 -0.355310
C2    C     C_3   0.396448 0.435706 0.042468 -0.112439
C3    C     C_3   0.396132 0.563529 0.957036 -0.105887
C4    C     C_3   0.603868 0.436471 0.042964 -0.105887
C5    C     C_3   0.500055 0.498595 0.877719 -0.027474
C6    C     C_3   0.499945 0.501405 0.122280 -0.027474
C7    C     C_R   0.574951 0.071450 0.582431 -0.042644
C8    C     C_R   0.425049 0.928550 0.417569 -0.042644
C9    C     C_R   0.425041 0.072260 0.417581 -0.044522
C10   C     C_R   0.574959 0.927740 0.582418 -0.044522
C11   C     C_R   0.065228 0.449813 0.607566 0.316363
C12   C     C_R   0.128075 0.499939 0.499987 -0.355309
C13   C     C_R   0.934772 0.550187 0.392433 0.316363
C14   C     C_R   0.935123 0.449851 0.607570 0.306270
C15   C     C_R   0.064877 0.550149 0.392430 0.306269
C16   C     C_R   0.260441 0.499975 0.499994 1.038982
C17   C     C_R   0.739559 0.500025 0.500006 1.038982
C18   C     C_R   0.499913 0.500443 0.257288 0.935475
C19   C     C_R   0.500087 0.499556 0.742712 0.935475
C20   C     C_3   0.499627 0.629394 0.039552 -0.147369
C21   C     C_3   0.500373 0.370606 0.960448 -0.147369
C22   C     C_3   0.603552 0.564294 0.957532 -0.112439
Cl1   Cl    Cl    0.149102 0.391325 0.743277 -0.540533
Cl2   Cl    Cl    0.850898 0.608675 0.256721 -0.540533
Cl3   Cl    Cl    0.851673 0.391254 0.743219 -0.561753
Cl4   Cl    Cl    0.148327 0.608746 0.256782 -0.561754
H1    H     H_    0.634957 0.125406 0.648413 0.163456
H2    H     H_    0.312247 0.383647 0.081891 0.193684
H3    H     H_    0.365043 0.874594 0.351587 0.163456
H4    H     H_    0.365017 0.126859 0.351608 0.141886
H5    H     H_    0.634983 0.873141 0.648392 0.141886
H6    H     H_    0.311667 0.614977 0.917242 0.197139
H7    H     H_    0.688333 0.385023 0.082758 0.197139
H8    H     H_    0.499285 0.734853 0.075899 0.175220
H9    H     H_    0.500715 0.265147 0.924100 0.175220
H10   H     H_    0.687753 0.616353 0.918108 0.193684
N1    N     N_R   0.500000 0.857200 0.500000 -0.090920
N2    N     N_R   0.500000 0.142800 0.500000 -0.090920
O1    O     O_R   0.316770 0.614620 0.499990 -0.600301
O2    O     O_R   0.683230 0.385380 0.500010 -0.600302
O3    O     O_R   0.683230 0.614620 0.500010 -0.599250
O4    O     O_R   0.316770 0.385380 0.499990 -0.599250
O5    O     O_R   0.499970 0.614650 0.313950 -0.602769
O6    O     O_R   0.500030 0.385350 0.686050 -0.602769
O7    O     O_R   0.500030 0.614650 0.686050 -0.643293
O8    O     O_R   0.499970 0.385350 0.313950 -0.643293
Zn1   Zn    Zn3+2 0.500000 0.653120 0.500000 1.005990
Zn2   Zn    Zn3+2 0.500000 0.346880 0.500000 1.005990

loop_
_geom_bond_atom_site_label_1
_geom_bond_atom_site_label_2
_ccdc_geom_bond_type
C7    C10   A    
C11   C12   A    
C19   O7    A    
C21   H9    S    
C16   O4    A    
N1    Zn1   S    
C4    C22   S    
C1    C17   S    
C22   H10   S    
C12   C15   A    
C20   H8    S    
C2    C21   S    
O7    Zn1   S    
C2    C3    S    
O3    Zn1   S    
C5    C21   S    
C3    C20   S    
O4    Zn2   S    
C18   O5    A    
C4    C21   S    
C2    C6    S    
C12   C16   S    
O5    Zn1   S    
C6    C20   S    
C10   N1    A    
C5    C19   S    
C8    H3    S    
C9    H4    S    
C4    C6    S    
C9    N2    A    
C7    N2    A    
C20   C22   S    
C17   O3    A    
C13   C15   A    
C14   Cl3   S    
C3    H6    S    
C6    C18   S    
C11   C14   A    
O8    Zn2   S    
C1    C13   A    
C8    N1    A    
C16   O1    A    
C18   O8    A    
C7    H1    S    
C19   O6    A    
O1    Zn1   S    
C11   Cl1   S    
O2    Zn2   S    
C4    H7    S    
C15   Cl4   S    
C2    H2    S    
C1    C14   A    
N2    Zn2   S    
C10   H5    S    
C5    C22   S    
O6    Zn2   S    
C13   Cl2   S    
C8    C9    A    
C3    C5    S    
C17   O2    A    
