data_mof_unit_38724.cif
_audit_creation_date              2012-12-10T17:40:57-0500
_audit_creation_method            fapswitch 2.2
_symmetry_space_group_name_H-M    P1
_symmetry_Int_Tables_number       1
_space_group_crystal_system       triclinic
_cell_length_a                    15.038453
_cell_length_b                    13.863378
_cell_length_c                    11.688907
_cell_angle_alpha                 90.414094
_cell_angle_beta                  86.789398
_cell_angle_gamma                 88.754572
_cell_volume                      2432.46043705

loop_
_atom_site_label
_atom_site_type_symbol
_atom_type_description
_atom_site_fract_x
_atom_site_fract_y
_atom_site_fract_z
_atom_type_partial_charge
C1    C     C_R   0.329027 0.500914 0.503255 0.850807
C2    C     C_R   0.671206 0.498939 0.494644 0.835619
C3    C     C_R   0.914352 0.465889 0.394292 -0.059189
C4    C     C_R   0.086611 0.534078 0.599658 -0.071734
C5    C     C_R   0.938981 0.572976 0.684989 -0.312472
C6    C     C_R   0.062704 0.449188 0.300000 -0.326730
C7    C     C_R   0.031755 0.569666 0.693954 0.445811
C8    C     C_R   0.970312 0.437565 0.296827 0.454856
C9    C     C_R   0.445649 0.795202 0.578681 0.492474
C10   C     C_R   0.535903 0.202850 0.407560 0.466002
C11   C     C_R   0.554712 0.792001 0.422033 0.493579
C12   C     C_R   0.459758 0.207849 0.591830 0.495374
C13   C     C_R   0.550806 0.894816 0.416314 -0.103047
C14   C     C_R   0.454683 0.104453 0.589944 -0.100147
C15   C     C_R   0.451168 0.897891 0.586350 -0.098158
C16   C     C_R   0.546127 0.100639 0.413594 -0.096787
C17   C     C_R   0.502037 0.947782 0.502530 0.027070
C18   C     C_R   0.502403 0.051039 0.503304 0.025185
C19   C     C_R   0.593962 0.945922 0.326362 -0.189365
C20   C     C_R   0.402777 0.052965 0.671867 -0.191179
C21   C     C_R   0.404428 0.952188 0.673166 -0.181447
C22   C     C_R   0.592721 0.046836 0.325938 -0.180362
C23   C     C_R   0.500942 0.499748 0.284091 0.825878
C24   C     C_R   0.501287 0.500359 0.715744 0.839252
C25   C     C_1   0.502668 0.499581 0.162256 -0.164503
C26   C     C_1   0.504138 0.501222 0.837266 -0.199600
C27   C     C_1   0.504082 0.500272 0.059636 -0.010465
C28   C     C_1   0.504961 0.501054 0.939766 -0.018325
C29   C     C_R   0.820042 0.459982 0.396557 0.368775
C30   C     C_R   0.180436 0.525994 0.603813 0.382911
C31   C     C_R   0.768186 0.496800 0.492107 -0.164846
C32   C     C_R   0.232591 0.503023 0.503499 -0.171264
C33   C     C_R   0.808161 0.535199 0.586024 -0.302781
C34   C     C_R   0.193266 0.479682 0.402567 -0.298576
C35   C     C_R   0.900305 0.536162 0.588582 0.086569
C36   C     C_R   0.101028 0.477723 0.399975 0.090132
C37   C     C_R   0.953889 0.501803 0.493564 -0.044055
C38   C     C_R   0.047108 0.504469 0.497865 -0.042734
Cu1   Cu    Cu3+1 0.500000 0.597420 0.500000 1.021227
Cu2   Cu    Cu3+1 0.500000 0.402580 0.500000 0.994273
H1    H     H_    0.766803 0.563220 0.658381 0.149769
H2    H     H_    0.235025 0.460706 0.326607 0.141796
H3    H     H_    0.896366 0.604411 0.753765 0.147071
H4    H     H_    0.105571 0.433439 0.224393 0.147191
H5    H     H_    0.627897 0.908315 0.254523 0.167453
H6    H     H_    0.359706 0.089625 0.735727 0.179376
H7    H     H_    0.367670 0.917411 0.742371 0.170148
H8    H     H_    0.627872 0.082611 0.255699 0.163903
N1    N     N_R   0.500000 0.743810 0.500000 -0.259407
N2    N     N_R   0.500000 0.256190 0.500000 -0.257436
O1    O     O_R   0.370260 0.582280 0.500020 -0.573254
O2    O     O_R   0.629740 0.417720 0.499980 -0.591810
O3    O     O_R   0.629740 0.582280 0.499980 -0.575124
O4    O     O_R   0.370260 0.417720 0.500020 -0.566929
O5    O     O_R   0.500010 0.582270 0.337200 -0.533722
O6    O     O_R   0.499990 0.417730 0.662800 -0.560041
O7    O     O_R   0.499990 0.582270 0.662800 -0.527344
O8    O     O_R   0.500010 0.417730 0.337200 -0.547852
O9    O     O_3   0.777588 0.431388 0.300564 -0.570518
C39   C     C_3   0.768482 0.330307 0.301526 0.133964
H9    H     H_    0.718825 0.308497 0.369658 0.173132
H10   H     H_    0.832468 0.291454 0.315692 0.111823
C40   C     C_3   0.736241 0.299295 0.186353 -0.712153
H11   H     H_    0.784019 0.320164 0.115673 0.241045
H12   H     H_    0.728359 0.219928 0.184367 0.183292
H13   H     H_    0.671842 0.336441 0.172422 0.278376
O10   O     O_3   0.222105 0.538442 0.705161 -0.562945
C41   C     C_3   0.216853 0.451648 0.767587 0.095209
H14   H     H_    0.253683 0.391996 0.719867 0.167015
H15   H     H_    0.146463 0.430281 0.784973 0.131177
C42   C     C_3   0.258129 0.465696 0.882186 -0.801136
H16   H     H_    0.236057 0.535579 0.922216 0.252613
H17   H     H_    0.238694 0.406446 0.941214 0.198200
H18   H     H_    0.331390 0.465254 0.869039 0.253760
O11   O     O_3   0.070380 0.612632 0.786491 -0.587230
C43   C     C_3   0.030647 0.584704 0.893765 0.062760
H19   H     H_    0.084155 0.555487 0.945717 0.161434
H20   H     H_    0.981145 0.526352 0.888958 0.116692
C44   C     C_3   0.989077 0.672962 0.957070 -0.369814
H21   H     H_    0.040772 0.728277 0.965658 0.227227
H22   H     H_    0.935018 0.704756 0.907433 0.211150
C45   C     C_3   0.951094 0.646377 0.076259 -0.876848
H23   H     H_    0.897190 0.593377 0.069857 0.286027
H24   H     H_    0.923175 0.712225 0.120700 0.244489
H25   H     H_    0.004230 0.615040 0.127898 0.263917
O12   O     O_3   0.933946 0.406818 0.196186 -0.577092
C46   C     C_3   0.977978 0.322403 0.149051 0.047204
H26   H     H_    0.927645 0.266273 0.138398 0.148532
H27   H     H_    0.027723 0.288617 0.204653 0.120850
C47   C     C_3   0.020984 0.344363 0.030649 -0.349499
H28   H     H_    0.968262 0.366899 0.972886 0.216368
H29   H     H_    0.068053 0.404313 0.037320 0.203468
C48   C     C_3   0.071551 0.256505 0.978675 -0.947573
H30   H     H_    0.126550 0.234599 0.033251 0.256988
H31   H     H_    0.100610 0.274568 0.892266 0.247692
H32   H     H_    0.025848 0.195295 0.970255 0.258242
O13   O     O_3   0.390067 0.745558 0.655418 -0.543957
C49   C     C_3   0.299036 0.764869 0.635066 0.074755
H33   H     H_    0.274625 0.709260 0.577082 0.190037
H34   H     H_    0.285584 0.835549 0.593973 0.100743
C50   C     C_3   0.243033 0.761385 0.747814 -0.705560
H35   H     H_    0.254838 0.824932 0.802433 0.192730
H36   H     H_    0.171295 0.761539 0.730132 0.233538
H37   H     H_    0.259874 0.695608 0.796195 0.302462
O14   O     O_3   0.555825 0.247280 0.304142 -0.569243
C51   C     C_3   0.489006 0.225627 0.226640 0.103001
H38   H     H_    0.434739 0.281310 0.233788 0.164075
H39   H     H_    0.456980 0.154616 0.241540 0.123601
C52   C     C_3   0.529147 0.223740 0.104170 -0.875456
H40   H     H_    0.590813 0.178338 0.097352 0.244676
H41   H     H_    0.481366 0.191842 0.047051 0.217576
H42   H     H_    0.544188 0.297750 0.074856 0.248565
O15   O     O_3   0.608885 0.739255 0.343795 -0.545551
C53   C     C_3   0.699404 0.748842 0.369297 0.054122
H43   H     H_    0.711417 0.724788 0.457678 0.164993
H44   H     H_    0.722121 0.824259 0.362533 0.118267
C54   C     C_3   0.757256 0.688191 0.284288 -0.740815
H45   H     H_    0.756129 0.720473 0.197692 0.229225
H46   H     H_    0.826952 0.684900 0.311069 0.200625
H47   H     H_    0.731464 0.614059 0.279931 0.286807
O16   O     O_3   0.413863 0.261070 0.678113 -0.557621
C55   C     C_3   0.447558 0.242678 0.787575 0.096655
H48   H     H_    0.493712 0.299971 0.810047 0.174104
H49   H     H_    0.487640 0.174550 0.793301 0.112386
C56   C     C_3   0.370158 0.242479 0.878445 -0.883664
H50   H     H_    0.365852 0.170879 0.920090 0.210562
H51   H     H_    0.379731 0.297978 0.945383 0.229230
H52   H     H_    0.305555 0.257473 0.839879 0.269475

loop_
_geom_bond_atom_site_label_1
_geom_bond_atom_site_label_2
_ccdc_geom_bond_type
C23   O8    A    
C22   H8    S    
C46   H26   S    
C40   H12   S    
C48   H30   S    
C14   C18   A    
Cu1   O1    S    
C34   H2    S    
C43   C44   S    
C1    O4    A    
O13   C49   S    
C50   H35   S    
C39   C40   S    
C6    C8    A    
C35   C37   A    
C24   C26   S    
C52   H41   S    
C51   H38   S    
Cu1   O7    S    
C39   H10   S    
C3    C29   A    
Cu1   O5    S    
C12   O16   S    
C29   O9    S    
C41   H14   S    
Cu2   O6    S    
C56   H52   S    
C16   C22   A    
C31   C33   A    
C8    O12   S    
C30   O10   S    
C5    H3    S    
C40   H13   S    
O9    C39   S    
C48   H31   S    
C6    H4    S    
C4    C7    A    
C53   H43   S    
Cu2   O8    S    
C13   C19   A    
O10   C41   S    
C14   C20   A    
C19   C22   A    
C9    N1    A    
C43   H19   S    
C3    C8    A    
C54   H47   S    
Cu1   Cu2   S    
C5    C7    A    
O12   C46   S    
C24   O7    A    
C7    O11   S    
Cu2   O2    S    
C1    C32   S    
C40   H11   S    
Cu2   O4    S    
C2    C31   S    
C32   C34   A    
O11   C43   S    
C37   C38   A    
C11   N1    A    
C42   H18   S    
C47   H29   S    
C17   C18   A    
C1    O1    A    
O16   C55   S    
C2    O2    A    
C41   H15   S    
Cu1   N1    S    
C12   C14   A    
C49   H33   S    
C48   H32   S    
C45   H24   S    
C46   H27   S    
C56   H50   S    
C52   H42   S    
C24   O6    A    
C55   H49   S    
C49   C50   S    
C47   C48   S    
C42   H17   S    
O15   C53   S    
C50   H36   S    
C15   C17   A    
C9    O13   S    
C43   H20   S    
C2    O3    A    
C44   C45   S    
C53   H44   S    
C19   H5    S    
C23   O5    A    
C25   C27   T    
C45   H25   S    
O14   C51   S    
C26   C28   T    
C13   C17   A    
C33   H1    S    
C55   C56   S    
C54   H46   S    
C9    C15   A    
C42   H16   S    
C29   C31   A    
C10   C16   A    
C54   H45   S    
C30   C32   A    
C11   C13   A    
C47   H28   S    
Cu1   O3    S    
C51   H39   S    
C41   C42   S    
Cu2   N2    S    
C5    C35   A    
C36   C38   A    
C33   C35   A    
C6    C36   A    
C34   C36   A    
C23   C25   S    
C44   H22   S    
C11   O15   S    
C49   H34   S    
C4    C30   A    
C53   C54   S    
C44   H21   S    
C15   C21   A    
C20   C21   A    
C3    C37   A    
C16   C18   A    
C45   H23   S    
C46   C47   S    
C52   H40   S    
C27   C28   S    
C56   H51   S    
C39   H9    S    
C10   O14   S    
C50   H37   S    
C55   H48   S    
C4    C38   A    
C12   N2    A    
C20   H6    S    
C21   H7    S    
C51   C52   S    
C10   N2    A    
