data_mof_unit_9284.cif
_audit_creation_date              2012-10-26T19:48:44-0400
_audit_creation_method            fapswitch 2.2
_symmetry_space_group_name_H-M    P1
_symmetry_Int_Tables_number       1
_space_group_crystal_system       triclinic
_cell_length_a                    10.772899
_cell_length_b                    9.405877
_cell_length_c                    27.760752
_cell_angle_alpha                 90.140327
_cell_angle_beta                  90.858539
_cell_angle_gamma                 90.41075
_cell_volume                      2812.55984502

loop_
_atom_site_label
_atom_site_type_symbol
_atom_type_description
_atom_site_fract_x
_atom_site_fract_y
_atom_site_fract_z
_atom_type_partial_charge
Br1   Br    Br    0.897517 0.463572 0.026565 -0.569854
Br2   Br    Br    0.291351 0.701416 0.640229 -0.574027
C1    C     C_R   0.259343 0.499743 0.497204 0.564235
C2    C     C_R   0.400165 0.435807 0.974041 0.017864
C3    C     C_R   0.617111 0.520062 0.974871 0.033608
C4    C     C_R   0.503811 0.499770 0.407484 0.540431
C5    C     C_R   0.507987 0.478644 0.949151 0.032783
C6    C     C_R   0.297199 0.384030 0.946925 -0.128325
C7    C     C_R   0.298264 0.382104 0.896828 -0.098934
C8    C     C_R   0.401119 0.433677 0.871980 0.026027
C9    C     C_R   0.505917 0.483070 0.898066 -0.026959
C10   C     C_R   0.608105 0.538584 0.873077 0.024447
C11   C     C_R   0.604401 0.541475 0.822518 0.406392
C12   C     C_R   0.497209 0.368514 0.278878 -0.058361
C13   C     C_R   0.401834 0.437046 0.821436 0.404474
C14   C     C_R   0.418082 0.582993 0.721527 -0.014908
C15   C     C_R   0.415113 0.586122 0.671228 0.130030
C16   C     C_R   0.739767 0.500649 0.501164 0.548823
C17   C     C_R   0.578417 0.408905 0.669992 -0.174765
C18   C     C_R   0.580781 0.406483 0.720180 -0.060062
C19   C     C_R   0.500892 0.493752 0.746128 0.204086
C20   C     C_R   0.398474 0.448171 0.024967 0.016946
C21   C     C_R   0.510879 0.478061 0.050596 0.011561
C22   C     C_R   0.623358 0.501868 0.025623 0.028418
C23   C     C_R   0.511011 0.495784 0.253475 0.245497
C24   C     C_R   0.287726 0.433496 0.051226 -0.124962
C25   C     C_R   0.734620 0.509971 0.102961 -0.067348
C26   C     C_R   0.712671 0.587627 0.949169 -0.097934
C27   C     C_R   0.709523 0.594240 0.899110 -0.100916
C28   C     C_R   0.497793 0.500078 0.592412 0.591249
C29   C     C_R   0.736689 0.504065 0.052796 0.137025
C30   C     C_3   0.072115 0.654500 0.503938 -0.246944
C31   C     C_3   0.073515 0.414555 0.539850 -0.231576
C32   C     C_3   0.929560 0.655734 0.502845 -0.246265
C33   C     C_3   0.930887 0.414135 0.541964 -0.246776
C34   C     C_R   0.510886 0.482767 0.101666 -0.036462
C35   C     C_3   0.060987 0.441165 0.445424 0.060417
C36   C     C_3   0.120335 0.500192 0.495367 0.078863
C37   C     C_3   0.876865 0.501391 0.499672 0.027455
C38   C     C_3   0.916567 0.432051 0.451847 -0.188252
C39   C     C_3   0.627614 0.084773 0.506778 -0.104462
C40   C     C_3   0.627583 0.917249 0.506660 -0.107560
C41   C     C_3   0.426090 0.083467 0.541115 -0.101308
C42   C     C_3   0.425506 0.915877 0.540948 -0.093249
C43   C     C_3   0.448391 0.082762 0.455453 -0.105106
C44   C     C_3   0.446988 0.915578 0.455645 -0.104915
C45   C     C_R   0.399133 0.466162 0.126834 0.028680
C46   C     C_R   0.401142 0.472743 0.177351 0.400636
C47   C     C_R   0.620544 0.508791 0.178226 0.402007
C48   C     C_R   0.523898 0.624570 0.278494 -0.059241
C49   C     C_R   0.522098 0.626201 0.328744 -0.154116
C50   C     C_R   0.496011 0.369725 0.329049 -0.155769
C51   C     C_3   0.078685 0.546759 0.401647 -0.290571
C52   C     C_3   0.210629 0.582037 0.386465 -0.426385
C53   C     C_3   0.111191 0.292360 0.428458 -0.244408
C54   C     C_3   0.089932 0.161238 0.460360 -0.450904
C55   C     C_R   0.288183 0.443033 0.101183 -0.094576
C56   C     C_R   0.622690 0.503182 0.127673 -0.006350
C57   C     C_R   0.508015 0.498672 0.354470 -0.006651
C58   C     C_R   0.496873 0.499517 0.645158 0.016909
Cu1   Cu    Cu3+1 0.499860 0.642410 0.500020 0.890222
Cu2   Cu    Cu3+1 0.499860 0.357590 0.500020 0.873922
H1    H     H_    0.484424 0.269896 0.347835 0.111451
H2    H     H_    0.105517 0.694840 0.539643 0.161112
H3    H     H_    0.111114 0.464026 0.573584 0.154388
H4    H     H_    0.896057 0.709194 0.535987 0.131368
H5    H     H_    0.900933 0.460449 0.576821 0.129510
H6    H     H_    0.487205 0.268691 0.259644 0.126252
H7    H     H_    0.896270 0.719161 0.471493 0.114981
H8    H     H_    0.895743 0.302643 0.540504 0.118260
H9    H     H_    0.864907 0.484834 0.421802 0.097192
H10   H     H_    0.881005 0.321315 0.449987 0.120228
H11   H     H_    0.670954 0.124593 0.540908 0.114452
H12   H     H_    0.534391 0.723309 0.258952 0.127119
H13   H     H_    0.671134 0.878181 0.540682 0.118652
H14   H     H_    0.687188 0.123002 0.477013 0.114699
H15   H     H_    0.686664 0.879638 0.476745 0.113836
H16   H     H_    0.464519 0.120872 0.576332 0.136704
H17   H     H_    0.463000 0.878737 0.576171 0.167292
H18   H     H_    0.353297 0.122701 0.448932 0.111056
H19   H     H_    0.350269 0.875937 0.450129 0.102983
H20   H     H_    0.504537 0.119064 0.424501 0.114473
H21   H     H_    0.500948 0.878126 0.424348 0.116717
H22   H     H_    0.329505 0.123034 0.539037 0.117119
H23   H     H_    0.822103 0.513790 0.122714 0.198482
H24   H     H_    0.328197 0.876138 0.538103 0.145049
H25   H     H_    0.200787 0.431653 0.119650 0.185715
H26   H     H_    0.355179 0.649035 0.741653 0.169657
H27   H     H_    0.217181 0.341422 0.877630 0.177855
H28   H     H_    0.215326 0.340937 0.963531 0.139782
H29   H     H_    0.198237 0.418854 0.033975 0.162213
H30   H     H_    0.531513 0.727044 0.347371 0.112958
H31   H     H_    0.259543 0.646351 0.414151 0.171832
H32   H     H_    0.262084 0.484392 0.377875 0.152658
H33   H     H_    0.207002 0.647269 0.353187 0.148394
H34   H     H_    0.788007 0.642527 0.967427 0.177950
H35   H     H_    0.031353 0.500592 0.369218 0.153090
H36   H     H_    0.030206 0.648736 0.407704 0.135553
H37   H     H_    0.164733 0.151552 0.487664 0.142486
H38   H     H_    0.999404 0.159804 0.478531 0.137071
H39   H     H_    0.094546 0.063867 0.437742 0.117798
H40   H     H_    0.067117 0.266794 0.392946 0.137384
H41   H     H_    0.212039 0.299227 0.421746 0.158094
H42   H     H_    0.641213 0.341035 0.650467 0.120726
H43   H     H_    0.786351 0.644828 0.880954 0.176288
H44   H     H_    0.644334 0.336419 0.738968 0.150248
H45   H     H_    0.108790 0.731062 0.477177 0.113707
H46   H     H_    0.108262 0.304677 0.540963 0.130099
N1    N     N_R   0.510786 0.493872 0.201869 -0.396654
N2    N     N_R   0.502569 0.490319 0.797810 -0.398782
N3    N     N_3   0.500250 0.143650 0.501060 -0.228753
N4    N     N_3   0.500250 0.856350 0.501060 -0.233620
O1    O     O_R   0.317570 0.620260 0.500030 -0.511544
O2    O     O_2   0.302956 0.386901 0.796071 -0.479409
O3    O     O_2   0.727273 0.527610 0.203595 -0.489996
O4    O     O_2   0.701313 0.595869 0.798232 -0.482588
O5    O     O_R   0.317570 0.379740 0.500030 -0.511355
O6    O     O_R   0.499900 0.620250 0.430280 -0.519501
O7    O     O_R   0.499900 0.379750 0.430280 -0.515756
O8    O     O_R   0.682190 0.620260 0.500010 -0.515963
O9    O     O_R   0.682190 0.379740 0.500010 -0.520202
O10   O     O_R   0.499860 0.620280 0.569750 -0.470949
O11   O     O_R   0.499860 0.379720 0.569750 -0.511141
O12   O     O_2   0.294500 0.458210 0.201829 -0.492528

loop_
_geom_bond_atom_site_label_1
_geom_bond_atom_site_label_2
_ccdc_geom_bond_type
C39   N3    S    
C53   C54   S    
C14   C19   A    
C38   H9    S    
C44   N4    S    
C10   C27   A    
C39   C40   S    
C43   H20   S    
C2    C6    A    
C32   H4    S    
C19   N2    S    
C31   H3    S    
C43   C44   S    
C41   H16   S    
C5    C9    A    
C53   H40   S    
C40   H13   S    
C11   N2    A    
C26   C27   A    
C54   H39   S    
C35   C38   S    
C34   C56   A    
C8    C13   A    
C48   H12   S    
C44   H19   S    
C53   H41   S    
Br1   C29   S    
C34   C45   A    
C25   H23   S    
C40   N4    S    
C23   C48   A    
Cu2   O5    S    
C1    O5    A    
C12   C50   A    
Cu2   N3    S    
C28   O10   A    
C1    C36   S    
C14   C15   A    
C52   H31   S    
C30   H45   S    
C28   C58   S    
C21   C22   A    
C30   C36   S    
C7    C8    A    
C23   N1    S    
C35   C51   S    
C46   N1    A    
Br2   C15   S    
C41   H22   S    
C13   N2    A    
C27   H43   S    
C31   H46   S    
C41   N3    S    
C2    C5    A    
C42   H24   S    
Cu2   O11   S    
C18   H44   S    
C25   C29   A    
C32   C37   S    
C30   H2    S    
C1    O1    A    
C7    H27   S    
C37   C38   S    
C3    C5    A    
C6    C7    A    
C15   C58   A    
C51   H35   S    
C24   H29   S    
C51   C52   S    
C50   H1    S    
C47   C56   A    
C55   H25   S    
Cu1   O10   S    
C30   C32   S    
C33   C37   S    
C16   C37   S    
C35   C36   S    
C50   C57   A    
C49   H30   S    
C45   C55   A    
C3    C26   A    
C2    C20   A    
C17   H42   S    
C45   C46   A    
C33   H5    S    
C48   C49   A    
C52   H33   S    
C13   O2    S    
C18   C19   A    
C28   O11   A    
C32   H7    S    
Cu2   O7    S    
C42   N4    S    
C47   O3    S    
C33   H8    S    
C41   C42   S    
Cu1   O1    S    
C51   H36   S    
C6    H28   S    
C54   H38   S    
C16   O8    A    
C4    O7    A    
C47   N1    A    
C38   H10   S    
Cu1   O6    S    
C4    C57   S    
C42   H17   S    
C25   C56   A    
C46   O12   S    
C9    C10   A    
C43   N3    S    
C17   C58   A    
C31   C36   S    
C26   H34   S    
C17   C18   A    
C22   C29   A    
C39   H14   S    
C3    C22   A    
C31   C33   S    
C43   H18   S    
C12   C23   A    
Cu1   Cu2   S    
C24   C55   A    
C52   H32   S    
C11   O4    S    
C8    C9    A    
C16   O9    A    
C39   H11   S    
C44   H21   S    
C35   C53   S    
C49   C57   A    
C10   C11   A    
C40   H15   S    
C21   C34   A    
C20   C24   A    
C14   H26   S    
C12   H6    S    
C20   C21   A    
C54   H37   S    
Cu1   N4    S    
C4    O6    A    
Cu2   O9    S    
Cu1   O8    S    
