data_mof_unit_45617.cif
_audit_creation_date              2012-12-10T17:15:55-0500
_audit_creation_method            fapswitch 2.2
_symmetry_space_group_name_H-M    P1
_symmetry_Int_Tables_number       1
_space_group_crystal_system       triclinic
_cell_length_a                    10.147504
_cell_length_b                    10.619992
_cell_length_c                    10.513634
_cell_angle_alpha                 90.214181
_cell_angle_beta                  95.035677
_cell_angle_gamma                 81.505655
_cell_volume                      1116.21375362

loop_
_atom_site_label
_atom_site_type_symbol
_atom_type_description
_atom_site_fract_x
_atom_site_fract_y
_atom_site_fract_z
_atom_type_partial_charge
C1    C     C_R   0.444561 0.501401 0.265456 0.929751
C2    C     C_2   0.500930 0.399402 0.932029 0.370582
C3    C     C_2   0.072673 0.488951 0.489294 -0.127902
C4    C     C_R   0.500400 0.260482 0.503270 0.859292
C5    C     C_2   0.927487 0.510324 0.511480 -0.133979
C6    C     C_R   0.555500 0.486299 0.734522 0.850222
C7    C     C_R   0.501150 0.739349 0.503031 0.869686
C8    C     C_R   0.662687 0.109253 0.704690 -0.182554
C9    C     C_R   0.740654 0.032952 0.799013 -0.169579
C10   C     C_R   0.741363 0.901775 0.798635 -0.124121
C11   C     C_R   0.664098 0.846467 0.703933 -0.191048
C12   C     C_R   0.584390 0.054565 0.607493 0.104706
C13   C     C_R   0.585160 0.922512 0.607080 0.087676
C14   C     C_3   0.387262 0.227391 0.910556 0.054303
C15   C     C_3   0.297465 0.162986 0.814445 -0.296367
C16   C     C_3   0.295964 0.024417 0.851288 -0.958527
C17   C     C_3   0.808517 0.423317 0.935101 0.055528
C18   C     C_3   0.912079 0.462719 0.036069 -0.293271
C19   C     C_3   0.046752 0.377308 0.034290 -1.001801
C20   C     C_R   0.501624 0.128173 0.511950 -0.106246
C21   C     C_R   0.417693 0.075664 0.421748 -0.225719
C22   C     C_R   0.418654 0.946901 0.421200 -0.200384
C23   C     C_R   0.503388 0.871330 0.510960 -0.092637
C24   C     C_2   0.415687 0.476269 0.130741 -0.370690
C25   C     C_2   0.511082 0.405272 0.070607 -0.212369
C26   C     C_2   0.585839 0.458833 0.870236 0.180201
H1    H     H_    0.353689 0.134389 0.350029 0.143370
H2    H     H_    0.665489 0.744569 0.708532 0.155102
H3    H     H_    0.355064 0.905568 0.349246 0.148465
H4    H     H_    0.606421 0.365620 0.120721 0.165588
H5    H     H_    0.343105 0.233053 0.004033 0.160617
H6    H     H_    0.488076 0.168068 0.921554 0.138002
H7    H     H_    0.193836 0.215192 0.809242 0.218193
H8    H     H_    0.334179 0.166160 0.718329 0.242123
H9    H     H_    0.398232 0.969607 0.852775 0.276981
H10   H     H_    0.229145 0.980986 0.780125 0.270106
H11   H     H_    0.258375 0.018659 0.946881 0.258366
H12   H     H_    0.320549 0.516201 0.080656 0.171743
H13   H     H_    0.847606 0.425441 0.839599 0.169220
H14   H     H_    0.793161 0.324041 0.957422 0.107588
H15   H     H_    0.925884 0.562888 0.018296 0.227151
H16   H     H_    0.875142 0.456966 0.132065 0.220808
H17   H     H_    0.035234 0.275904 0.047628 0.260713
H18   H     H_    0.117107 0.404372 0.113031 0.266221
H19   H     H_    0.089680 0.388947 0.942216 0.282637
H20   H     H_    0.891855 0.579472 0.581638 0.164879
H21   H     H_    0.108345 0.419424 0.419502 0.160825
H22   H     H_    0.879869 0.383739 0.382958 0.160179
H23   H     H_    0.120086 0.616546 0.616771 0.168779
H24   H     H_    0.662730 0.210888 0.710069 0.130683
H25   H     H_    0.799751 0.075885 0.873206 0.126331
H26   H     H_    0.801130 0.842761 0.872478 0.145040
N1    N     N_2   0.157290 0.551390 0.551110 -0.181528
N2    N     N_2   0.842740 0.448550 0.448960 -0.192981
O1    O     O_R   0.568950 0.489660 0.307530 -0.588531
O2    O     O_3   0.689055 0.510170 0.936911 -0.659118
O3    O     O_R   0.348880 0.522640 0.340350 -0.613384
O4    O     O_R   0.610060 0.300270 0.483590 -0.616490
O5    O     O_R   0.389990 0.333260 0.516410 -0.607374
O6    O     O_R   0.651120 0.477360 0.659650 -0.637478
O7    O     O_R   0.431050 0.510340 0.692470 -0.558644
O8    O     O_R   0.610010 0.666740 0.483590 -0.607596
O9    O     O_R   0.389940 0.699730 0.516410 -0.607340
O10   O     O_3   0.395105 0.350915 0.865252 -0.635436
Zn1   Zn    Zn3+2 0.646940 0.477980 0.478090 0.931576
Zn2   Zn    Zn3+2 0.353060 0.522020 0.521910 0.959862

loop_
_geom_bond_atom_site_label_1
_geom_bond_atom_site_label_2
_ccdc_geom_bond_type
C24   H12   S    
C24   C25   D    
C19   H19   S    
C7    O8    A    
C22   H3    S    
C1    O3    A    
C11   C13   A    
C9    C10   A    
C16   H11   S    
O4    Zn1   S    
C9    H25   S    
C17   H14   S    
C14   H5    S    
C8    C12   A    
C14   O10   S    
C12   C20   A    
C17   C18   S    
C21   H1    S    
O9    Zn2   S    
C10   H26   S    
C2    C26   D    
N2    Zn1   S    
C21   C22   A    
C19   H18   S    
H22   N2    S    
N1    Zn2   S    
C3    N1    D    
C17   O2    S    
C7    O9    A    
C6    C26   S    
C26   O2    S    
C11   H2    S    
C7    C23   S    
C4    O5    A    
C3    H21   S    
C16   H9    S    
O1    Zn1   S    
C2    O10   S    
O6    Zn1   S    
C2    C25   S    
C18   H16   S    
O5    Zn2   S    
C1    O1    A    
H23   N1    S    
C18   H15   S    
C10   C11   A    
C15   C16   S    
O3    Zn2   S    
C8    H24   S    
C5    N2    D    
C14   H6    S    
C20   C21   A    
C13   C23   A    
C1    C24   S    
C18   C19   S    
C5    H20   S    
C6    O6    A    
C4    O4    A    
C25   H4    S    
C17   H13   S    
C14   C15   S    
C15   H8    S    
O8    Zn1   S    
C12   C13   A    
C22   C23   A    
O7    Zn2   S    
C15   H7    S    
C16   H10   S    
C19   H17   S    
C8    C9    A    
C3    C5    S    
C6    O7    A    
C4    C20   S    
