data_mof_unit_17821.cif
_audit_creation_date              2012-12-11T15:50:35-0500
_audit_creation_method            fapswitch 2.2
_symmetry_space_group_name_H-M    P1
_symmetry_Int_Tables_number       1
_space_group_crystal_system       triclinic
_cell_length_a                    7.016319
_cell_length_b                    14.607864
_cell_length_c                    16.114365
_cell_angle_alpha                 89.999941
_cell_angle_beta                  90.000988
_cell_angle_gamma                 89.999953
_cell_volume                      1651.61660102

loop_
_atom_site_label
_atom_site_type_symbol
_atom_type_description
_atom_site_fract_x
_atom_site_fract_y
_atom_site_fract_z
_atom_type_partial_charge
O1    O     O_R   0.638140 0.833910 0.163320 -0.533446
O2    O     O_R   0.361860 0.166090 0.836680 -0.548409
O3    O     O_R   0.361860 0.166090 0.663320 -0.533444
O4    O     O_R   0.638140 0.833910 0.336680 -0.548408
O5    O     O_R   0.138140 0.666090 0.336680 -0.533441
O6    O     O_R   0.861860 0.333910 0.663320 -0.548414
O7    O     O_R   0.861860 0.333910 0.836680 -0.533444
O8    O     O_R   0.138140 0.666090 0.163320 -0.548413
O9    O     O_R   0.308390 0.844930 0.336080 -0.537626
O10   O     O_R   0.691610 0.155070 0.663920 -0.541878
O11   O     O_R   0.691610 0.155070 0.836080 -0.537627
O12   O     O_R   0.308390 0.844930 0.163920 -0.541876
O13   O     O_R   0.808390 0.655070 0.163920 -0.537631
O14   O     O_R   0.191610 0.344930 0.836080 -0.541876
O15   O     O_R   0.191610 0.344930 0.663920 -0.537627
O16   O     O_R   0.808390 0.655070 0.336080 -0.541875
C1    C     C_R   0.478263 0.870703 0.361156 0.682774
C2    C     C_R   0.521055 0.133893 0.634099 0.691363
C3    C     C_R   0.521738 0.129296 0.861156 0.682771
C4    C     C_R   0.478944 0.866106 0.134099 0.691355
C5    C     C_R   0.978262 0.629296 0.138844 0.682786
C6    C     C_R   0.021056 0.366106 0.865901 0.691366
C7    C     C_R   0.021736 0.370703 0.638844 0.682779
C8    C     C_R   0.978945 0.633894 0.365901 0.691370
O17   O     O_3   0.471620 0.691320 0.250000 -0.375316
O18   O     O_3   0.528380 0.308680 0.750000 -0.375314
O19   O     O_3   0.971620 0.808680 0.250000 -0.375308
O20   O     O_3   0.028380 0.191320 0.750000 -0.375311
V1    V     V_3+5 0.196770 0.760880 0.250000 1.359690
V2    V     V_3+5 0.803230 0.239120 0.750000 1.359686
V3    V     V_3+5 0.696770 0.739120 0.250000 1.359687
V4    V     V_3+5 0.303230 0.260880 0.750000 1.359686
C9    C     C_R   0.846586 0.560724 0.494260 -0.216017
C10   C     C_R   0.168723 0.455530 0.521481 -0.217531
C11   C     C_R   0.153424 0.439282 0.994258 -0.216057
C12   C     C_R   0.831268 0.544462 0.021483 -0.217531
C13   C     C_R   0.346589 0.939274 0.005734 -0.215999
C14   C     C_R   0.668728 0.044470 0.978522 -0.217528
C15   C     C_R   0.653405 0.060730 0.505736 -0.215990
C16   C     C_R   0.331280 0.955524 0.478525 -0.217522
H1    H     H_    0.731804 0.607472 0.487891 0.145549
H2    H     H_    0.297519 0.416465 0.532624 0.120849
H3    H     H_    0.268225 0.392544 0.987891 0.145549
H4    H     H_    0.702466 0.583523 0.032627 0.120845
H5    H     H_    0.231801 0.892526 0.012095 0.145536
H6    H     H_    0.797523 0.083535 0.967381 0.120850
H7    H     H_    0.768178 0.107484 0.512100 0.145533
H8    H     H_    0.202488 0.916455 0.467384 0.120851
C17   C     C_R   0.854300 0.503845 0.564785 0.160234
C18   C     C_R   0.169654 0.523509 0.459776 0.136668
C19   C     C_R   0.145708 0.496161 0.064784 0.160252
C20   C     C_R   0.830340 0.476484 0.959778 0.136682
C21   C     C_R   0.354310 0.996152 0.935209 0.160227
C22   C     C_R   0.669657 0.976491 0.040227 0.136677
C23   C     C_R   0.645686 0.003852 0.435209 0.160225
C24   C     C_R   0.330349 0.023501 0.540229 0.136671
C25   C     C_R   0.010970 0.442950 0.573702 -0.099961
C26   C     C_R   0.996735 0.568389 0.437989 -0.104570
C27   C     C_R   0.989027 0.557048 0.073703 -0.099958
C28   C     C_R   0.003265 0.431610 0.937990 -0.104561
C29   C     C_R   0.510977 0.057048 0.926297 -0.099970
C30   C     C_R   0.496735 0.931610 0.062010 -0.104563
C31   C     C_R   0.489026 0.942950 0.426298 -0.099977
C32   C     C_R   0.503265 0.068388 0.562011 -0.104570
C33   C     C_3   0.703758 0.518675 0.631455 -0.360894
C34   C     C_3   0.725574 0.612719 0.672079 -0.794360
H9    H     H_    0.867382 0.618127 0.702381 0.230157
H10   H     H_    0.711032 0.668678 0.625963 0.226234
H11   H     H_    0.613647 0.621771 0.720125 0.217604
H12   H     H_    0.559713 0.512316 0.603684 0.178741
H13   H     H_    0.710171 0.468968 0.682697 0.205849
C35   C     C_3   0.361133 0.559121 0.432636 -0.314090
C36   C     C_3   0.393056 0.654630 0.471271 -0.671088
H14   H     H_    0.263587 0.698063 0.472000 0.212380
H15   H     H_    0.436290 0.647614 0.537069 0.195916
H16   H     H_    0.503361 0.692444 0.436074 0.212346
H17   H     H_    0.476779 0.512742 0.453450 0.145964
H18   H     H_    0.374003 0.559471 0.364100 0.192849
C37   C     C_3   0.296272 0.481339 0.131449 -0.360921
C38   C     C_3   0.274459 0.387303 0.172091 -0.794308
H19   H     H_    0.132695 0.381925 0.202444 0.230127
H20   H     H_    0.288877 0.331333 0.125974 0.226244
H21   H     H_    0.386474 0.378243 0.220102 0.217593
H22   H     H_    0.440305 0.487688 0.103671 0.178731
H23   H     H_    0.289891 0.531054 0.182684 0.205867
C39   C     C_3   0.638858 0.440866 0.932638 -0.314109
C40   C     C_3   0.606947 0.345358 0.971275 -0.671050
H24   H     H_    0.736430 0.301928 0.971999 0.212385
H25   H     H_    0.563717 0.352378 0.037080 0.195920
H26   H     H_    0.496622 0.307542 0.936078 0.212336
H27   H     H_    0.523203 0.487241 0.953450 0.145957
H28   H     H_    0.625977 0.440513 0.864103 0.192858
C41   C     C_3   0.203784 0.981319 0.868530 -0.360892
C42   C     C_3   0.225599 0.887268 0.827918 -0.794345
H29   H     H_    0.367444 0.881841 0.797649 0.230158
H30   H     H_    0.210975 0.831315 0.874037 0.226226
H31   H     H_    0.113729 0.878224 0.779844 0.217597
H32   H     H_    0.059734 0.987689 0.896287 0.178744
H33   H     H_    0.210232 0.031016 0.817282 0.205834
C43   C     C_3   0.861139 0.940877 0.067366 -0.314110
C44   C     C_3   0.893058 0.845373 0.028725 -0.671068
H34   H     H_    0.763593 0.801931 0.028014 0.212394
H35   H     H_    0.936244 0.852400 0.962917 0.195920
H36   H     H_    0.003413 0.807566 0.063911 0.212328
H37   H     H_    0.976790 0.987254 0.046554 0.145971
H38   H     H_    0.874018 0.940519 0.135901 0.192856
C45   C     C_3   0.796210 0.018684 0.368532 -0.360873
C46   C     C_3   0.774406 0.112737 0.327920 -0.794284
H39   H     H_    0.632553 0.118173 0.297648 0.230145
H40   H     H_    0.789047 0.168691 0.374041 0.226209
H41   H     H_    0.886289 0.121772 0.279848 0.217589
H42   H     H_    0.940263 0.012308 0.396292 0.178735
H43   H     H_    0.789758 0.968987 0.317281 0.205821
C47   C     C_3   0.138872 0.059108 0.567374 -0.314117
C48   C     C_3   0.106929 0.154612 0.528737 -0.671079
H44   H     H_    0.236401 0.198050 0.528000 0.212381
H45   H     H_    0.063685 0.147588 0.462940 0.195910
H46   H     H_    0.996617 0.192422 0.563943 0.212361
H47   H     H_    0.023223 0.012728 0.546563 0.145982
H48   H     H_    0.126017 0.059464 0.635910 0.192850

loop_
_geom_bond_atom_site_label_1
_geom_bond_atom_site_label_2
_ccdc_geom_bond_type
O17   V3    S    
C34   H10   S    
C40   H24   S    
O18   V4    S    
C41   C42   S    
O12   V1    S    
O19   V1    S    
C45   H42   S    
O16   C8    A    
C10   H2    S    
C12   C27   A    
C47   C48   S    
O15   V4    S    
O16   V3    S    
C15   C32   A    
O11   C3    A    
C43   H37   S    
C9    C26   A    
C16   C31   A    
C17   C33   S    
O8    V1    S    
C3    C29   S    
C5    C27   S    
C39   H27   S    
C6    C28   S    
C37   H22   S    
C34   H11   S    
C9    C17   A    
C33   H12   S    
O1    V3    S    
C17   C25   A    
C46   H39   S    
O3    C2    A    
O2    V4    S    
C36   H14   S    
C18   C35   S    
C45   H43   S    
C35   H18   S    
C20   C28   A    
C21   C29   A    
C15   C23   A    
O11   V2    S    
C16   C24   A    
C23   C31   A    
C10   C25   A    
C45   C46   S    
C24   C32   A    
C11   H3    S    
C41   H33   S    
C47   H47   S    
C12   C20   A    
O9    V1    S    
C14   C29   A    
C13   C21   A    
O15   C7    A    
C34   H9    S    
C44   H35   S    
O7    V2    S    
C36   H15   S    
C22   C43   S    
O3    V4    S    
C38   H21   S    
C13   C30   A    
O5    V1    S    
O17   V1    S    
C10   C18   A    
O19   V3    S    
C18   C26   A    
C44   H34   S    
O20   V4    S    
C38   H20   S    
C39   C40   S    
C35   C36   S    
C22   C30   A    
C42   H31   S    
C48   H45   S    
C33   H13   S    
C21   C41   S    
C23   C45   S    
C11   C28   A    
C35   H17   S    
O10   V2    S    
C14   C22   A    
C48   H46   S    
O12   C4    A    
O8    C5    A    
O13   C5    A    
C42   H30   S    
C7    C25   S    
O4    C1    A    
O9    C1    A    
O6    V2    S    
O18   V2    S    
C44   H36   S    
C40   H25   S    
C11   C19   A    
C36   H16   S    
C12   H4    S    
C19   C27   A    
C13   H5    S    
C37   H23   S    
C15   H7    S    
C16   H8    S    
O1    C4    A    
O2    C3    A    
O13   V3    S    
O14   V4    S    
C38   H19   S    
O7    C6    A    
C43   H38   S    
C46   H41   S    
C9    H1    S    
O14   C6    A    
O20   V2    S    
C39   H28   S    
C1    C31   S    
C2    C32   S    
O5    C8    A    
O10   C2    A    
O6    C7    A    
C20   C39   S    
C43   C44   S    
C46   H40   S    
C4    C30   S    
C42   H29   S    
C19   C37   S    
C14   H6    S    
O4    V3    S    
C37   C38   S    
C8    C26   S    
C33   C34   S    
C40   H26   S    
C24   C47   S    
C41   H32   S    
C47   H48   S    
C48   H44   S    
