data_mof_unit_13666.cif
_audit_creation_date              2012-12-10T19:46:52-0500
_audit_creation_method            fapswitch 2.2
_symmetry_space_group_name_H-M    P1
_symmetry_Int_Tables_number       1
_space_group_crystal_system       triclinic
_cell_length_a                    10.945557
_cell_length_b                    10.932589
_cell_length_c                    13.111474
_cell_angle_alpha                 90.512345
_cell_angle_beta                  90.118565
_cell_angle_gamma                 89.75204
_cell_volume                      1568.88127804

loop_
_atom_site_label
_atom_site_type_symbol
_atom_type_description
_atom_site_fract_x
_atom_site_fract_y
_atom_site_fract_z
_atom_type_partial_charge
C1    C     C_R   0.495859 0.259498 0.499208 0.866941
C2    C     C_R   0.504132 0.740483 0.500778 0.836969
C3    C     C_R   0.873047 0.498524 0.501078 -0.117669
C4    C     C_R   0.126943 0.501986 0.499024 -0.117863
C5    C     C_R   0.938477 0.452314 0.585727 -0.052149
C6    C     C_R   0.061513 0.548195 0.414384 -0.050503
C7    C     C_R   0.303337 0.194518 0.180408 0.396250
C8    C     C_R   0.698470 0.805301 0.818997 0.405372
C9    C     C_R   0.324722 0.148850 0.279356 0.463315
C10   C     C_R   0.676826 0.850969 0.720080 0.434858
C11   C     C_R   0.445522 0.115514 0.307995 -0.089627
C12   C     C_R   0.555911 0.884294 0.691681 -0.084719
C13   C     C_R   0.541499 0.129062 0.238281 -0.176846
C14   C     C_R   0.460094 0.870385 0.761502 -0.165542
C15   C     C_R   0.519575 0.174771 0.141178 -0.176912
C16   C     C_R   0.482271 0.824451 0.858491 -0.180452
C17   C     C_R   0.401444 0.206862 0.112031 -0.305544
C18   C     C_R   0.600510 0.792559 0.887455 -0.304686
C19   C     C_R   0.481546 0.932800 0.410485 -0.185151
C20   C     C_R   0.519101 0.067127 0.589392 -0.170946
C21   C     C_R   0.504268 0.872888 0.502252 -0.081902
C22   C     C_R   0.496129 0.127068 0.497666 -0.044284
C23   C     C_R   0.259519 0.501909 0.499664 0.971270
C24   C     C_R   0.740483 0.498410 0.500357 0.951617
C25   C     C_R   0.526237 0.940701 0.592527 0.100957
C26   C     C_R   0.474813 0.059232 0.407269 0.114727
C27   C     C_1   0.500142 0.500127 0.173556 0.186056
C28   C     C_1   0.499862 0.499861 0.826444 0.186419
C29   C     C_1   0.500102 0.500096 0.050683 -0.098160
C30   C     C_1   0.499906 0.499885 0.949317 -0.098410
C31   C     C_R   0.234128 0.746214 0.225231 0.379581
C32   C     C_R   0.765759 0.253933 0.774568 0.378302
C33   C     C_R   0.181026 0.706012 0.317664 0.426707
C34   C     C_R   0.818820 0.294346 0.682187 0.423303
C35   C     C_R   0.124516 0.590535 0.320694 -0.009595
C36   C     C_R   0.875489 0.409766 0.679368 -0.008407
C37   C     C_R   0.122091 0.515921 0.233184 -0.147705
C38   C     C_R   0.878112 0.484091 0.767046 -0.150712
C39   C     C_R   0.176336 0.554496 0.143086 -0.197044
C40   C     C_R   0.823829 0.445350 0.857074 -0.196952
C41   C     C_R   0.231702 0.668845 0.138733 -0.260713
C42   C     C_R   0.768305 0.331065 0.861212 -0.259149
C43   C     C_R   0.933587 0.548924 0.416877 0.377288
C44   C     C_R   0.066399 0.451659 0.583262 0.383600
Cu1   Cu    Cu3+1 0.499990 0.499990 0.592680 1.033097
Cu2   Cu    Cu3+1 0.500010 0.500010 0.407320 1.030960
H1    H     H_    0.272147 0.697443 0.067552 0.148938
H2    H     H_    0.727877 0.302308 0.932353 0.148734
H3    H     H_    0.633813 0.103154 0.259219 0.183727
H4    H     H_    0.367692 0.896168 0.740731 0.181430
H5    H     H_    0.594358 0.184706 0.088020 0.163095
H6    H     H_    0.407605 0.814230 0.911721 0.162624
H7    H     H_    0.467466 0.880800 0.340804 0.189625
H8    H     H_    0.533019 0.119109 0.659094 0.186382
H9    H     H_    0.077058 0.428024 0.234779 0.231991
H10   H     H_    0.923372 0.571867 0.765656 0.232441
H11   H     H_    0.174420 0.496110 0.076007 0.172232
H12   H     H_    0.825878 0.503542 0.924269 0.171905
H13   H     H_    0.386348 0.241405 0.035876 0.157951
H14   H     H_    0.615818 0.757945 0.963561 0.157069
N1    N     N_1   0.500030 0.500030 0.268070 -0.136026
N2    N     N_1   0.499970 0.499970 0.731930 -0.135832
O1    O     O_R   0.499980 0.319630 0.578260 -0.588296
O2    O     O_R   0.500020 0.680370 0.421740 -0.589838
O3    O     O_R   0.500000 0.319650 0.421740 -0.589018
O4    O     O_R   0.500000 0.680350 0.578260 -0.585332
O5    O     O_R   0.319630 0.500000 0.578260 -0.530713
O6    O     O_R   0.680370 0.500000 0.421740 -0.532441
O7    O     O_R   0.319650 0.500020 0.421740 -0.598239
O8    O     O_R   0.680350 0.499980 0.578260 -0.600137
O9    O     O_3   0.285279 0.861175 0.220469 -0.751497
H15   H     H_    0.318046 0.874329 0.150972 0.323358
O10   O     O_3   0.714621 0.138957 0.779162 -0.751570
H16   H     H_    0.681916 0.125609 0.848660 0.323574
O11   O     O_3   0.181158 0.776814 0.405485 -0.705317
H17   H     H_    0.229247 0.851684 0.394031 0.395983
O12   O     O_3   0.818565 0.223771 0.594229 -0.701095
H18   H     H_    0.769497 0.149397 0.605254 0.398640
O13   O     O_3   0.864486 0.600452 0.339380 -0.720002
H19   H     H_    0.913975 0.658552 0.299698 0.338497
O14   O     O_3   0.135490 0.400180 0.660792 -0.709661
H20   H     H_    0.086051 0.341976 0.700415 0.338379
O15   O     O_3   0.185650 0.224939 0.151713 -0.684558
H21   H     H_    0.186384 0.254752 0.080524 0.313616
O16   O     O_3   0.816312 0.775465 0.847635 -0.684643
H22   H     H_    0.815827 0.745598 0.918831 0.312921
S1    S     S_3+6 0.197112 0.133400 0.362194 0.044630
O17   O     O_2   0.139901 0.257252 0.377313 -0.309806
O18   O     O_2   0.105196 0.050930 0.311610 -0.200129
O19   O     O_3   0.232961 0.076048 0.477024 -0.566295
H23   H     H_    0.155245 0.076769 0.515690 0.406183
S2    S     S_3+6 0.804491 0.867223 0.637363 0.048515
O20   O     O_2   0.894353 0.952929 0.686670 -0.183377
O21   O     O_2   0.865524 0.744644 0.625080 -0.320839
O22   O     O_3   0.768733 0.921474 0.521329 -0.535339
H24   H     H_    0.770419 0.849488 0.474857 0.361612

loop_
_geom_bond_atom_site_label_1
_geom_bond_atom_site_label_2
_ccdc_geom_bond_type
C7    O15   S    
S1    O17   D    
C27   C29   S    
O10   H16   S    
C23   O7    A    
O22   H24   S    
O14   H20   S    
C24   O8    A    
C39   C41   A    
O12   H18   S    
C3    C43   A    
C19   C21   A    
C34   O12   S    
C20   C25   A    
C43   O13   S    
C39   H11   S    
C5    C36   S    
Cu1   N2    S    
C6    C35   S    
C7    C9    A    
C8    O16   S    
C23   O5    A    
C19   C26   A    
Cu2   O7    S    
C27   N1    T    
C33   O11   S    
C7    C17   A    
Cu1   O5    S    
C1    O3    A    
C31   C33   A    
C15   H5    S    
C19   H7    S    
C40   C42   A    
C10   S2    S    
C1    C22   S    
C20   H8    S    
C3    C24   S    
C1    O1    A    
C2    O2    A    
C40   H12   S    
Cu2   N1    S    
Cu2   O3    S    
C4    C6    A    
C44   O14   S    
C32   O10   S    
C4    C23   S    
C4    C44   A    
C11   C26   S    
C2    O4    A    
O16   H22   S    
Cu1   O1    S    
S2    O22   S    
C8    C18   A    
Cu2   O2    S    
C32   C34   A    
O11   H17   S    
Cu2   O6    S    
C29   C30   T    
O15   H21   S    
C2    C21   S    
S2    O21   D    
C41   H1    S    
C16   C18   A    
C42   H2    S    
C9    C11   A    
C10   C12   A    
C17   H13   S    
C13   H3    S    
C18   H14   S    
C5    C44   A    
C12   C14   A    
C6    C43   A    
C13   C15   A    
C14   C16   A    
C15   C17   A    
C21   C25   A    
C31   C41   A    
C35   C37   A    
Cu1   O8    S    
C16   H6    S    
C20   C22   A    
C3    C5    A    
C12   C25   S    
C36   C38   A    
O9    H15   S    
C37   C39   A    
C9    S1    S    
C38   C40   A    
C11   C13   A    
O19   H23   S    
C14   H4    S    
C28   C30   S    
S2    O20   D    
C33   C35   A    
C34   C36   A    
C24   O6    A    
O13   H19   S    
C37   H9    S    
Cu1   Cu2   S    
C38   H10   S    
C8    C10   A    
C22   C26   A    
S1    O19   S    
Cu1   O4    S    
S1    O18   D    
C32   C42   A    
C31   O9    S    
C28   N2    T    
