data_mof_unit_39400.cif
_audit_creation_date              2012-12-11T15:55:54-0500
_audit_creation_method            fapswitch 2.2
_symmetry_space_group_name_H-M    P1
_symmetry_Int_Tables_number       1
_space_group_crystal_system       triclinic
_cell_length_a                    11.133511
_cell_length_b                    11.094473
_cell_length_c                    18.725585
_cell_angle_alpha                 91.032757
_cell_angle_beta                  90.57053
_cell_angle_gamma                 58.747545
_cell_volume                      1977.03157203

loop_
_atom_site_label
_atom_site_type_symbol
_atom_type_description
_atom_site_fract_x
_atom_site_fract_y
_atom_site_fract_z
_atom_type_partial_charge
C1    C     C_R   0.355233 0.776601 0.399481 0.532128
C2    C     C_R   0.252967 0.429326 0.204969 -0.147866
C3    C     C_R   0.241465 0.439750 0.279232 -0.029203
C4    C     C_R   0.380160 0.348698 0.390958 0.522599
C5    C     C_R   0.923751 0.822293 0.386319 -0.103182
C6    C     C_R   0.952315 0.691670 0.409168 -0.099862
C7    C     C_R   0.055170 0.569414 0.374580 -0.053248
C8    C     C_R   0.127282 0.574395 0.314055 0.070860
C9    C     C_R   0.341130 0.322528 0.319328 -0.019549
C10   C     C_R   0.862415 0.350115 0.184004 -0.000690
C11   C     C_R   0.770886 0.312334 0.208307 -0.008584
C12   C     C_R   0.609432 0.077734 0.182089 0.013417
C13   C     C_R   0.751338 0.312715 0.281733 -0.007333
C14   C     C_R   0.910051 0.391730 0.304592 -0.186580
C15   C     C_R   0.914860 0.411026 0.231934 -0.041043
C16   C     C_R   0.776595 0.377472 0.402939 0.540164
C17   C     C_3   0.616275 0.400226 0.195210 -0.282553
C18   C     C_3   0.595943 0.398205 0.274156 -0.249123
C19   C     C_R   0.828968 0.341044 0.330669 -0.013788
C20   C     C_R   0.302828 0.931687 0.188087 0.020858
C21   C     C_R   0.425084 0.809858 0.209868 0.008794
C22   C     C_R   0.440939 0.767198 0.280272 -0.005509
C23   C     C_R   0.355107 0.305603 0.169975 -0.000377
C24   C     C_R   0.211037 0.961699 0.309444 -0.162871
C25   C     C_R   0.194304 0.006066 0.238350 -0.164740
C26   C     C_3   0.571310 0.782186 0.210889 -0.275729
C27   C     C_3   0.588503 0.730856 0.285736 -0.253737
C28   C     C_R   0.341279 0.773299 0.602917 0.536713
C29   C     C_R   0.336951 0.842143 0.330753 0.025311
C30   C     C_R   0.296513 0.305013 0.807513 0.003325
C31   C     C_R   0.409300 0.196581 0.770284 0.024453
C32   C     C_R   0.421613 0.199738 0.698357 0.009596
C33   C     C_R   0.191781 0.410410 0.692758 -0.051020
C34   C     C_R   0.438875 0.194066 0.284315 -0.158110
C35   C     C_R   0.179789 0.405591 0.767637 -0.170802
C36   C     C_3   0.563266 0.124621 0.783988 -0.274129
C37   C     C_3   0.578982 0.127507 0.704153 -0.262213
C38   C     C_R   0.321864 0.316102 0.659603 0.003837
C39   C     C_R   0.810735 0.328044 0.837292 0.016547
C40   C     C_R   0.368776 0.348597 0.594433 0.541943
C41   C     C_R   0.734249 0.460957 0.806488 0.015615
C42   C     C_R   0.723358 0.473091 0.733474 0.032671
C43   C     C_R   0.840175 0.222067 0.718194 -0.176534
C44   C     C_R   0.851949 0.208440 0.792804 -0.164492
C45   C     C_R   0.460559 0.187054 0.210198 -0.022499
C46   C     C_3   0.740289 0.592425 0.815036 -0.280645
C47   C     C_3   0.732902 0.601918 0.734595 -0.266518
C48   C     C_R   0.785861 0.355396 0.687815 0.022158
C49   C     C_R   0.283552 0.880052 0.818968 0.019105
C50   C     C_R   0.180728 0.870040 0.781929 0.014306
C51   C     C_R   0.188295 0.853785 0.708986 0.017795
C52   C     C_R   0.759045 0.379182 0.611598 0.547255
C53   C     C_R   0.380476 0.893989 0.705075 -0.167697
C54   C     C_R   0.375787 0.905726 0.779515 -0.156000
C55   C     C_3   0.130014 0.771130 0.792250 -0.286468
C56   C     C_R   0.097746 0.707668 0.291920 -0.041272
C57   C     C_3   0.139261 0.751309 0.711973 -0.248350
C58   C     C_R   0.298365 0.849446 0.670547 0.020493
C59   C     C_R   0.911485 0.318498 0.111568 0.537349
C60   C     C_R   0.327934 0.289438 0.094752 0.543369
C61   C     C_R   0.272115 0.962174 0.112149 0.559036
C62   C     C_R   0.880375 0.309996 0.905827 0.551776
C63   C     C_R   0.292124 0.284940 0.883583 0.554745
C64   C     C_R   0.884048 0.917948 0.122232 -0.064017
C65   C     C_R   0.270384 0.903600 0.895479 0.553579
C66   C     C_R   0.860475 0.995181 0.185029 -0.083122
C67   C     C_R   0.998677 0.829863 0.329299 -0.072630
C68   C     C_R   0.727656 0.063858 0.217643 -0.107517
C69   C     C_1   0.923946 0.529938 0.210150 0.221461
C70   C     C_1   0.075339 0.515361 0.651375 0.182473
C71   C     C_R   0.641986 0.982729 0.123287 -0.063928
C72   C     C_R   0.775654 0.906683 0.092981 -0.106727
Cr1   Cr    Cr6+3 0.601740 0.606840 0.505840 1.012475
Cr2   Cr    Cr6+3 0.291500 0.601560 0.495070 1.033547
Cr3   Cr    Cr6+3 0.606780 0.291630 0.499130 0.999612
Cr4   Cr    Cr6+3 0.062440 0.063060 0.008240 0.999945
Cr5   Cr    Cr6+3 0.062950 0.375000 0.998920 1.012405
Cr6   Cr    Cr6+3 0.374550 0.061770 0.992470 0.985206
H1    H     H_    0.516167 0.106670 0.315892 0.133657
H2    H     H_    0.126611 0.019925 0.347378 0.117226
H3    H     H_    0.795056 0.837876 0.047234 0.098863
H4    H     H_    0.096050 0.096966 0.222229 0.120093
H5    H     H_    0.570734 0.880512 0.213164 0.152044
H6    H     H_    0.640936 0.700924 0.171005 0.157688
H7    H     H_    0.662166 0.617080 0.290064 0.163925
H8    H     H_    0.604584 0.796721 0.325701 0.152530
H9    H     H_    0.083066 0.481367 0.794308 0.123741
H10   H     H_    0.608033 0.016270 0.804665 0.133934
H11   H     H_    0.592968 0.192473 0.814279 0.147371
H12   H     H_    0.847087 0.917494 0.414292 0.106432
H13   H     H_    0.619423 0.196092 0.689048 0.175920
H14   H     H_    0.981486 0.931455 0.316233 0.094257
H15   H     H_    0.633558 0.020774 0.678751 0.135570
H16   H     H_    0.878585 0.128729 0.684594 0.128265
H17   H     H_    0.906321 0.103544 0.814720 0.145494
H18   H     H_    0.841202 0.576577 0.835547 0.160865
H19   H     H_    0.645166 0.678821 0.841965 0.137065
H20   H     H_    0.637318 0.694481 0.714258 0.152664
H21   H     H_    0.831499 0.583133 0.710886 0.170153
H22   H     H_    0.457865 0.904697 0.675904 0.123653
H23   H     H_    0.898856 0.684561 0.455408 0.128104
H24   H     H_    0.448209 0.929139 0.805952 0.143085
H25   H     H_    0.020415 0.825688 0.812635 0.134391
H26   H     H_    0.987391 0.861559 0.098306 0.138996
H27   H     H_    0.206524 0.674628 0.821507 0.142121
H28   H     H_    0.222459 0.643351 0.695164 0.168785
H29   H     H_    0.035104 0.793120 0.686022 0.156835
H30   H     H_    0.945839 0.001793 0.208010 0.110852
H31   H     H_    0.717233 0.108656 0.270146 0.118636
H32   H     H_    0.155171 0.716876 0.248142 0.104999
H33   H     H_    0.568103 0.957800 0.102380 0.177881
H34   H     H_    0.086542 0.469288 0.398617 0.097281
H35   H     H_    0.180343 0.518396 0.173194 0.153673
H36   H     H_    0.942096 0.442269 0.341358 0.130947
H37   H     H_    0.577717 0.343164 0.162485 0.157091
H38   H     H_    0.582218 0.507039 0.175244 0.142716
H39   H     H_    0.545669 0.501658 0.301789 0.146421
H40   H     H_    0.551103 0.336419 0.288849 0.161806
N1    N     N_1   0.924332 0.628695 0.191806 -0.328076
N2    N     N_1   0.983727 0.598928 0.617048 -0.335937
O1    O     O_R   0.748670 0.497520 0.427970 -0.526128
O2    O     O_R   0.417470 0.174910 0.067830 -0.542239
O3    O     O_R   0.375160 0.946380 0.070880 -0.526631
O4    O     O_R   0.476470 0.723930 0.429450 -0.507484
O5    O     O_R   0.160500 0.919670 0.926690 -0.513208
O6    O     O_R   0.933140 0.190380 0.936050 -0.506817
O7    O     O_R   0.909010 0.403210 0.925030 -0.527917
O8    O     O_R   0.179590 0.361290 0.918480 -0.506552
O9    O     O_R   0.391360 0.170840 0.907510 -0.522091
O10   O     O_R   0.350950 0.942600 0.922260 -0.513424
O11   O     O_3   0.166650 0.166610 0.999880 -0.272165
O12   O     O_R   0.300170 0.471020 0.567120 -0.492632
O13   O     O_R   0.264730 0.744140 0.416740 -0.508244
O14   O     O_R   0.309440 0.472410 0.418220 -0.492633
O15   O     O_R   0.501630 0.260530 0.414310 -0.533743
O16   O     O_R   0.727920 0.305730 0.428950 -0.501000
O17   O     O_R   0.738670 0.496020 0.588600 -0.498841
O18   O     O_R   0.467190 0.722540 0.578350 -0.506782
O19   O     O_R   0.254720 0.742640 0.577370 -0.517746
O20   O     O_R   0.491630 0.259030 0.574940 -0.528151
O21   O     O_R   0.718640 0.304340 0.577850 -0.515500
O22   O     O_3   0.500010 0.500010 0.500020 -0.253851
O23   O     O_R   0.186620 0.923750 0.087000 -0.524329
O24   O     O_R   0.957350 0.194160 0.084660 -0.515050
O25   O     O_R   0.935120 0.407280 0.085350 -0.509768
O26   O     O_R   0.203800 0.365060 0.067090 -0.495748

loop_
_geom_bond_atom_site_label_1
_geom_bond_atom_site_label_2
_ccdc_geom_bond_type
C36   H11   S    
C66   C68   A    
C21   C26   S    
C26   H5    S    
C23   C45   A    
C22   C29   A    
Cr2   O12   S    
Cr4   O6    S    
C41   C42   A    
C5    C67   A    
C8    C56   A    
C65   O10   A    
C7    C8    A    
C39   C41   A    
C53   C54   A    
C36   H10   S    
C12   C68   A    
C26   C27   S    
C47   H20   S    
C49   C65   S    
C13   C18   S    
C55   H27   S    
C36   C37   S    
Cr6   O9    S    
Cr3   O20   S    
C62   O7    A    
Cr4   O11   S    
Cr3   O15   S    
C20   C25   A    
C49   C54   A    
Cr2   O13   S    
C55   H25   S    
C43   H16   S    
C47   H21   S    
C7    H34   S    
Cr5   O11   S    
C6    H23   S    
C20   C61   S    
C27   H7    S    
C24   C29   A    
Cr3   O21   S    
C33   C35   A    
C35   H9    S    
C61   O23   A    
C70   N2    T    
C71   H33   S    
C50   C55   S    
C41   C46   S    
C51   C57   S    
C32   C38   A    
C52   O17   A    
C43   C48   A    
C18   H40   S    
C72   H3    S    
Cr5   O7    S    
C68   H31   S    
C64   C72   A    
C57   H28   S    
Cr2   O22   S    
C54   H24   S    
C21   C22   A    
Cr4   O5    S    
C28   O19   A    
C60   O26   A    
C1    O13   A    
C56   H32   S    
C24   H2    S    
C50   C51   A    
Cr1   O22   S    
C53   H22   S    
C23   C60   S    
C15   C69   S    
C13   C19   A    
C28   O18   A    
C24   C25   A    
C3    C8    S    
C62   O6    A    
C37   H13   S    
Cr3   O16   S    
C14   H36   S    
C69   N1    T    
C65   O5    A    
C27   H8    S    
C16   O1    A    
C3    C9    A    
Cr3   O22   S    
C34   H1    S    
C31   C32   A    
C30   C31   A    
Cr1   O4    S    
C1    C29   S    
C17   C18   S    
C37   H15   S    
C51   C58   A    
C42   C48   A    
C32   C37   S    
C60   O2    A    
Cr6   O3    S    
C18   H39   S    
C6    C7    A    
Cr5   O8    S    
C34   C45   A    
C33   C70   S    
C4    O15   A    
C59   O25   A    
C57   H29   S    
C46   H19   S    
C59   O24   A    
Cr1   O1    S    
C22   C27   S    
C55   C57   S    
C43   C44   A    
C9    C34   A    
C5    H12   S    
C16   O16   A    
Cr5   O25   S    
C17   H37   S    
C4    O14   A    
C64   H26   S    
C39   C62   S    
C46   C47   S    
C11   C17   S    
C26   H6    S    
C31   C36   S    
C14   C19   A    
C12   C71   A    
Cr6   O11   S    
C63   O8    A    
C66   H30   S    
C12   C45   S    
Cr4   O24   S    
C53   C58   A    
C39   C44   A    
C28   C58   S    
C56   C67   A    
C30   C35   A    
Cr2   O19   S    
C52   O21   A    
C61   O3    A    
C10   C15   A    
C2    C3    A    
Cr6   O10   S    
C1    O4    A    
C71   C72   A    
C44   H17   S    
C38   C40   S    
C11   C13   A    
C5    C6    A    
Cr1   O17   S    
C25   H4    S    
C16   C19   S    
Cr2   O14   S    
C67   H14   S    
C2    H35   S    
C40   O20   A    
C42   C47   S    
C63   O9    A    
C40   O12   A    
Cr6   O2    S    
C10   C11   A    
Cr4   O23   S    
C48   C52   S    
C46   H18   S    
C20   C21   A    
C49   C50   A    
Cr1   O18   S    
C2    C23   A    
C14   C15   A    
C33   C38   A    
C4    C9    S    
C30   C63   S    
C10   C59   S    
Cr5   O26   S    
C17   H38   S    
C64   C66   A    
