data_mof_unit_18251.cif
_audit_creation_date              2012-12-11T15:47:59-0500
_audit_creation_method            fapswitch 2.2
_symmetry_space_group_name_H-M    P1
_symmetry_Int_Tables_number       1
_space_group_crystal_system       triclinic
_cell_length_a                    6.930356
_cell_length_b                    17.587522
_cell_length_c                    19.45484
_cell_angle_alpha                 108.465779
_cell_angle_beta                  89.639349
_cell_angle_gamma                 90.584568
_cell_volume                      2249.08713371

loop_
_atom_site_label
_atom_site_type_symbol
_atom_type_description
_atom_site_fract_x
_atom_site_fract_y
_atom_site_fract_z
_atom_type_partial_charge
O1    O     O_R   0.494330 0.415710 0.413720 -0.506872
O2    O     O_R   0.819360 0.430070 0.560210 -0.545645
O3    O     O_R   0.994320 0.584290 0.586280 -0.544387
C1    C     C_R   0.650338 0.415491 0.582242 0.705618
O4    O     O_R   0.823740 0.406290 0.412670 -0.542055
O5    O     O_R   0.998730 0.560340 0.437690 -0.542604
C2    C     C_R   0.654265 0.383595 0.384263 0.717047
O6    O     O_R   0.489920 0.439660 0.562310 -0.537456
O7    O     O_3   0.662330 0.550570 0.508380 -0.379225
V1    V     V_3+5 0.935370 0.490620 0.498440 1.430309
O8    O     O_R   0.328720 0.569930 0.439790 -0.542034
C3    C     C_R   0.160663 0.585033 0.418120 0.707716
O9    O     O_R   0.324340 0.593710 0.587330 -0.545465
C4    C     C_R   0.155270 0.616861 0.615350 0.683216
V2    V     V_3+5 0.435940 0.509380 0.501560 1.440720
O10   O     O_3   0.159110 0.449430 0.491620 -0.355152
C5    C     C_R   0.312323 0.723907 0.718683 -0.148456
H1    H     H_    0.453233 0.704955 0.695631 0.115269
C6    C     C_R   0.300992 0.787688 0.783611 -0.148829
H2    H     H_    0.433809 0.815999 0.808434 0.117748
C7    C     C_R   0.121147 0.814585 0.815893 -0.046816
C8    C     C_R   0.952973 0.775860 0.781355 -0.152459
H3    H     H_    0.812055 0.794801 0.804404 0.116818
C9    C     C_R   0.964304 0.712084 0.716433 -0.146713
H4    H     H_    0.831477 0.683772 0.691620 0.118496
C10   C     C_R   0.144135 0.685219 0.684124 -0.043148
C11   C     C_R   0.307704 0.633820 0.321244 -0.227690
C12   C     C_R   0.153021 0.634230 0.368657 -0.089329
C13   C     C_R   0.989828 0.681011 0.367874 -0.220540
C14   C     C_R   0.981529 0.727734 0.321241 0.090924
C15   C     C_R   0.136240 0.726232 0.273308 0.054294
C16   C     C_R   0.299277 0.678658 0.272993 0.091957
C17   C     C_R   0.821338 0.776116 0.321754 -0.190757
C18   C     C_R   0.813212 0.821882 0.274631 -0.183787
C19   C     C_R   0.964851 0.819972 0.225952 0.091447
C20   C     C_R   0.127866 0.772379 0.225602 0.053056
C21   C     C_R   0.282663 0.770970 0.177726 0.087895
C22   C     C_R   0.442697 0.722462 0.177127 -0.181697
C23   C     C_R   0.450768 0.676645 0.224226 -0.180453
C24   C     C_R   0.956692 0.865057 0.177915 -0.219729
C25   C     C_R   0.111689 0.864984 0.130726 -0.082735
C26   C     C_R   0.274684 0.818001 0.131323 -0.214051
H5    H     H_    0.433284 0.597464 0.321006 0.118851
H6    H     H_    0.870263 0.681941 0.404338 0.126400
H7    H     H_    0.701516 0.778219 0.358350 0.134113
H8    H     H_    0.687430 0.858424 0.275954 0.134975
H9    H     H_    0.831146 0.901464 0.178238 0.123314
H10   H     H_    0.394377 0.817226 0.094953 0.129190
H11   H     H_    0.562532 0.720368 0.140540 0.137607
H12   H     H_    0.576509 0.640076 0.222890 0.135807
C27   C     C_R   0.782410 0.184485 0.869591 -0.201988
C28   C     C_R   0.623415 0.134096 0.868761 -0.079464
C29   C     C_R   0.470483 0.131170 0.821021 -0.186307
C30   C     C_R   0.476041 0.177204 0.773965 0.117231
C31   C     C_R   0.635148 0.228728 0.775456 0.052505
C32   C     C_R   0.789239 0.233291 0.824084 0.036295
C33   C     C_R   0.323636 0.172791 0.725731 -0.195399
C34   C     C_R   0.327129 0.219136 0.679297 -0.193561
C35   C     C_R   0.483086 0.270815 0.680183 0.119483
C36   C     C_R   0.638639 0.275744 0.728397 0.052926
C37   C     C_R   0.796297 0.327740 0.729559 0.034752
C38   C     C_R   0.948183 0.334074 0.779570 -0.093602
C39   C     C_R   0.944724 0.287002 0.826587 -0.094073
C40   C     C_R   0.485245 0.317628 0.633605 -0.190986
C41   C     C_R   0.643040 0.367862 0.632915 -0.078596
C42   C     C_R   0.797225 0.372497 0.680740 -0.196091
H13   H     H_    0.898637 0.186400 0.907053 0.136602
H14   H     H_    0.347484 0.092176 0.819909 0.115699
H15   H     H_    0.200544 0.133819 0.724305 0.126776
H16   H     H_    0.206777 0.214962 0.642945 0.127880
H17   H     H_    0.365845 0.313788 0.596865 0.120718
H18   H     H_    0.917158 0.412207 0.680074 0.132968
C43   C     C_R   0.805778 0.270943 0.285758 -0.224989
H19   H     H_    0.942451 0.284352 0.313740 0.194176
C44   C     C_R   0.796472 0.207226 0.220840 -0.152331
H20   H     H_    0.926748 0.173959 0.200585 0.137085
C45   C     C_R   0.621129 0.185852 0.183370 -0.107746
C46   C     C_R   0.455988 0.230490 0.211940 -0.233035
H21   H     H_    0.318607 0.215012 0.184560 0.135646
C47   C     C_R   0.464903 0.296114 0.275918 0.470041
C48   C     C_R   0.640957 0.316006 0.314726 -0.150516
O11   O     O_R   0.774940 0.060470 0.937800 -0.541072
O12   O     O_R   0.440880 0.093730 0.087350 -0.542927
O13   O     O_R   0.266130 0.939630 0.062280 -0.540318
C49   C     C_R   0.609972 0.117015 0.115212 0.715058
O14   O     O_R   0.445480 0.069960 0.939820 -0.538754
O15   O     O_R   0.270770 0.915690 0.913690 -0.542642
C50   C     C_R   0.614666 0.084962 0.918140 0.711114
O16   O     O_R   0.770300 0.084410 0.086380 -0.542643
O17   O     O_3   0.602600 0.949510 0.991670 -0.371850
V3    V     V_3+5 0.329470 0.009370 0.001550 1.412608
O18   O     O_R   0.940760 0.906160 0.912560 -0.544107
C51   C     C_R   0.109902 0.883018 0.884613 0.684197
O19   O     O_R   0.936150 0.929930 0.060100 -0.542282
C52   C     C_R   0.104221 0.914667 0.081644 0.711718
V4    V     V_3+5 0.828930 0.990450 0.998310 1.404291
O20   O     O_3   0.105670 0.050490 0.008320 -0.367509
C53   C     C_1   0.107392 0.389725 0.783835 0.317756
N1    N     N_1   0.234245 0.434094 0.787315 -0.345897
C54   C     C_1   0.100451 0.295212 0.878122 0.317763
N2    N     N_1   0.224553 0.301860 0.919205 -0.347240
O21   O     O_3   0.297474 0.337330 0.302474 -0.555849
C55   C     C_3   0.261147 0.391275 0.263821 -0.234197
H22   H     H_    0.383582 0.434149 0.268635 0.117104
H23   H     H_    0.131740 0.426798 0.287509 0.155043
H24   H     H_    0.229549 0.358971 0.205843 0.133835

loop_
_geom_bond_atom_site_label_1
_geom_bond_atom_site_label_2
_ccdc_geom_bond_type
C24   H9    S    
C31   C32   A    
O15   V3    S    
C17   H7    S    
C43   H19   S    
C19   C20   A    
C1    O6    A    
O17   V3    S    
C22   H11   S    
C29   C30   A    
C35   C40   A    
C13   C14   A    
C3    C12   S    
C5    C10   A    
C12   C13   A    
C6    C7    A    
C21   C22   A    
C9    C10   A    
C18   C19   A    
O14   V3    S    
C15   C20   A    
O5    C3    A    
C14   C15   A    
O14   C50   A    
C40   H17   S    
V2    O10   S    
O18   V4    S    
C27   C32   A    
C25   C26   A    
C16   C23   A    
C21   C26   A    
C29   H14   S    
C1    C41   S    
C54   N2    T    
C38   C53   S    
O8    V2    S    
C37   C42   A    
C42   H18   S    
C6    H2    S    
C18   H8    S    
O13   V3    S    
O9    C4    A    
O7    V1    S    
C45   C49   S    
C35   C36   A    
C31   C36   A    
C43   C44   A    
O21   C55   S    
C43   C48   A    
C5    H1    S    
C22   C23   A    
O11   V4    S    
C27   C28   A    
C28   C50   S    
C9    H4    S    
O4    C2    A    
C49   O16   A    
C46   H21   S    
C34   H16   S    
C27   H13   S    
C39   C54   S    
C34   C35   A    
C45   C46   A    
C4    C10   S    
C47   O21   S    
C36   C37   A    
O13   C52   A    
O2    C1    A    
C44   H20   S    
C38   C39   A    
C15   C16   A    
V4    O20   S    
C17   C18   A    
C32   C39   A    
O19   C52   A    
C55   H23   S    
C26   H10   S    
V3    O20   S    
O19   V4    S    
C44   C45   A    
O3    C4    A    
O1    V2    S    
C24   C25   A    
O12   C49   A    
C53   N1    T    
O6    V2    S    
O9    V2    S    
C13   H6    S    
C8    C9    A    
O2    V1    S    
C55   H22   S    
C28   C29   A    
C30   C31   A    
C20   C21   A    
C14   C17   A    
C2    C48   S    
C11   C16   A    
O1    C2    A    
C47   C48   A    
O5    V1    S    
O8    C3    A    
O17   V4    S    
O12   V3    S    
C40   C41   A    
O16   V4    S    
C19   C24   A    
O7    V2    S    
O4    V1    S    
O3    V1    S    
V1    O10   S    
C33   C34   A    
C25   C52   S    
C7    C51   S    
O11   C50   A    
O15   C51   A    
O18   C51   A    
C5    C6    A    
C55   H24   S    
C46   C47   A    
C37   C38   A    
C11   H5    S    
C23   H12   S    
C41   C42   A    
C11   C12   A    
C8    H3    S    
C33   H15   S    
C7    C8    A    
C30   C33   A    
