data_mof_unit_48986.cif
_audit_creation_date              2012-12-11T14:42:25-0500
_audit_creation_method            fapswitch 2.2
_symmetry_space_group_name_H-M    P1
_symmetry_Int_Tables_number       1
_space_group_crystal_system       triclinic
_cell_length_a                    18.82795
_cell_length_b                    10.981558
_cell_length_c                    18.664016
_cell_angle_alpha                 89.786827
_cell_angle_beta                  89.701342
_cell_angle_gamma                 90.067857
_cell_volume                      3858.89421626

loop_
_atom_site_label
_atom_site_type_symbol
_atom_type_description
_atom_site_fract_x
_atom_site_fract_y
_atom_site_fract_z
_atom_type_partial_charge
C1    C     C_R   0.728866 0.952295 0.852664 0.520866
C2    C     C_R   0.273629 0.957642 0.145421 0.503623
C3    C     C_R   0.228868 0.452289 0.852662 0.520831
C4    C     C_R   0.773630 0.457646 0.145419 0.503608
C5    C     C_R   0.692012 0.439565 0.040112 -0.027898
C6    C     C_R   0.316538 0.438789 0.956041 -0.012387
C7    C     C_R   0.192007 0.939556 0.040116 -0.027894
C8    C     C_R   0.816516 0.938863 0.956059 -0.012398
C9    C     C_R   0.760345 0.431407 0.070624 -0.011805
C10   C     C_R   0.256309 0.393738 0.918466 -0.023340
C11   C     C_R   0.260341 0.931390 0.070629 -0.011718
C12   C     C_R   0.756309 0.893759 0.918470 -0.023333
C13   C     C_R   0.820803 0.420681 0.026489 -0.110617
C14   C     C_R   0.214756 0.301887 0.950310 -0.097990
C15   C     C_R   0.320797 0.920640 0.026496 -0.110810
C16   C     C_R   0.714776 0.801871 0.950303 -0.097796
C17   C     C_R   0.814124 0.412998 0.953441 -0.118365
C18   C     C_R   0.225423 0.268695 0.021159 -0.073951
C19   C     C_R   0.314117 0.912955 0.953449 -0.118569
C20   C     C_R   0.725441 0.768679 0.021153 -0.073916
C21   C     C_R   0.746974 0.415771 0.922929 -0.009017
C22   C     C_R   0.276104 0.329478 0.062336 -0.008319
C23   C     C_R   0.246970 0.915751 0.922935 -0.008933
C24   C     C_R   0.776107 0.829485 0.062337 -0.008326
C25   C     C_R   0.496621 0.275888 0.535956 -0.178752
C26   C     C_R   0.503833 0.275842 0.463568 -0.177233
C27   C     C_R   0.996621 0.775888 0.535956 -0.178755
C28   C     C_R   0.003833 0.775842 0.463568 -0.177231
C29   C     C_R   0.501621 0.166426 0.425812 0.041807
C30   C     C_R   0.498566 0.166523 0.574153 0.040346
C31   C     C_R   0.001621 0.666426 0.425812 0.041804
C32   C     C_R   0.998566 0.666524 0.574153 0.040346
C33   C     C_R   0.503286 0.053459 0.462608 -0.036443
C34   C     C_R   0.496872 0.053466 0.537788 -0.036485
C35   C     C_R   0.003286 0.553459 0.462608 -0.036446
C36   C     C_R   0.996872 0.553466 0.537787 -0.036478
C37   C     C_R   0.789770 0.276151 0.517750 0.012750
C38   C     C_R   0.210084 0.276316 0.482665 0.012478
C39   C     C_R   0.289770 0.776151 0.517750 0.012747
C40   C     C_R   0.710084 0.776316 0.482665 0.012478
C41   C     C_R   0.787119 0.287296 0.442510 -0.035169
C42   C     C_R   0.212743 0.287736 0.557872 -0.033400
C43   C     C_R   0.287118 0.787296 0.442510 -0.035165
C44   C     C_R   0.712743 0.787736 0.557872 -0.033406
C45   C     C_R   0.563144 0.181220 0.857065 0.555556
C46   C     C_R   0.471875 0.178440 0.150670 0.508633
C47   C     C_R   0.063132 0.681208 0.857067 0.555587
C48   C     C_R   0.971873 0.678443 0.150671 0.508584
C49   C     C_R   0.742645 0.376891 0.412437 -0.037469
C50   C     C_R   0.257194 0.377655 0.587514 -0.035908
C51   C     C_R   0.242645 0.876891 0.412437 -0.037471
C52   C     C_R   0.757194 0.877655 0.587514 -0.035905
C53   C     C_R   0.682031 0.410769 0.450594 -0.124913
C54   C     C_R   0.317752 0.411773 0.549093 -0.124397
C55   C     C_R   0.182031 0.910769 0.450594 -0.124915
C56   C     C_R   0.817752 0.911773 0.549093 -0.124394
C57   C     C_R   0.675453 0.380464 0.522963 -0.133732
C58   C     C_R   0.324364 0.381076 0.476897 -0.133687
C59   C     C_R   0.175453 0.880464 0.522963 -0.133730
C60   C     C_R   0.824364 0.881076 0.476897 -0.133688
C61   C     C_R   0.731729 0.323814 0.559417 -0.008028
C62   C     C_R   0.268101 0.324046 0.440712 -0.009298
C63   C     C_R   0.231729 0.823814 0.559417 -0.008029
C64   C     C_R   0.768101 0.824046 0.440712 -0.009298
C65   C     C_R   0.738447 0.366029 0.851956 0.546056
C66   C     C_R   0.277263 0.309845 0.140125 0.557365
C67   C     C_R   0.238445 0.866023 0.851959 0.546057
C68   C     C_R   0.777263 0.809845 0.140125 0.557361
C69   C     C_R   0.730762 0.947294 0.650523 0.520900
C70   C     C_R   0.269198 0.946999 0.349395 0.523095
C71   C     C_R   0.230762 0.447294 0.650523 0.520926
C72   C     C_R   0.769198 0.446999 0.349395 0.523094
C73   C     C_R   0.527953 0.175810 0.645595 0.572473
C74   C     C_R   0.472078 0.175720 0.354400 0.560904
C75   C     C_R   0.027953 0.675810 0.645595 0.572506
C76   C     C_R   0.972078 0.675720 0.354400 0.560884
C77   C     C_R   0.725969 0.309201 0.638526 0.573058
C78   C     C_R   0.273937 0.309169 0.361629 0.572064
C79   C     C_R   0.225968 0.809201 0.638526 0.573064
C80   C     C_R   0.773937 0.809169 0.361629 0.572065
C81   C     C_2   0.556864 0.172113 0.935094 -0.167985
C82   C     C_2   0.500677 0.173719 0.079003 -0.161064
C83   C     C_2   0.056835 0.672071 0.935091 -0.168017
C84   C     C_2   0.000660 0.673733 0.079003 -0.160927
C85   C     C_2   0.538967 0.081145 0.052948 -0.019042
C86   C     C_2   0.542092 0.069616 0.973868 0.003125
C87   C     C_2   0.038973 0.581187 0.052960 -0.018675
C88   C     C_2   0.042061 0.569584 0.973884 0.003074
C89   C     C_R   0.686468 0.435418 0.965590 -0.119166
C90   C     C_R   0.324533 0.407920 0.028552 -0.103501
C91   C     C_R   0.186464 0.935403 0.965594 -0.119170
C92   C     C_R   0.824517 0.907973 0.028564 -0.103487
Cr1   Cr    Cr6+3 0.769270 0.163730 0.750710 1.084612
Cr2   Cr    Cr6+3 0.230730 0.163730 0.249290 1.096333
Cr3   Cr    Cr6+3 0.269270 0.663730 0.750710 1.084639
Cr4   Cr    Cr6+3 0.730730 0.663730 0.249290 1.096310
Cr5   Cr    Cr6+3 0.612620 0.009790 0.748780 1.061525
Cr6   Cr    Cr6+3 0.387380 0.009790 0.251220 1.063042
Cr7   Cr    Cr6+3 0.112620 0.509790 0.748780 1.061218
Cr8   Cr    Cr6+3 0.887380 0.509790 0.251220 1.063169
Cr9   Cr    Cr6+3 0.614160 0.322500 0.747710 1.045100
Cr10  Cr    Cr6+3 0.385840 0.322500 0.252290 1.061063
Cr11  Cr    Cr6+3 0.114160 0.822500 0.747710 1.045048
Cr12  Cr    Cr6+3 0.885840 0.822500 0.252290 1.061078
H1    H     H_    0.639904 0.459608 0.424723 0.193851
H2    H     H_    0.359901 0.460878 0.574630 0.194187
H3    H     H_    0.139904 0.959608 0.424723 0.193850
H4    H     H_    0.859901 0.960878 0.574630 0.194186
H5    H     H_    0.628060 0.408271 0.551374 0.191462
H6    H     H_    0.371825 0.408777 0.448369 0.191605
H7    H     H_    0.128060 0.908271 0.551374 0.191462
H8    H     H_    0.871825 0.908777 0.448369 0.191605
H9    H     H_    0.479255 0.242515 0.043035 0.132228
H10   H     H_    0.570595 0.254985 0.963300 0.115162
H11   H     H_    0.979200 0.742482 0.043026 0.132142
H12   H     H_    0.070557 0.754953 0.963293 0.115120
H13   H     H_    0.634410 0.437563 0.941223 0.179384
H14   H     H_    0.367806 0.446782 0.058981 0.196800
H15   H     H_    0.134405 0.937549 0.941227 0.179318
H16   H     H_    0.867777 0.946864 0.058998 0.196797
H17   H     H_    0.874052 0.419445 0.048268 0.182408
H18   H     H_    0.170634 0.261106 0.922086 0.174410
H19   H     H_    0.374049 0.919385 0.048272 0.182000
H20   H     H_    0.670669 0.761061 0.922070 0.174668
H21   H     H_    0.861164 0.398317 0.921009 0.155670
H22   H     H_    0.190091 0.202253 0.045367 0.183445
H23   H     H_    0.361154 0.898246 0.921019 0.155424
H24   H     H_    0.690121 0.702216 0.045356 0.183433
H25   H     H_    0.495818 0.363808 0.562176 0.163216
H26   H     H_    0.504808 0.363782 0.436989 0.163901
H27   H     H_    0.995818 0.863807 0.562176 0.163213
H28   H     H_    0.004808 0.863782 0.436989 0.163902
O1    O     O_R   0.784320 0.290430 0.830510 -0.493513
O2    O     O_R   0.215680 0.290430 0.169490 -0.456605
O3    O     O_R   0.284320 0.790430 0.830510 -0.493530
O4    O     O_R   0.715680 0.790430 0.169490 -0.456608
O5    O     O_R   0.554640 0.080370 0.673500 -0.456380
O6    O     O_R   0.445360 0.080370 0.326500 -0.459805
O7    O     O_R   0.054640 0.580370 0.673500 -0.456364
O8    O     O_R   0.945360 0.580370 0.326500 -0.459809
O9    O     O_R   0.543920 0.282180 0.666790 -0.533217
O10   O     O_R   0.456080 0.282180 0.333210 -0.536286
O11   O     O_R   0.043920 0.782180 0.666790 -0.533211
O12   O     O_R   0.956080 0.782180 0.333210 -0.536290
O13   O     O_R   0.679040 0.374160 0.674430 -0.488669
O14   O     O_R   0.320960 0.374160 0.325570 -0.482941
O15   O     O_R   0.179040 0.874160 0.674430 -0.488671
O16   O     O_R   0.820960 0.874160 0.325570 -0.482933
O17   O     O_3   0.665350 0.165340 0.749070 -0.306611
O18   O     O_3   0.334650 0.165340 0.250930 -0.316083
O19   O     O_3   0.165350 0.665340 0.749070 -0.306547
O20   O     O_3   0.834650 0.665340 0.250930 -0.316107
O21   O     O_R   0.762640 0.040960 0.825200 -0.521033
O22   O     O_R   0.237360 0.040960 0.174800 -0.540009
O23   O     O_R   0.262640 0.540960 0.825200 -0.521009
O24   O     O_R   0.737360 0.540960 0.174800 -0.540022
O25   O     O_R   0.667400 0.923970 0.829950 -0.512996
O26   O     O_R   0.332600 0.923970 0.170050 -0.501294
O27   O     O_R   0.167400 0.423970 0.829950 -0.513279
O28   O     O_R   0.832600 0.423970 0.170050 -0.501220
O29   O     O_R   0.553960 0.081340 0.821780 -0.505559
O30   O     O_R   0.446040 0.081340 0.178220 -0.501816
O31   O     O_R   0.053960 0.581340 0.821780 -0.505830
O32   O     O_R   0.946040 0.581340 0.178220 -0.501707
O33   O     O_R   0.543180 0.283240 0.826740 -0.499392
O34   O     O_R   0.456820 0.283240 0.173260 -0.494886
O35   O     O_R   0.043180 0.783240 0.826740 -0.499380
O36   O     O_R   0.956820 0.783240 0.173260 -0.494914
O37   O     O_R   0.678360 0.375140 0.822710 -0.520680
O38   O     O_R   0.321640 0.375140 0.177290 -0.491359
O39   O     O_R   0.178360 0.875140 0.822710 -0.520693
O40   O     O_R   0.821640 0.875140 0.177290 -0.491341
O41   O     O_R   0.785050 0.289380 0.670560 -0.424252
O42   O     O_R   0.214950 0.289380 0.329440 -0.418681
O43   O     O_R   0.285050 0.789380 0.670560 -0.424240
O44   O     O_R   0.714950 0.789380 0.329440 -0.418684
O45   O     O_R   0.763320 0.039990 0.676930 -0.469196
O46   O     O_R   0.236680 0.039990 0.323070 -0.468920
O47   O     O_R   0.263320 0.539990 0.676930 -0.469183
O48   O     O_R   0.736680 0.539990 0.323070 -0.468923
O49   O     O_R   0.668130 0.922920 0.670000 -0.529523
O50   O     O_R   0.331870 0.922920 0.330000 -0.524423
O51   O     O_R   0.168130 0.422920 0.670000 -0.529513
O52   O     O_R   0.831870 0.422920 0.330000 -0.524421
C93   C     C_2   0.574532 0.992524 0.101234 0.318121
H29   H     H_    0.571342 0.001980 0.158985 0.129171
O53   O     O_2   0.610007 0.909736 0.076953 -0.444013
C94   C     C_2   0.513388 0.954967 0.942155 0.276793
H30   H     H_    0.486307 0.954975 0.891227 0.128705
O54   O     O_2   0.515574 0.858707 0.974962 -0.430859
C95   C     C_2   0.074587 0.492637 0.101251 0.318288
H31   H     H_    0.071455 0.502182 0.159000 0.129060
O55   O     O_2   0.110022 0.409795 0.076971 -0.444152
C96   C     C_2   0.013405 0.454816 0.942244 0.276324
H32   H     H_    0.986789 0.454419 0.891097 0.129443
O56   O     O_2   0.015055 0.358874 0.975376 -0.431278
C97   C     C_2   0.826738 0.202996 0.393523 0.248247
H33   H     H_    0.812745 0.199514 0.337214 0.146802
O57   O     O_2   0.873466 0.135079 0.414500 -0.543525
C98   C     C_2   0.173381 0.202993 0.607285 0.245891
H34   H     H_    0.187200 0.200057 0.663661 0.140822
O58   O     O_2   0.127163 0.133902 0.586565 -0.544444
C99   C     C_2   0.326738 0.702996 0.393523 0.248240
H35   H     H_    0.312745 0.699514 0.337214 0.146789
O59   O     O_2   0.373466 0.635079 0.414500 -0.543529
C100  C     C_2   0.673381 0.702993 0.607285 0.245899
H36   H     H_    0.687200 0.700057 0.663661 0.140830
O60   O     O_2   0.627163 0.633901 0.586565 -0.544435
C101  C     C_2   0.626441 0.445802 0.084654 0.234281
H37   H     H_    0.628166 0.426139 0.141588 0.130027
O61   O     O_2   0.569253 0.471640 0.058035 -0.477276
C102  C     C_2   0.371841 0.516403 0.921758 0.268131
H38   H     H_    0.381484 0.511927 0.864537 0.131867
O62   O     O_2   0.408852 0.584197 0.957500 -0.449478
C103  C     C_2   0.126437 0.945804 0.084659 0.234241
H39   H     H_    0.128161 0.926151 0.141593 0.130032
O63   O     O_2   0.069249 0.971638 0.058038 -0.477375
C104  C     C_2   0.871782 0.016585 0.921804 0.268199
H40   H     H_    0.881498 0.012040 0.864594 0.131785
O64   O     O_2   0.908668 0.084575 0.957558 -0.449418
C105  C     C_2   0.511108 0.937089 0.422936 0.228483
H41   H     H_    0.483535 0.855741 0.440526 0.095143
O65   O     O_2   0.549850 0.931008 0.370368 -0.465626
C106  C     C_2   0.489144 0.936946 0.577865 0.228205
H42   H     H_    0.516908 0.855879 0.560612 0.094321
O66   O     O_2   0.450297 0.930413 0.630367 -0.464691
C107  C     C_2   0.011108 0.437089 0.422936 0.228486
H43   H     H_    0.983535 0.355741 0.440526 0.095144
O67   O     O_2   0.049850 0.431008 0.370368 -0.465615
C108  C     C_2   0.989144 0.436946 0.577865 0.228200
H44   H     H_    0.016908 0.355879 0.560612 0.094321
O68   O     O_2   0.950297 0.430413 0.630367 -0.464714
C109  C     C_2   0.858826 0.233712 0.547522 0.331233
H45   H     H_    0.907251 0.258850 0.519894 0.121573
O69   O     O_2   0.863766 0.166453 0.599065 -0.481672
C110  C     C_2   0.141150 0.233007 0.453109 0.331515
H46   H     H_    0.092644 0.257229 0.480748 0.122136
O70   O     O_2   0.136422 0.166047 0.401702 -0.480369
C111  C     C_2   0.358826 0.733712 0.547522 0.331234
H47   H     H_    0.407251 0.758850 0.519894 0.121572
O71   O     O_2   0.363766 0.666454 0.599065 -0.481662
C112  C     C_2   0.641150 0.733007 0.453109 0.331513
H48   H     H_    0.592644 0.757229 0.480747 0.122137
O72   O     O_2   0.636422 0.666048 0.401702 -0.480374

loop_
_geom_bond_atom_site_label_1
_geom_bond_atom_site_label_2
_ccdc_geom_bond_type
Cr10  O38   S    
C96   O56   D    
C99   H35   S    
C86   C94   S    
C14   H18   S    
C55   C59   A    
C27   H27   S    
C14   C18   A    
Cr1   O17   S    
C35   C36   A    
C84   C87   D    
C87   C88   S    
C25   H25   S    
C106  H42   S    
C22   C66   S    
C32   C75   S    
C39   C111  S    
C48   O32   A    
C104  H40   S    
Cr11  O15   S    
Cr4   O4    S    
C21   C89   A    
C85   C86   S    
Cr8   O20   S    
C91   H15   S    
C15   C19   A    
C74   O6    A    
Cr9   O13   S    
C50   C54   A    
C15   H19   S    
Cr6   O6    S    
C37   C41   A    
C35   C107  S    
C90   H14   S    
C40   C112  S    
C111  H47   S    
C38   C42   A    
Cr1   O1    S    
C103  O63   D    
C38   C110  S    
Cr7   O27   S    
C100  O60   D    
C102  O62   D    
C99   O59   D    
C6    C102  S    
C23   C67   S    
Cr4   O20   S    
C29   C33   A    
Cr4   O24   S    
C45   O29   A    
C110  H46   S    
C94   O54   D    
Cr10  O18   S    
Cr2   O46   S    
C71   O47   A    
C57   C61   A    
C97   O57   D    
Cr3   O43   S    
C56   H4    S    
C9    C13   A    
C52   C69   S    
Cr9   O17   S    
C69   O45   A    
C66   O2    A    
C58   H6    S    
C11   C15   A    
C70   O50   A    
C57   H5    S    
C93   H29   S    
C20   C24   A    
C61   C77   S    
C98   H34   S    
C49   C72   S    
C81   H10   S    
Cr6   O26   S    
C59   H7    S    
Cr12  O12   S    
Cr9   O37   S    
Cr4   O44   S    
C8    C92   A    
C51   C70   S    
C47   C83   S    
Cr8   O8    S    
C109  H45   S    
Cr7   O51   S    
C81   C86   D    
C26   H26   S    
C16   C20   A    
Cr12  O40   S    
C47   O31   A    
C44   C52   A    
C83   C88   D    
C74   O10   A    
C2    O22   A    
C46   C82   S    
C3    O27   A    
C64   C80   S    
Cr7   O7    S    
C97   H33   S    
C1    C12   S    
Cr9   O9    S    
C2    C11   S    
C24   C92   A    
C41   C49   A    
C69   O49   A    
Cr6   O30   S    
C62   C78   S    
C33   C34   A    
C76   O8    A    
C85   C93   S    
C101  H37   S    
C7    C103  S    
C30   C34   A    
C95   H31   S    
C20   H24   S    
C12   C16   A    
C68   O4    A    
C8    C104  S    
C72   O52   A    
C53   C57   A    
C41   C97   S    
C10   C14   A    
C30   C73   S    
C54   H2    S    
C100  H36   S    
C70   O46   A    
C73   O9    A    
C29   C74   S    
C51   C55   A    
C67   O39   A    
C25   C26   A    
C6    C90   A    
C24   C68   S    
Cr7   O19   S    
Cr1   O21   S    
C17   C21   A    
C48   C84   S    
C42   C98   S    
C55   H3    S    
C94   H30   S    
C28   H28   S    
Cr5   O25   S    
Cr6   O50   S    
C7    C11   A    
C50   C71   S    
C95   O55   D    
C5    C9    A    
C67   O3    A    
C60   H8    S    
C79   O43   A    
C108  O68   D    
Cr12  O36   S    
C105  H41   S    
C13   H17   S    
Cr8   O28   S    
C112  O72   D    
C107  H43   S    
C48   O36   A    
C47   O35   A    
C40   C44   A    
C8    C12   A    
C7    C91   A    
Cr3   O3    S    
C112  H48   S    
C22   C90   A    
C111  O71   D    
Cr11  O35   S    
Cr4   O48   S    
C37   C109  S    
C109  O69   D    
C88   C96   S    
C80   O44   A    
C18   H22   S    
C75   O11   A    
C58   C62   A    
C42   C50   A    
Cr7   O31   S    
C76   O12   A    
Cr3   O47   S    
C107  O67   D    
Cr2   O42   S    
C84   H11   S    
Cr5   O29   S    
C43   C99   S    
C54   C58   A    
Cr10  O10   S    
C23   C91   A    
Cr3   O19   S    
C3    O23   A    
C72   O48   A    
C77   O13   A    
C27   C28   A    
C106  O66   D    
C37   C61   A    
C19   C23   A    
C87   C95   S    
Cr6   O18   S    
C25   C30   A    
C34   C106  S    
C101  O61   D    
C77   O41   A    
C46   O34   A    
C4    O24   A    
C27   C32   A    
C18   C22   A    
Cr11  O11   S    
C83   H12   S    
C66   O38   A    
C28   C31   A    
C45   C81   S    
C82   H9    S    
C89   H13   S    
Cr8   O32   S    
C6    C10   A    
C39   C43   A    
Cr10  O34   S    
C32   C36   A    
Cr5   O49   S    
C63   C79   S    
Cr11  O19   S    
Cr2   O18   S    
C82   C85   D    
C39   C63   A    
C44   C100  S    
C59   C63   A    
C40   C64   A    
C13   C17   A    
C104  O64   D    
C60   C64   A    
C21   C65   S    
Cr12  O20   S    
C1    O25   A    
C16   H20   S    
Cr12  O16   S    
C105  O65   D    
C3    C10   S    
C75   O7    A    
Cr9   O33   S    
C96   H32   S    
Cr2   O22   S    
C68   O40   A    
Cr11  O39   S    
C17   H21   S    
C31   C76   S    
C4    O28   A    
C73   O5    A    
C43   C51   A    
C49   C53   A    
C31   C35   A    
Cr1   O41   S    
Cr2   O2    S    
C110  O70   D    
C79   O15   A    
Cr3   O23   S    
Cr10  O14   S    
C103  H39   S    
C92   H16   S    
C108  H44   S    
Cr8   O52   S    
C65   O1    A    
Cr5   O5    S    
C1    O21   A    
C93   O53   D    
C78   O14   A    
C53   H1    S    
C80   O16   A    
C56   C60   A    
C2    O26   A    
C26   C29   A    
C36   C108  S    
C46   O30   A    
C65   O37   A    
C5    C101  S    
C78   O42   A    
Cr5   O17   S    
C19   H23   S    
Cr1   O45   S    
C4    C9    S    
C45   O33   A    
C98   O58   D    
C5    C89   A    
C52   C56   A    
C102  H38   S    
C38   C62   A    
C71   O51   A    
C33   C105  S    
