data_mof_unit_7449.cif
_audit_creation_date              2012-10-26T19:03:30-0400
_audit_creation_method            fapswitch 2.2
_symmetry_space_group_name_H-M    P1
_symmetry_Int_Tables_number       1
_space_group_crystal_system       triclinic
_cell_length_a                    10.808966
_cell_length_b                    13.047325
_cell_length_c                    11.81214
_cell_angle_alpha                 100.589997
_cell_angle_beta                  92.291923
_cell_angle_gamma                 93.986118
_cell_volume                      1631.14212441

loop_
_atom_site_label
_atom_site_type_symbol
_atom_type_description
_atom_site_fract_x
_atom_site_fract_y
_atom_site_fract_z
_atom_type_partial_charge
C1    C     C_R   0.506506 0.299344 0.477523 0.563938
C2    C     C_R   0.495147 0.119043 0.352943 -0.033248
C3    C     C_R   0.534479 0.138035 0.560513 0.050519
C4    C     C_R   0.262347 0.496239 0.501153 0.509033
C5    C     C_R   0.506372 0.029709 0.552144 -0.005023
C6    C     C_R   0.467297 0.965325 0.444041 0.000021
C7    C     C_R   0.438251 0.856677 0.440321 0.062205
C8    C     C_R   0.493359 0.878609 0.645501 -0.046942
C9    C     C_R   0.513198 0.985195 0.651542 -0.101682
C10   C     C_R   0.375325 0.406669 0.024536 -0.144639
C11   C     C_R   0.387927 0.413507 0.144064 0.128745
C12   C     C_R   0.080999 0.597262 0.552118 0.016453
C13   C     C_R   0.558498 0.539330 0.155445 0.160849
C14   C     C_R   0.542389 0.541214 0.034332 -0.031682
C15   C     C_R   0.452461 0.469778 0.967676 -0.041559
C16   C     C_R   0.486256 0.698955 0.522549 0.542216
C17   C     C_R   0.443759 0.460550 0.845364 0.124611
C18   C     C_R   0.607621 0.592547 0.854119 0.113625
C19   C     C_R   0.615747 0.608533 0.976338 0.001195
C20   C     C_R   0.737271 0.513162 0.500028 0.548074
C21   C     C_R   0.160253 0.683901 0.609192 -0.091364
C22   C     C_R   0.115440 0.780640 0.646271 -0.099256
C23   C     C_R   0.128397 0.500189 0.506884 -0.019113
C24   C     C_R   0.993153 0.796631 0.619029 0.016648
C25   C     C_R   0.912810 0.712903 0.558480 0.006489
C26   C     C_R   0.952466 0.609342 0.536351 0.002690
C27   C     C_2   0.086434 0.305332 0.411549 0.619060
C28   C     C_1   0.516522 0.160297 0.248493 0.266217
C29   C     C_2   0.597979 0.201201 0.667640 0.597340
C30   C     C_1   0.350519 0.387125 0.779200 0.298982
C31   C     C_1   0.685198 0.659318 0.797191 0.345296
C32   C     C_2   0.691463 0.702446 0.040713 0.569412
C33   C     C_1   0.315096 0.337739 0.191718 0.279882
C34   C     C_R   0.046813 0.411490 0.459650 -0.031675
C35   C     C_1   0.675204 0.581481 0.214200 0.318346
C36   C     C_1   0.953342 0.901357 0.649520 0.247961
C37   C     C_1   0.804845 0.740833 0.499250 0.236598
C38   C     C_2   0.351181 0.794192 0.348881 0.580950
C39   C     C_1   0.487610 0.842178 0.753736 0.233609
C40   C     C_1   0.445426 0.948895 0.227806 0.288652
C41   C     C_R   0.919769 0.421968 0.457874 -0.104156
C42   C     C_R   0.871936 0.517706 0.495615 0.001348
C43   C     C_R   0.469861 0.812322 0.537288 -0.029251
C44   C     C_R   0.513970 0.184236 0.462859 -0.021267
C45   C     C_R   0.467051 0.010862 0.343316 -0.024686
Cu1   Cu    Cu3+1 0.509250 0.507730 0.615930 1.014016
Cu2   Cu    Cu3+1 0.490750 0.492270 0.384070 1.050192
H1    H     H_    0.534631 0.032594 0.736012 0.184129
H2    H     H_    0.305953 0.349546 0.976301 0.134177
H3    H     H_    0.257775 0.678662 0.627254 0.146153
H4    H     H_    0.178574 0.844818 0.691086 0.137724
H5    H     H_    0.855823 0.353514 0.427576 0.166392
H6    H     H_    0.231875 0.309862 0.525644 0.321232
H7    H     H_    0.588891 0.263627 0.836203 0.344492
H8    H     H_    0.858252 0.784875 0.068806 0.363372
H9    H     H_    0.172701 0.753990 0.292890 0.354836
N1    N     N_R   0.523180 0.519350 0.790130 -0.278056
N2    N     N_1   0.481389 0.814370 0.841038 -0.243961
N3    N     N_1   0.428105 0.901379 0.134926 -0.160487
N4    N     N_R   0.476820 0.480650 0.209890 -0.256042
N5    N     N_1   0.534896 0.192036 0.164915 -0.260582
N6    N     N_1   0.274502 0.326829 0.730043 -0.274074
N7    N     N_1   0.747992 0.714653 0.754111 -0.278664
N8    N     N_1   0.257120 0.273605 0.226221 -0.192525
N9    N     N_1   0.771758 0.614080 0.256564 -0.252004
N10   N     N_1   0.921331 0.985036 0.673848 -0.215421
N11   N     N_1   0.722672 0.768320 0.450234 -0.242881
O1    O     O_R   0.506570 0.354460 0.582000 -0.477359
O2    O     O_R   0.190628 0.264445 0.454599 -0.630400
O3    O     O_2   0.703855 0.239880 0.664540 -0.478800
O4    O     O_R   0.535836 0.218965 0.770138 -0.699199
O5    O     O_2   0.643439 0.765692 0.111784 -0.453236
O6    O     O_R   0.817087 0.718386 0.019692 -0.676922
O7    O     O_2   0.390237 0.737765 0.265722 -0.455885
O8    O     O_R   0.223505 0.800416 0.359253 -0.687986
O9    O     O_R   0.490940 0.341410 0.386200 -0.497712
O10   O     O_R   0.327470 0.506530 0.597920 -0.529184
O11   O     O_R   0.311840 0.493480 0.402120 -0.489074
O12   O     O_R   0.509060 0.658590 0.613800 -0.519453
O13   O     O_R   0.493430 0.645540 0.418000 -0.451545
O14   O     O_R   0.688160 0.506520 0.597880 -0.485274
O15   O     O_R   0.672530 0.493470 0.402080 -0.506521
O16   O     O_2   0.023132 0.249698 0.332713 -0.428890

loop_
_geom_bond_atom_site_label_1
_geom_bond_atom_site_label_2
_ccdc_geom_bond_type
C6    C45   A    
C20   O15   A    
C41   C42   A    
C8    C43   A    
H6    O2    S    
C32   O5    D    
C13   N4    A    
C5    C9    A    
C12   C23   A    
C24   C36   S    
C21   C22   A    
Cu2   O9    S    
C13   C35   S    
C10   C15   A    
C5    C6    A    
C36   N10   T    
C35   N9    T    
C1    O1    A    
C18   C19   A    
Cu2   O15   S    
C3    C29   S    
C18   N1    A    
C25   C37   S    
Cu1   O1    S    
H7    O4    S    
C2    C44   A    
C8    C9    A    
C8    C39   S    
C7    C43   A    
C41   H5    S    
C27   O2    S    
C28   N5    T    
Cu2   N4    S    
C2    C45   A    
C40   N3    T    
C13   C14   A    
C17   C30   S    
C34   C41   A    
Cu2   O13   S    
C19   C32   S    
C21   H3    S    
C38   O8    S    
C27   C34   S    
C40   C45   S    
C3    C44   A    
C31   N7    T    
C11   C33   S    
C24   C25   A    
C32   O6    S    
C4    C23   S    
C25   C26   A    
C39   N2    T    
C12   C21   A    
C12   C26   A    
C16   O13   A    
C4    O11   A    
Cu1   O14   S    
C1    C44   S    
C23   C34   A    
C16   C43   S    
C30   N6    T    
Cu1   N1    S    
C22   C24   A    
C11   N4    A    
C26   C42   A    
C29   O3    D    
C38   O7    D    
C15   C17   A    
Cu1   Cu2   S    
C1    O9    A    
C14   C19   A    
C3    C5    A    
Cu1   O10   S    
C20   C42   S    
C6    C7    A    
C16   O12   A    
C27   O16   D    
C4    O10   A    
Cu1   O12   S    
C33   N8    T    
C37   N11   T    
C7    C38   S    
C10   C11   A    
H8    O6    S    
C9    H1    S    
H9    O8    S    
C14   C15   A    
C2    C28   S    
C18   C31   S    
Cu2   O11   S    
C20   O14   A    
C10   H2    S    
C17   N1    A    
C22   H4    S    
C29   O4    S    
