data_mof_unit_53365.cif
_audit_creation_date              2012-12-10T17:47:03-0500
_audit_creation_method            fapswitch 2.2
_symmetry_space_group_name_H-M    P1
_symmetry_Int_Tables_number       1
_space_group_crystal_system       triclinic
_cell_length_a                    9.941249
_cell_length_b                    10.682991
_cell_length_c                    13.613397
_cell_angle_alpha                 93.377527
_cell_angle_beta                  83.087577
_cell_angle_gamma                 89.961183
_cell_volume                      1432.72772084

loop_
_atom_site_label
_atom_site_type_symbol
_atom_type_description
_atom_site_fract_x
_atom_site_fract_y
_atom_site_fract_z
_atom_type_partial_charge
C1    C     C_R   0.500607 0.739453 0.491582 0.877074
C2    C     C_R   0.618489 0.937351 0.500283 -0.206469
C3    C     C_R   0.615869 0.064920 0.516712 -0.211706
C4    C     C_R   0.475609 0.496468 0.685350 0.904273
C5    C     C_R   0.492210 0.129285 0.526561 -0.126448
C6    C     C_R   0.852817 0.693909 0.625392 -0.013177
C7    C     C_R   0.928235 0.786404 0.671253 -0.240884
C8    C     C_R   0.064705 0.773859 0.671257 -0.203678
C9    C     C_R   0.130193 0.672533 0.620880 -0.123561
C10   C     C_R   0.065120 0.587507 0.559951 0.145574
C11   C     C_R   0.919702 0.591608 0.560832 0.114629
C12   C     C_1   0.457101 0.493206 0.789030 -0.153631
C13   C     C_R   0.937874 0.414900 0.443771 -0.122436
C14   C     C_R   0.080562 0.415314 0.443536 -0.106991
C15   C     C_R   0.497506 0.261588 0.511171 0.876887
C16   C     C_R   0.524230 0.499606 0.314418 0.892131
C17   C     C_1   0.542481 0.500297 0.210579 -0.182828
C18   C     C_2   0.557904 0.500569 0.018775 -0.160081
C19   C     C_2   0.441652 0.489401 0.980598 -0.161379
C20   C     C_1   0.445248 0.490872 0.876746 0.016031
C21   C     C_1   0.554226 0.500706 0.122732 0.009209
C22   C     C_1   0.713636 0.714896 0.664314 0.280676
C23   C     C_R   0.258540 0.888094 0.450624 -0.152030
C24   C     C_1   0.218672 0.211676 0.642704 0.174429
C25   C     C_R   0.133103 0.948060 0.472668 -0.154972
C26   C     C_R   0.121504 0.057233 0.534011 -0.199319
C27   C     C_R   0.237755 0.114493 0.563762 0.030233
C28   C     C_R   0.368112 0.063329 0.527740 0.051158
C29   C     C_R   0.375244 0.940060 0.486952 0.079895
C30   C     C_R   0.498901 0.873708 0.486275 -0.113595
H1    H     H_    0.345279 0.480014 0.026546 0.160736
H2    H     H_    0.714804 0.889023 0.497812 0.165663
H3    H     H_    0.263161 0.802204 0.404135 0.164862
H4    H     H_    0.043698 0.905888 0.446960 0.146317
H5    H     H_    0.119758 0.841320 0.713307 0.164381
H6    H     H_    0.141605 0.345768 0.397190 0.150600
H7    H     H_    0.654228 0.510225 0.972811 0.161559
H8    H     H_    0.021797 0.096436 0.558990 0.138905
H9    H     H_    0.711373 0.113127 0.519375 0.167356
H10   H     H_    0.892112 0.345178 0.397645 0.144605
H11   H     H_    0.879931 0.866017 0.715337 0.155417
H12   H     H_    0.233238 0.664679 0.631613 0.216806
N1    N     N_R   0.857120 0.501200 0.500900 -0.115885
N2    N     N_R   0.142720 0.501280 0.500940 -0.120967
N3    N     N_1   0.604865 0.741281 0.700192 -0.239042
N4    N     N_1   0.202155 0.288638 0.706511 -0.196877
O1    O     O_R   0.385310 0.683220 0.500000 -0.652063
O2    O     O_R   0.614640 0.683250 0.500010 -0.622034
O3    O     O_R   0.368830 0.499960 0.640340 -0.626928
O4    O     O_R   0.598160 0.499980 0.640350 -0.612536
O5    O     O_R   0.385360 0.316750 0.499990 -0.615295
O6    O     O_R   0.614690 0.316780 0.500000 -0.623097
O7    O     O_R   0.401840 0.500020 0.359650 -0.611645
O8    O     O_R   0.631170 0.500040 0.359660 -0.606627
Zn1   Zn    Zn3+2 0.346870 0.499980 0.499990 0.938224
Zn2   Zn    Zn3+2 0.653130 0.500020 0.500010 0.948546

loop_
_geom_bond_atom_site_label_1
_geom_bond_atom_site_label_2
_ccdc_geom_bond_type
C8    C9    A    
C17   C21   T    
C1    O2    A    
C11   N1    A    
C6    C7    A    
C15   O5    A    
C4    C12   S    
C18   C21   S    
C9    C10   A    
C25   H4    S    
C1    O1    A    
C19   C20   S    
C6    C11   A    
C24   C27   S    
C4    O3    A    
C2    C30   A    
C24   N4    T    
C12   C20   T    
C23   C25   A    
C2    C3    A    
C26   C27   A    
O1    Zn1   S    
C19   H1    S    
C7    C8    A    
O3    Zn1   S    
C13   C14   A    
C1    C30   S    
N2    Zn1   S    
C9    H12   S    
C29   C30   A    
C23   C29   A    
C2    H2    S    
C28   C29   A    
C18   H7    S    
O5    Zn1   S    
O7    Zn1   S    
C14   H6    S    
C16   O8    A    
C5    C15   S    
C16   C17   S    
C10   C11   A    
C3    H9    S    
C5    C28   A    
N1    Zn2   S    
C13   N1    A    
C22   N3    T    
C14   N2    A    
C18   C19   D    
C27   C28   A    
O2    Zn2   S    
C16   O7    A    
C26   H8    S    
C13   H10   S    
C23   H3    S    
C25   C26   A    
C15   O6    A    
C10   N2    A    
O4    Zn2   S    
O6    Zn2   S    
C7    H11   S    
C4    O4    A    
O8    Zn2   S    
C3    C5    A    
C8    H5    S    
C6    C22   S    
