data_mof_unit_5929.cif
_audit_creation_date              2012-10-26T17:11:03-0400
_audit_creation_method            fapswitch 2.2
_symmetry_space_group_name_H-M    P1
_symmetry_Int_Tables_number       1
_space_group_crystal_system       triclinic
_cell_length_a                    28.030536
_cell_length_b                    18.771595
_cell_length_c                    16.862353
_cell_angle_alpha                 90.076022
_cell_angle_beta                  63.265151
_cell_angle_gamma                 90.111985
_cell_volume                      7924.08189621

loop_
_atom_site_label
_atom_site_type_symbol
_atom_type_description
_atom_site_fract_x
_atom_site_fract_y
_atom_site_fract_z
_atom_type_partial_charge
C1    C     C_R   0.293174 0.724946 0.330949 0.564428
C2    C     C_R   0.463944 0.128620 0.452919 -0.108975
C3    C     C_R   0.924453 0.093566 0.068238 0.568754
C4    C     C_R   0.424454 0.406407 0.068213 0.569097
C5    C     C_R   0.575522 0.593633 0.931807 0.569825
C6    C     C_R   0.575521 0.406390 0.931785 0.569156
C7    C     C_R   0.424437 0.593543 0.068253 0.569682
C8    C     C_R   0.049311 0.497626 0.503344 0.054400
C9    C     C_R   0.953341 0.497912 0.488321 0.054065
C10   C     C_R   0.557677 0.000436 0.476279 0.053028
C11   C     C_R   0.464355 0.000214 0.451052 0.052234
C12   C     C_R   0.027692 0.561977 0.491542 0.025257
C13   C     C_R   0.472143 0.873672 0.422026 -0.103341
C14   C     C_R   0.979234 0.433025 0.485828 0.030112
C15   C     C_R   0.975922 0.562236 0.498200 0.025166
C16   C     C_R   0.022908 0.432932 0.506405 0.030352
C17   C     C_R   0.528078 0.063640 0.488069 0.030661
C18   C     C_R   0.493334 0.936324 0.439869 0.029682
C19   C     C_R   0.485108 0.064714 0.465795 0.030838
C20   C     C_R   0.542495 0.937760 0.446108 0.029211
C21   C     C_R   0.115934 0.434743 0.533384 0.017913
C22   C     C_R   0.875370 0.562747 0.496590 0.020141
C23   C     C_R   0.885120 0.434922 0.462268 0.017200
C24   C     C_R   0.540538 0.123046 0.526157 -0.107725
C25   C     C_R   0.126831 0.562211 0.497626 0.019356
C26   C     C_R   0.633708 0.937762 0.479609 0.016685
C27   C     C_R   0.388947 0.065616 0.448538 0.018161
C28   C     C_R   0.390450 0.935157 0.441980 0.016525
C29   C     C_R   0.618395 0.063069 0.523130 0.018998
C30   C     C_R   0.166760 0.434768 0.533816 -0.013879
C31   C     C_R   0.828406 0.563970 0.483552 -0.007643
C32   C     C_R   0.833633 0.434809 0.464477 -0.013992
C33   C     C_R   0.172508 0.563774 0.514043 -0.007267
C34   C     C_R   0.675129 0.936015 0.506823 -0.006572
C35   C     C_R   0.039322 0.371457 0.534109 -0.108681
C36   C     C_R   0.335614 0.065429 0.457658 -0.012855
C37   C     C_R   0.336182 0.934766 0.455302 -0.014563
C38   C     C_R   0.667597 0.064329 0.529455 -0.015398
C39   C     C_R   0.192432 0.499698 0.529195 -0.128723
C40   C     C_R   0.807785 0.499679 0.470169 -0.129247
C41   C     C_R   0.692857 0.999860 0.527223 -0.126656
C42   C     C_R   0.310417 0.000009 0.461733 -0.130912
C43   C     C_R   0.097355 0.498233 0.511989 0.047776
C44   C     C_R   0.904648 0.498614 0.481689 0.047550
C45   C     C_R   0.603139 0.000319 0.493443 0.049474
C46   C     C_R   0.944883 0.623879 0.520223 -0.111785
C47   C     C_R   0.414350 0.000229 0.447489 0.049381
C48   C     C_R   0.622726 0.880172 0.436483 -0.071190
C49   C     C_R   0.418966 0.128498 0.438629 -0.089455
C50   C     C_R   0.422456 0.873404 0.421804 -0.091194
C51   C     C_R   0.583789 0.122021 0.545440 -0.087955
C52   C     C_R   0.082916 0.373630 0.552646 -0.086774
C53   C     C_R   0.894076 0.622521 0.525854 -0.075095
C54   C     C_R   0.917879 0.373657 0.442372 -0.087034
C55   C     C_R   0.109637 0.621614 0.465651 -0.073749
C56   C     C_R   0.962017 0.371441 0.459412 -0.108385
C57   C     C_R   0.059416 0.623177 0.468893 -0.109617
C58   C     C_R   0.220350 0.766400 0.953276 -0.051642
C59   C     C_R   0.779219 0.232911 0.047092 -0.050869
C60   C     C_R   0.778842 0.767109 0.047624 -0.049425
C61   C     C_R   0.706810 0.275021 0.669070 0.575516
C62   C     C_R   0.220557 0.233683 0.952956 -0.051644
C63   C     C_R   0.720502 0.266626 0.953132 -0.050941
C64   C     C_R   0.279053 0.732741 0.047285 -0.050871
C65   C     C_R   0.279187 0.266735 0.047256 -0.051477
C66   C     C_R   0.720306 0.734187 0.953112 -0.049754
C67   C     C_R   0.270192 0.799303 0.930607 0.229537
C68   C     C_R   0.729542 0.199689 0.069397 0.229895
C69   C     C_R   0.728616 0.799061 0.071562 0.229393
C70   C     C_R   0.270085 0.200217 0.930622 0.229427
C71   C     C_R   0.770169 0.299859 0.930855 0.229518
C72   C     C_R   0.706735 0.725115 0.669132 0.576069
C73   C     C_R   0.229148 0.699954 0.070117 0.229428
C74   C     C_R   0.229644 0.300172 0.069630 0.229854
C75   C     C_R   0.770470 0.702122 0.929331 0.229052
C76   C     C_R   0.299483 0.782346 0.977301 0.228565
C77   C     C_R   0.700254 0.216648 0.022684 0.228683
C78   C     C_R   0.699430 0.782516 0.024513 0.230160
C79   C     C_R   0.299351 0.216872 0.977497 0.228256
C80   C     C_R   0.799458 0.282900 0.977559 0.228355
C81   C     C_R   0.199884 0.716853 0.023339 0.229538
C82   C     C_R   0.200383 0.283535 0.022734 0.228609
C83   C     C_R   0.293193 0.275019 0.330922 0.575440
C84   C     C_R   0.799671 0.718703 0.976321 0.229356
C85   C     C_R   0.144635 0.829194 0.943231 -0.088111
C86   C     C_R   0.855060 0.170327 0.056990 -0.088451
C87   C     C_R   0.854788 0.829794 0.057261 -0.087171
C88   C     C_R   0.144718 0.170968 0.943124 -0.088716
C89   C     C_R   0.644738 0.329346 0.943155 -0.088530
C90   C     C_R   0.354941 0.670166 0.057090 -0.087178
C91   C     C_R   0.355094 0.329334 0.057012 -0.088616
C92   C     C_R   0.644603 0.671150 0.943184 -0.088518
C93   C     C_R   0.122357 0.859559 0.891143 0.004798
C94   C     C_R   0.793164 0.224929 0.330952 0.573875
C95   C     C_R   0.877507 0.140212 0.108971 0.003881
C96   C     C_R   0.877384 0.859894 0.109099 0.005140
C97   C     C_R   0.122384 0.140489 0.891105 0.004137
C98   C     C_R   0.622403 0.359632 0.891105 0.003995
C99   C     C_R   0.377458 0.640140 0.109018 0.004344
C100  C     C_R   0.377529 0.359659 0.108968 0.003987
C101  C     C_R   0.622349 0.640551 0.891126 0.005048
C102  C     C_R   0.147582 0.848739 0.798857 0.220355
C103  C     C_R   0.852351 0.151102 0.201246 0.218850
C104  C     C_R   0.852338 0.848971 0.201361 0.220235
C105  C     C_R   0.206792 0.774986 0.669084 0.583389
C106  C     C_R   0.147543 0.151281 0.798815 0.219524
C107  C     C_R   0.647602 0.348788 0.798821 0.219189
C108  C     C_R   0.352339 0.651070 0.201286 0.218932
C109  C     C_R   0.352409 0.348825 0.201250 0.219267
C110  C     C_R   0.647539 0.651325 0.798837 0.220478
C111  C     C_R   0.186341 0.795152 0.762824 0.004425
C112  C     C_R   0.813514 0.204592 0.237298 0.004095
C113  C     C_R   0.813495 0.795367 0.237393 0.002784
C114  C     C_R   0.186350 0.204926 0.762776 0.004591
C115  C     C_R   0.686395 0.295244 0.762777 0.004236
C116  C     C_R   0.206782 0.225027 0.669099 0.575978
C117  C     C_R   0.313491 0.704549 0.237339 0.003383
C118  C     C_R   0.313567 0.295224 0.237294 0.004339
C119  C     C_R   0.686241 0.705104 0.762839 0.003766
C120  C     C_R   0.208148 0.764762 0.815453 -0.087659
C121  C     C_R   0.791524 0.234706 0.184790 -0.088575
C122  C     C_R   0.791408 0.765147 0.184990 -0.091876
C123  C     C_R   0.208260 0.235403 0.815324 -0.088332
C124  C     C_R   0.708271 0.264954 0.815357 -0.088472
C125  C     C_R   0.291450 0.734596 0.184882 -0.091254
C126  C     C_R   0.291557 0.264900 0.184811 -0.088607
C127  C     C_R   0.793194 0.775020 0.330931 0.569993
C128  C     C_R   0.707981 0.735838 0.815477 -0.089653
C129  C     C_R   0.189688 0.785407 0.904105 0.059486
C130  C     C_R   0.809915 0.213946 0.096205 0.060154
C131  C     C_R   0.809644 0.786055 0.096556 0.061360
C132  C     C_R   0.189810 0.214783 0.903920 0.059749
C133  C     C_R   0.689827 0.285624 0.903990 0.060127
C134  C     C_R   0.309779 0.713763 0.096343 0.060413
C135  C     C_R   0.309953 0.285607 0.096263 0.059769
C136  C     C_R   0.689580 0.715182 0.904058 0.060795
C137  C     C_R   0.199953 0.630954 0.515798 0.552883
C138  C     C_R   0.577544 0.879335 0.422270 -0.090602
C139  C     C_R   0.803014 0.368224 0.473459 0.550255
C140  C     C_R   0.800305 0.630947 0.483478 0.554530
C141  C     C_R   0.197066 0.368271 0.526203 0.551009
C142  C     C_R   0.697161 0.131455 0.525250 0.548888
C143  C     C_R   0.303493 0.868247 0.471993 0.549922
C144  C     C_R   0.303137 0.131643 0.473273 0.552098
C145  C     C_R   0.700856 0.868957 0.513237 0.551292
C146  C     C_R   0.924401 0.906491 0.068260 0.569848
C147  C     C_R   0.075520 0.093636 0.931810 0.569066
C148  C     C_R   0.075509 0.906371 0.931795 0.570249
Cl1   Cl    Cl    0.137949 0.674543 0.051379 -0.462093
Cl2   Cl    Cl    0.704375 0.134904 0.154646 -0.455236
Cl3   Cl    Cl    0.702596 0.861777 0.159280 -0.485915
Cl4   Cl    Cl    0.295034 0.135456 0.845228 -0.447511
Cl5   Cl    Cl    0.795313 0.364685 0.845668 -0.451618
Cl6   Cl    Cl    0.203649 0.635804 0.156132 -0.465388
Cl7   Cl    Cl    0.204653 0.364821 0.155144 -0.451416
Cl8   Cl    Cl    0.796333 0.639066 0.842016 -0.466385
Cl9   Cl    Cl    0.138605 0.911172 0.727270 -0.458984
Cl10  Cl    Cl    0.861506 0.088848 0.272831 -0.462732
Cl11  Cl    Cl    0.861634 0.911260 0.272994 -0.464015
Cl12  Cl    Cl    0.861134 0.325693 0.950116 -0.465744
Cl13  Cl    Cl    0.138431 0.088797 0.727179 -0.461720
Cl14  Cl    Cl    0.638548 0.411142 0.727233 -0.461863
Cl15  Cl    Cl    0.361551 0.588871 0.272869 -0.465748
Cl16  Cl    Cl    0.361604 0.411226 0.272884 -0.462327
Cl17  Cl    Cl    0.638605 0.588684 0.727193 -0.461676
Cl18  Cl    Cl    0.861938 0.677216 0.947112 -0.462352
Cl19  Cl    Cl    0.138825 0.326493 0.050271 -0.464943
Cl20  Cl    Cl    0.638563 0.173888 0.050158 -0.467407
Cl21  Cl    Cl    0.361375 0.824757 0.949360 -0.458479
Cl22  Cl    Cl    0.360895 0.173884 0.949987 -0.464097
Cl23  Cl    Cl    0.637088 0.823831 0.053893 -0.473037
Cl24  Cl    Cl    0.295516 0.863819 0.845042 -0.443559
Cu1   Cu    Cu3+1 0.209920 0.785290 0.495070 1.041951
Cu2   Cu    Cu3+1 0.504760 0.500000 0.075850 1.105059
Cu3   Cu    Cu3+1 0.995240 0.000000 0.924150 1.108878
Cu4   Cu    Cu3+1 0.004760 0.000000 0.075850 1.108802
Cu5   Cu    Cu3+1 0.790080 0.214710 0.504930 1.049232
Cu6   Cu    Cu3+1 0.790080 0.785290 0.504930 1.043164
Cu7   Cu    Cu3+1 0.209920 0.214710 0.495070 1.048713
Cu8   Cu    Cu3+1 0.709920 0.285290 0.495070 1.050454
Cu9   Cu    Cu3+1 0.290080 0.714710 0.504930 1.051962
Cu10  Cu    Cu3+1 0.290080 0.285290 0.504930 1.047282
Cu11  Cu    Cu3+1 0.709920 0.714710 0.495070 1.043711
Cu12  Cu    Cu3+1 0.495240 0.500000 0.924150 1.111324
H1    H     H_    0.229461 0.500083 0.534749 0.177240
H2    H     H_    0.870131 0.668466 0.557065 0.170829
H3    H     H_    0.911078 0.326864 0.411721 0.160269
H4    H     H_    0.134410 0.667120 0.434745 0.170002
H5    H     H_    0.571956 0.832832 0.389741 0.133519
H6    H     H_    0.483548 0.179133 0.448905 0.123973
H7    H     H_    0.492467 0.823173 0.410158 0.120791
H8    H     H_    0.515589 0.170022 0.545307 0.126861
H9    H     H_    0.016687 0.322420 0.547035 0.126239
H10   H     H_    0.958046 0.672146 0.539753 0.127382
H11   H     H_    0.984294 0.322206 0.446644 0.126797
H12   H     H_    0.770044 0.499873 0.466967 0.178050
H13   H     H_    0.047112 0.671264 0.447802 0.128620
H14   H     H_    0.128781 0.842200 0.013113 0.165352
H15   H     H_    0.870876 0.157283 0.987124 0.164964
H16   H     H_    0.870490 0.842937 0.987459 0.165890
H17   H     H_    0.128901 0.157999 0.012992 0.164726
H18   H     H_    0.628895 0.342354 0.013034 0.164869
H19   H     H_    0.370722 0.657084 0.987241 0.166306
H20   H     H_    0.370884 0.342337 0.987158 0.164985
H21   H     H_    0.628810 0.658112 0.013030 0.164699
H22   H     H_    0.241283 0.727845 0.786725 0.160591
H23   H     H_    0.727753 0.999668 0.539137 0.174643
H24   H     H_    0.758334 0.271537 0.213549 0.159623
H25   H     H_    0.758217 0.728189 0.213754 0.156948
H26   H     H_    0.241467 0.272334 0.786574 0.159657
H27   H     H_    0.741432 0.228077 0.786613 0.159640
H28   H     H_    0.258261 0.771428 0.213654 0.157675
H29   H     H_    0.258328 0.228003 0.213573 0.159552
H30   H     H_    0.741083 0.772936 0.786774 0.158639
H31   H     H_    0.269209 0.999864 0.472952 0.181943
H32   H     H_    0.649602 0.835702 0.409851 0.165927
H33   H     H_    0.409956 0.178622 0.417720 0.163291
H34   H     H_    0.411072 0.824078 0.402301 0.159919
H35   H     H_    0.588082 0.167282 0.581230 0.158687
H36   H     H_    0.088899 0.327028 0.584349 0.160344
O1    O     O_R   0.255040 0.869590 0.478480 -0.491030
O2    O     O_R   0.817950 0.203450 0.375560 -0.451090
O3    O     O_R   0.817950 0.796550 0.375560 -0.441566
O4    O     O_R   0.182050 0.203450 0.624440 -0.450926
O5    O     O_R   0.682050 0.296550 0.624440 -0.449421
O6    O     O_R   0.317950 0.703450 0.375560 -0.453439
O7    O     O_R   0.317950 0.296550 0.375560 -0.451547
O8    O     O_R   0.682050 0.703450 0.624440 -0.439811
O9    O     O_R   0.250530 0.763330 0.367210 -0.535490
O10   O     O_R   0.749470 0.236670 0.632790 -0.522378
O11   O     O_R   0.749470 0.763330 0.632790 -0.530838
O12   O     O_R   0.744960 0.130410 0.521520 -0.490198
O13   O     O_R   0.250530 0.236670 0.367210 -0.522760
O14   O     O_R   0.750530 0.263330 0.367210 -0.523206
O15   O     O_R   0.249470 0.736670 0.632790 -0.518516
O16   O     O_R   0.249470 0.263330 0.632790 -0.522469
O17   O     O_R   0.750530 0.736670 0.367210 -0.537434
O18   O     O_R   0.177260 0.690030 0.513710 -0.533674
O19   O     O_R   0.822740 0.309970 0.486290 -0.526514
O20   O     O_R   0.822740 0.690030 0.486290 -0.533732
O21   O     O_R   0.177260 0.309970 0.513710 -0.527060
O22   O     O_R   0.677260 0.190030 0.513710 -0.525378
O23   O     O_R   0.744960 0.869590 0.521520 -0.492342
O24   O     O_R   0.322740 0.809970 0.486290 -0.523509
O25   O     O_R   0.322740 0.190030 0.486290 -0.528602
O26   O     O_R   0.677260 0.809970 0.513710 -0.529605
O27   O     O_R   0.051640 0.926880 0.885090 -0.438788
O28   O     O_R   0.948360 0.073120 0.114910 -0.440074
O29   O     O_R   0.948360 0.926880 0.114910 -0.438656
O30   O     O_R   0.051640 0.073120 0.885090 -0.440284
O31   O     O_R   0.551640 0.426880 0.885090 -0.439814
O32   O     O_R   0.448360 0.573120 0.114910 -0.440045
O33   O     O_R   0.448360 0.426880 0.114910 -0.440134
O34   O     O_R   0.255040 0.130410 0.478480 -0.491398
O35   O     O_R   0.551640 0.573120 0.885090 -0.438185
O36   O     O_R   0.940620 0.926560 0.986760 -0.532432
O37   O     O_R   0.059380 0.073440 0.013240 -0.532957
O38   O     O_R   0.059380 0.926560 0.013240 -0.532396
O39   O     O_R   0.940620 0.073440 0.986760 -0.533163
O40   O     O_R   0.440620 0.426560 0.986760 -0.532740
O41   O     O_R   0.559380 0.573440 0.013240 -0.533493
O42   O     O_R   0.559380 0.426560 0.013240 -0.533039
O43   O     O_R   0.440620 0.573440 0.986760 -0.531671
O44   O     O_R   0.755040 0.369590 0.478480 -0.491784
O45   O     O_R   0.244960 0.630410 0.521520 -0.492181
O46   O     O_R   0.244960 0.369590 0.521520 -0.491306
O47   O     O_R   0.755040 0.630410 0.478480 -0.491428
O48   O     O_R   0.182050 0.796550 0.624440 -0.440281

loop_
_geom_bond_atom_site_label_1
_geom_bond_atom_site_label_2
_ccdc_geom_bond_type
C1    O6    A    
C125  C134  A    
C14   C56   A    
C48   H32   S    
C59   C130  S    
C116  O4    A    
C65   C79   A    
C11   C18   A    
C123  C132  A    
C105  O15   A    
C90   C99   A    
C36   C42   A    
C8    C43   A    
C121  C130  A    
C53   H2    S    
Cu1   O1    S    
C25   C43   A    
Cu5   O12   S    
Cu6   O20   S    
C69   C78   A    
Cu3   O36   S    
C28   C47   A    
C83   O7    A    
C77   Cl20  S    
C99   C108  A    
C11   C19   A    
Cu10  O7    S    
C33   C39   A    
C30   C141  S    
C7    C99   S    
C13   C18   A    
C106  C114  A    
C6    C98   S    
C79   Cl22  S    
C126  H29   S    
C29   C51   A    
C90   H19   S    
C128  C136  A    
C16   C35   A    
C40   H12   S    
C144  O25   A    
Cu8   O44   S    
C34   C145  S    
C3    O39   A    
Cu4   O37   S    
C106  Cl13  S    
C58   C129  S    
C87   C131  A    
C71   Cl5   S    
C123  H26   S    
Cu7   O13   S    
Cu8   O5    S    
C140  O20   A    
Cu12  O43   S    
Cu11  O47   S    
C31   C40   A    
C145  O23   A    
C93   C148  S    
Cu12  O35   S    
C20   C138  A    
C37   C42   A    
C103  Cl10  S    
C92   H21   S    
C26   C45   A    
C85   C129  A    
C21   C43   A    
Cu7   O34   S    
C85   C93   A    
C75   Cl8   S    
C26   C34   A    
C22   C44   A    
C113  C122  A    
C83   O13   A    
C10   C20   A    
C6    O31   A    
C29   C38   A    
C61   C115  S    
C64   C73   A    
C12   C15   A    
C7    O43   A    
Cu9   O6    S    
C42   H31   S    
C147  O30   A    
C88   H17   S    
C21   C52   A    
C18   C20   A    
C91   H20   S    
Cu9   O24   S    
Cu10  O16   S    
C86   H15   S    
Cu5   O19   S    
Cu7   Cu10  S    
C146  O36   A    
C119  C128  A    
C24   C51   A    
Cu3   O27   S    
C89   H18   S    
C105  C111  S    
Cu1   Cu9   S    
C100  C109  A    
C8    C16   A    
C83   C118  S    
C139  O44   A    
C5    O41   A    
C97   C147  S    
C62   C70   A    
C12   C57   A    
C102  C111  A    
C92   C136  A    
C34   C41   A    
C137  O45   A    
C4    O33   A    
C74   C82   A    
C102  Cl9   S    
C73   C81   A    
C71   C80   A    
C125  H28   S    
C95   C103  A    
C109  C118  A    
C46   H10   S    
C22   C53   A    
C5    C101  S    
C82   Cl19  S    
C84   Cl18  S    
C66   C78   A    
C108  Cl15  S    
C54   C56   A    
C52   H36   S    
C17   C24   A    
C89   C133  A    
C22   C31   A    
C72   O11   A    
C146  O29   A    
C139  O19   A    
C120  C129  A    
C69   Cl3   S    
C90   C134  A    
C2    H6    S    
C96   C104  A    
C70   Cl4   S    
C38   C41   A    
Cu4   O28   S    
C127  O3    A    
Cu10  O25   S    
C33   C137  S    
Cu5   O10   S    
C60   C131  S    
C147  O37   A    
C28   C50   A    
Cu1   O18   S    
C94   O14   A    
Cu3   O30   S    
C1    C117  S    
C51   H35   S    
C101  C110  A    
C142  O22   A    
Cu5   O2    S    
C144  O34   A    
C50   H34   S    
C148  O27   A    
C61   O5    A    
C65   C74   A    
C104  C113  A    
C49   H33   S    
C111  C120  A    
C105  O48   A    
Cu11  O26   S    
Cu11  O8    S    
C41   H23   S    
Cu6   Cu11  S    
C9    C14   A    
Cu12  O31   S    
C2    C49   A    
C62   C132  S    
C59   C68   A    
Cu2   O42   S    
C56   H11   S    
Cu9   O15   S    
Cu2   O33   S    
C142  O12   A    
Cu3   Cu4   S    
C128  H30   S    
C107  Cl14  S    
C8    C12   A    
Cu5   Cu8   S    
C87   C96   A    
C116  O16   A    
C10   C45   A    
C46   C53   A    
C61   O10   A    
C64   C76   A    
C122  H25   S    
C91   C135  A    
C24   H8    S    
Cu3   O39   S    
Cu12  O40   S    
C55   H4    S    
C107  C115  A    
C65   C135  S    
C30   C39   A    
Cu1   O9    S    
C92   C101  A    
C32   C139  S    
C27   C49   A    
C66   C136  S    
C114  C123  A    
C124  C133  A    
C63   C71   A    
C126  C135  A    
C127  O17   A    
Cu8   O22   S    
C54   H3    S    
C55   C57   A    
C91   C100  A    
Cu9   O45   S    
Cu6   O3    S    
C58   C81   A    
C138  H5    S    
C3    O28   A    
C97   C106  A    
C104  Cl11  S    
Cu2   Cu12  S    
C63   C133  S    
C122  C131  A    
Cu4   O29   S    
C87   H16   S    
Cu7   O21   S    
C23   C54   A    
Cu6   O23   S    
C63   C77   A    
C27   C47   A    
C68   C77   A    
C68   Cl2   S    
C9    C44   A    
C115  C124  A    
C37   C143  S    
C57   H13   S    
C70   C79   A    
C137  O18   A    
C93   C102  A    
C108  C117  A    
C86   C130  A    
C88   C97   A    
C23   C32   A    
C148  O38   A    
C109  Cl16  S    
C110  C119  A    
C143  O1    A    
C114  C116  S    
C64   C134  S    
C59   C80   A    
C113  C127  S    
C124  H27   S    
C26   C48   A    
C67   Cl24  S    
C96   C146  S    
C21   C30   A    
C7    O32   A    
C11   C47   A    
C13   H7    S    
C48   C138  A    
C89   C98   A    
C27   C36   A    
C120  H22   S    
C141  O46   A    
C5    O35   A    
C4    C100  S    
C9    C15   A    
C28   C37   A    
Cu6   O11   S    
C118  C126  A    
C145  O26   A    
Cu2   O41   S    
C60   C84   A    
Cu4   O38   S    
Cu10  O46   S    
C60   C69   A    
C81   Cl1   S    
C66   C75   A    
C72   C119  S    
C94   C112  S    
C78   Cl23  S    
C110  Cl17  S    
C121  H24   S    
C25   C55   A    
C74   Cl7   S    
C38   C142  S    
C14   C16   A    
C32   C40   A    
C62   C82   A    
C76   Cl21  S    
C75   C84   A    
C141  O21   A    
C80   Cl12  S    
C86   C95   A    
C98   C107  A    
Cu8   O14   S    
C13   C50   A    
C39   H1    S    
C17   C19   A    
C1    O9    A    
C58   C67   A    
C112  C121  A    
C85   H14   S    
C4    O40   A    
C72   O8    A    
C35   H9    S    
C29   C45   A    
C35   C52   A    
C94   O2    A    
C88   C132  A    
C143  O24   A    
C103  C112  A    
C73   Cl6   S    
C3    C95   S    
C67   C76   A    
C10   C17   A    
C15   C46   A    
C31   C140  S    
C36   C144  S    
C6    O42   A    
C117  C125  A    
Cu2   O32   S    
Cu1   O48   S    
Cu11  O17   S    
Cu7   O4    S    
C2    C19   A    
C25   C33   A    
C23   C44   A    
C140  O47   A    
