data_mof_unit_6511.cif
_audit_creation_date              2012-12-10T20:51:47-0500
_audit_creation_method            fapswitch 2.2
_symmetry_space_group_name_H-M    P1
_symmetry_Int_Tables_number       1
_space_group_crystal_system       triclinic
_cell_length_a                    8.121496
_cell_length_b                    8.907112
_cell_length_c                    16.761514
_cell_angle_alpha                 89.597253
_cell_angle_beta                  93.523576
_cell_angle_gamma                 90.058374
_cell_volume                      1210.19016075

loop_
_atom_site_label
_atom_site_type_symbol
_atom_type_description
_atom_site_fract_x
_atom_site_fract_y
_atom_site_fract_z
_atom_type_partial_charge
C1    C     C_R   0.499926 0.218094 0.500029 0.940048
C2    C     C_R   0.620375 0.486438 0.137535 0.063866
C3    C     C_R   0.497558 0.376370 0.897308 0.216239
C4    C     C_R   0.467957 0.496073 0.092924 0.230518
C5    C     C_R   0.641483 0.345031 0.857841 0.168832
C6    C     C_R   0.323871 0.532570 0.130778 0.171334
C7    C     C_R   0.651515 0.391598 0.778501 -0.288655
C8    C     C_R   0.326645 0.531934 0.214047 -0.298363
C9    C     C_1   0.499920 0.065245 0.500059 -0.196840
C10   C     C_1   0.500103 0.934723 0.500060 -0.203591
C11   C     C_3   0.787624 0.700911 0.282158 0.145775
C12   C     C_R   0.500085 0.781897 0.500037 0.910504
C13   C     C_3   0.882156 0.793071 0.222677 -0.419519
C14   C     C_3   0.875066 0.960655 0.240675 -0.908234
C15   C     C_3   0.298212 0.745223 0.741383 0.124319
C16   C     C_3   0.264624 0.826236 0.819193 -0.391456
C17   C     C_3   0.303437 0.993722 0.813627 -0.933026
C18   C     C_3   0.775792 0.445551 0.098444 -0.877987
C19   C     C_3   0.190970 0.439311 0.887119 -0.836605
C20   C     C_3   0.784481 0.264036 0.899863 -0.907162
C21   C     C_3   0.167921 0.570839 0.082519 -0.919480
C22   C     C_R   0.519321 0.497439 0.654000 0.898886
C23   C     C_R   0.480954 0.508041 0.345921 0.901034
C24   C     C_R   0.522361 0.473571 0.740031 -0.257884
C25   C     C_R   0.476949 0.519246 0.258734 -0.268790
C26   C     C_R   0.379671 0.507089 0.780493 0.464572
C27   C     C_R   0.626100 0.518854 0.219096 0.469868
C28   C     C_R   0.359627 0.440966 0.854627 0.068331
H1    H     H_    0.759127 0.363023 0.746562 0.196632
H2    H     H_    0.222108 0.798437 0.691609 0.173980
H3    H     H_    0.429330 0.761711 0.727058 0.101185
H4    H     H_    0.132791 0.811829 0.831883 0.233551
H5    H     H_    0.342128 0.776526 0.869561 0.222089
H6    H     H_    0.435553 0.011018 0.802402 0.268344
H7    H     H_    0.277891 0.049026 0.870745 0.269760
H8    H     H_    0.225428 0.047241 0.764638 0.265745
H9    H     H_    0.762576 0.331646 0.072689 0.250452
H10   H     H_    0.800623 0.528769 0.051040 0.242622
H11   H     H_    0.883460 0.438912 0.142115 0.278006
H12   H     H_    0.212797 0.544829 0.243772 0.203993
H13   H     H_    0.156420 0.553581 0.905655 0.245282
H14   H     H_    0.098946 0.400503 0.840022 0.257259
H15   H     H_    0.185682 0.359359 0.937884 0.235630
H16   H     H_    0.739563 0.166201 0.933771 0.246525
H17   H     H_    0.871395 0.221275 0.856721 0.237347
H18   H     H_    0.852605 0.341834 0.941282 0.249574
H19   H     H_    0.193130 0.657126 0.036749 0.245972
H20   H     H_    0.116311 0.468351 0.053609 0.250701
H21   H     H_    0.075120 0.619007 0.120281 0.239342
H22   H     H_    0.856391 0.706441 0.341470 0.172848
H23   H     H_    0.665332 0.754230 0.289957 0.110664
H24   H     H_    0.013238 0.757474 0.226901 0.224803
H25   H     H_    0.828962 0.773721 0.160933 0.234061
H26   H     H_    0.745511 0.001159 0.234939 0.264856
H27   H     H_    0.947607 0.023876 0.197525 0.269554
H28   H     H_    0.928009 0.983009 0.302144 0.268600
N1    N     N_1   0.073640 0.500030 0.499990 -0.026842
N2    N     N_1   0.926360 0.499970 0.500010 -0.031138
N3    N     N_2   0.502817 0.369113 0.981570 -0.161957
N4    N     N_2   0.461476 0.492223 0.009010 -0.161919
O1    O     O_R   0.636850 0.285340 0.500000 -0.613051
O2    O     O_3   0.251261 0.591987 0.745145 -0.621636
O3    O     O_R   0.363150 0.714660 0.500000 -0.622149
O4    O     O_R   0.363100 0.285350 0.500000 -0.614525
O5    O     O_R   0.636900 0.714650 0.500000 -0.628559
O6    O     O_R   0.652140 0.498630 0.616140 -0.619337
O7    O     O_R   0.347860 0.501370 0.383860 -0.619062
O8    O     O_R   0.378390 0.498650 0.616130 -0.575996
O9    O     O_R   0.621610 0.501350 0.383870 -0.586986
O10   O     O_3   0.777787 0.547463 0.259162 -0.630243
Zn1   Zn    Zn3+2 0.682780 0.499990 0.500010 0.990314
Zn2   Zn    Zn3+2 0.317220 0.500010 0.499990 0.997176

loop_
_geom_bond_atom_site_label_1
_geom_bond_atom_site_label_2
_ccdc_geom_bond_type
C2    C4    A    
C18   H11   S    
C4    N4    S    
C15   H3    S    
C2    C27   A    
C7    H1    S    
C17   H8    S    
C7    C24   A    
C16   H5    S    
C2    C18   S    
C13   H24   S    
C5    C7    A    
C9    C10   T    
C23   O9    A    
C26   C28   A    
O6    Zn1   S    
C19   H14   S    
O8    Zn2   S    
C21   H20   S    
O1    Zn1   S    
C21   H21   S    
C14   H27   S    
C26   O2    S    
C11   O10   S    
C1    C9    S    
N3    N4    D    
C11   H22   S    
C13   C14   S    
C14   H28   S    
C19   C28   S    
C11   C13   S    
C22   O8    A    
N1    N2    T    
C27   O10   S    
C10   C12   S    
C3    C28   A    
C14   H26   S    
C18   H9    S    
C24   C26   A    
C13   H25   S    
C23   C25   S    
N1    Zn2   S    
C18   H10   S    
C5    C20   S    
C22   C24   S    
N2    Zn1   S    
C25   C27   A    
C17   H6    S    
C8    C25   A    
C15   C16   S    
C3    C5    A    
C1    O4    A    
C19   H13   S    
C11   H23   S    
O3    Zn2   S    
C15   H2    S    
C4    C6    A    
O7    Zn2   S    
C12   O5    A    
C23   O7    A    
C8    H12   S    
O9    Zn1   S    
C12   O3    A    
C3    N3    S    
C16   H4    S    
C22   O6    A    
C6    C8    A    
C17   H7    S    
C20   H16   S    
O5    Zn1   S    
C6    C21   S    
C15   O2    S    
C20   H18   S    
C20   H17   S    
O4    Zn2   S    
C19   H15   S    
C16   C17   S    
C21   H19   S    
C1    O1    A    
