data_mof_unit_34978.cif
_audit_creation_date              2012-12-10T19:01:18-0500
_audit_creation_method            fapswitch 2.2
_symmetry_space_group_name_H-M    P1
_symmetry_Int_Tables_number       1
_space_group_crystal_system       triclinic
_cell_length_a                    9.586236
_cell_length_b                    10.816759
_cell_length_c                    15.415088
_cell_angle_alpha                 88.710691
_cell_angle_beta                  74.80926
_cell_angle_gamma                 89.604323
_cell_volume                      1542.17931888

loop_
_atom_site_label
_atom_site_type_symbol
_atom_type_description
_atom_site_fract_x
_atom_site_fract_y
_atom_site_fract_z
_atom_type_partial_charge
C1    C     C_R   0.999585 0.262420 0.501661 0.792803
C2    C     C_R   0.672573 0.504129 0.908328 0.089470
C3    C     C_R   0.772914 0.474478 0.958780 0.168264
C4    C     C_R   0.523744 0.522090 0.953386 0.067729
C5    C     C_R   0.475855 0.499660 0.048023 0.066901
C6    C     C_R   0.580012 0.469321 0.095441 -0.218558
C7    C     C_R   0.725482 0.458280 0.051592 -0.238770
C8    C     C_R   0.422101 0.565019 0.907444 -0.221490
C9    C     C_R   0.278234 0.583670 0.952235 -0.242011
C10   C     C_R   0.229099 0.558659 0.044046 0.166067
C11   C     C_R   0.326145 0.513119 0.092592 0.095132
C12   C     C_R   0.918322 0.499838 0.672289 0.788805
C13   C     C_R   0.083683 0.580836 0.088228 -0.217444
C14   C     C_R   0.033013 0.558828 0.180414 -0.203405
C15   C     C_R   0.269693 0.484405 0.184552 -0.252592
C16   C     C_R   0.123820 0.062683 0.503856 0.112667
C17   C     C_R   0.996417 0.128998 0.510136 -0.094178
C18   C     C_R   0.864578 0.064519 0.528185 -0.213752
C19   C     C_R   0.864290 0.935587 0.527811 -0.218820
C20   C     C_R   0.995796 0.870507 0.509567 -0.099039
C21   C     C_R   0.123444 0.935418 0.503650 0.139173
C22   C     C_3   0.264636 0.930184 0.433858 -0.475273
C23   C     C_R   0.999132 0.737528 0.501287 0.801970
C24   C     C_3   0.264880 0.070459 0.433854 -0.462656
C25   C     C_R   0.591518 0.591106 0.455397 0.242959
C26   C     C_R   0.556592 0.416626 0.549645 -0.071515
C27   C     C_R   0.406851 0.418109 0.553485 0.215815
C28   C     C_R   0.444675 0.590781 0.454959 0.226370
C29   C     C_3   0.481011 0.620121 0.356680 -0.486815
C30   C     C_3   0.638903 0.620368 0.357192 -0.508580
C31   C     C_R   0.081325 0.501186 0.327794 0.798647
C32   C     C_R   0.871808 0.497013 0.771196 -0.045164
C33   C     C_R   0.126293 0.511604 0.229200 -0.050447
C34   C     C_R   0.920324 0.460766 0.915728 -0.214485
C35   C     C_R   0.969649 0.474378 0.822739 -0.209034
C36   C     C_R   0.724698 0.512007 0.814167 -0.249125
Cu1   Cu    Cu3+1 0.140670 0.499980 0.500000 0.931010
Cu2   Cu    Cu3+1 0.859330 0.500020 0.500000 0.932770
H1    H     H_    0.801438 0.436008 0.090820 0.149661
H2    H     H_    0.009933 0.618508 0.051833 0.143677
H3    H     H_    0.762588 0.113196 0.538565 0.158432
H4    H     H_    0.762242 0.887683 0.537900 0.163280
H5    H     H_    0.351370 0.888229 0.460749 0.196338
H6    H     H_    0.254411 0.891577 0.369542 0.194080
H7    H     H_    0.352321 0.109143 0.460219 0.191069
H8    H     H_    0.254542 0.113487 0.369610 0.199662
H9    H     H_    0.600388 0.347797 0.587174 0.153369
H10   H     H_    0.454507 0.543550 0.317204 0.210082
H11   H     H_    0.334785 0.440336 0.223468 0.136936
H12   H     H_    0.440823 0.712577 0.341672 0.194358
H13   H     H_    0.700786 0.543410 0.318314 0.209194
H14   H     H_    0.690213 0.713023 0.342693 0.195253
H15   H     H_    0.922347 0.581909 0.213600 0.147474
H16   H     H_    0.204897 0.618815 0.914577 0.148360
H17   H     H_    0.997431 0.438021 0.953919 0.146206
H18   H     H_    0.083356 0.464058 0.791103 0.165502
H19   H     H_    0.652079 0.526106 0.772263 0.153995
H20   H     H_    0.553879 0.457014 0.167324 0.138000
H21   H     H_    0.450689 0.590026 0.837035 0.141379
N1    N     N_R   0.648210 0.500930 0.499430 -0.206202
N2    N     N_R   0.352300 0.500890 0.499430 -0.208013
O1    O     O_R   0.118810 0.319640 0.500000 -0.600619
O2    O     O_R   0.881230 0.319680 0.499990 -0.585572
O3    O     O_R   0.055580 0.499970 0.629840 -0.593341
O4    O     O_R   0.818000 0.500010 0.629830 -0.585594
O5    O     O_R   0.118770 0.680320 0.500010 -0.573079
O6    O     O_R   0.881190 0.680360 0.500000 -0.581573
O7    O     O_R   0.182000 0.499990 0.370170 -0.582765
O8    O     O_R   0.944420 0.500030 0.370160 -0.578604
C37   C     C_3   0.316111 0.323672 0.618118 -0.367212
C38   C     C_3   0.334519 0.333384 0.713644 -0.913564
H22   H     H_    0.330361 0.431489 0.733967 0.255200
H23   H     H_    0.247000 0.281155 0.761708 0.251433
H24   H     H_    0.438875 0.292626 0.718378 0.248944
H25   H     H_    0.200780 0.331812 0.624344 0.265531
H26   H     H_    0.348877 0.229403 0.593485 0.175328

loop_
_geom_bond_atom_site_label_1
_geom_bond_atom_site_label_2
_ccdc_geom_bond_type
C8    C9    A    
C30   H13   S    
C16   C21   A    
C6    H20   S    
C19   C20   A    
C4    C8    A    
C1    O1    A    
C14   C33   A    
Cu1   O1    S    
C25   C28   A    
C26   C27   A    
C29   C30   S    
C24   H7    S    
C32   C36   A    
C23   O5    A    
C28   C29   S    
C5    C11   A    
C3    C7    A    
C8    H21   S    
C5    C6    A    
C12   O3    A    
Cu1   O7    S    
C34   C35   A    
C23   O6    A    
C13   H2    S    
C27   N2    A    
C11   C15   A    
C22   H6    S    
C16   C17   A    
C31   C33   S    
C37   C38   S    
C25   N1    A    
C9    C10   A    
C19   H4    S    
C28   N2    A    
Cu2   O8    S    
C34   H17   S    
C16   C24   S    
C13   C14   A    
C12   C32   S    
C1    O2    A    
C29   H12   S    
C31   O7    A    
C29   H10   S    
C32   C35   A    
C36   H19   S    
C18   H3    S    
C38   H23   S    
C18   C19   A    
C3    C34   A    
C2    C4    A    
Cu1   Cu2   S    
C22   H5    S    
C20   C23   S    
Cu1   O5    S    
C17   C18   A    
Cu2   O6    S    
C27   C37   S    
C26   H9    S    
Cu2   N1    S    
C37   H26   S    
C22   C24   S    
Cu1   O3    S    
Cu2   O2    S    
C2    C36   A    
C25   C30   S    
C30   H14   S    
C35   H18   S    
C4    C5    A    
C10   C13   A    
C38   H24   S    
Cu1   N2    S    
C6    C7    A    
C12   O4    A    
C1    C17   S    
C24   H8    S    
C2    C3    A    
C38   H22   S    
C15   H11   S    
C10   C11   A    
C31   O8    A    
C14   H15   S    
C20   C21   A    
C37   H25   S    
C7    H1    S    
C9    H16   S    
C21   C22   S    
Cu2   O4    S    
C26   N1    A    
C15   C33   A    
