data_mof_unit_55324.cif
_audit_creation_date              2012-12-11T14:08:12-0500
_audit_creation_method            fapswitch 2.2
_symmetry_space_group_name_H-M    P1
_symmetry_Int_Tables_number       1
_space_group_crystal_system       triclinic
_cell_length_a                    10.946859
_cell_length_b                    10.966226
_cell_length_c                    18.683462
_cell_angle_alpha                 90.520315
_cell_angle_beta                  89.684275
_cell_angle_gamma                 60.590325
_cell_volume                      1953.62469644

loop_
_atom_site_label
_atom_site_type_symbol
_atom_type_description
_atom_site_fract_x
_atom_site_fract_y
_atom_site_fract_z
_atom_type_partial_charge
C1    C     C_R   0.231551 0.648440 0.606846 0.547188
C2    C     C_3   0.663093 0.553444 0.801642 -0.242783
C3    C     C_3   0.695832 0.673386 0.813199 0.049047
C4    C     C_3   0.666189 0.647373 0.677264 0.051782
C5    C     C_3   0.810043 0.636217 0.690083 -0.249875
C6    C     C_3   0.653147 0.533001 0.720905 -0.199036
C7    C     C_2   0.678842 0.147520 0.667647 -0.078484
C8    C     C_2   0.691554 0.167948 0.827184 0.261755
C9    C     C_2   0.801696 0.106267 0.781262 -0.133987
C10   C     C_2   0.786013 0.142661 0.704706 -0.145665
C11   C     C_2   0.160812 0.676454 0.675629 -0.118485
C12   C     C_R   0.652447 0.621560 0.601795 0.541045
C13   C     C_2   0.169344 0.677766 0.832967 -0.140818
C14   C     C_2   0.146901 0.589235 0.792599 -0.191127
C15   C     C_2   0.176928 0.570261 0.716092 -0.167577
C16   C     C_2   0.651151 0.646141 0.317520 -0.089850
C17   C     C_2   0.633636 0.666264 0.159908 -0.112131
C18   C     C_2   0.706102 0.546895 0.195229 -0.162989
C19   C     C_2   0.687701 0.537754 0.271783 -0.147496
C20   C     C_2   0.673720 0.137999 0.333439 -0.111225
C21   C     C_2   0.652211 0.146078 0.179267 -0.097752
C22   C     C_2   0.608369 0.076285 0.221647 -0.151460
C23   C     C_R   0.628697 0.226227 0.601257 0.547465
C24   C     C_2   0.591573 0.100841 0.298079 -0.164117
C25   C     C_2   0.123325 0.679457 0.344967 -0.106565
C26   C     C_2   0.113579 0.691611 0.190602 -0.089268
C27   C     C_2   0.043293 0.803463 0.234645 -0.146353
C28   C     C_2   0.075665 0.798611 0.309906 -0.165550
C29   C     C_R   0.704522 0.100587 0.897060 0.524629
C30   C     C_R   0.722359 0.687344 0.888983 0.539823
C31   C     C_R   0.113475 0.709887 0.905562 0.541890
C32   C     C_R   0.675705 0.105394 0.105085 0.545317
C33   C     C_R   0.692413 0.689000 0.094810 0.551243
C34   C     C_R   0.216089 0.650727 0.404499 0.556501
C35   C     C_R   0.086129 0.713843 0.115298 0.552665
C36   C     C_R   0.641724 0.620833 0.392800 0.550724
C37   C     C_R   0.621037 0.222849 0.397440 0.552981
C38   C     C_3   0.571909 0.811367 0.783623 -0.234445
C39   C     C_3   0.550116 0.793362 0.703978 -0.242764
C40   C     C_3   0.830799 0.640884 0.770517 -0.222786
Cr1   Cr    Cr6+3 0.393010 0.398050 0.501480 1.020217
Cr2   Cr    Cr6+3 0.398820 0.707980 0.501630 1.015693
Cr3   Cr    Cr6+3 0.708140 0.393940 0.496850 1.010871
Cr4   Cr    Cr6+3 0.937950 0.938450 0.008940 1.013431
Cr5   Cr    Cr6+3 0.626180 0.937030 0.994750 1.000951
Cr6   Cr    Cr6+3 0.937790 0.625760 0.001410 1.009442
H1    H     H_    0.594822 0.899244 0.789915 0.138499
H2    H     H_    0.738541 0.427090 0.705019 0.147055
H3    H     H_    0.915840 0.536040 0.786152 0.129707
H4    H     H_    0.896742 0.536896 0.667311 0.137568
H5    H     H_    0.902882 0.023208 0.798706 0.100637
H6    H     H_    0.857085 0.173484 0.680670 0.129242
H7    H     H_    0.613127 0.110259 0.692243 0.131298
H8    H     H_    0.111464 0.523187 0.817114 0.146851
H9    H     H_    0.217758 0.465718 0.693491 0.156132
H10   H     H_    0.213367 0.738666 0.810030 0.103100
H11   H     H_    0.473509 0.839929 0.814024 0.119982
H12   H     H_    0.114560 0.782108 0.697730 0.104318
H13   H     H_    0.791351 0.455256 0.169274 0.153442
H14   H     H_    0.717538 0.434061 0.291751 0.149478
H15   H     H_    0.542984 0.755119 0.184409 0.104508
H16   H     H_    0.619987 0.751211 0.299576 0.088165
H17   H     H_    0.577191 0.003754 0.199466 0.152523
H18   H     H_    0.500376 0.103815 0.323221 0.155991
H19   H     H_    0.684316 0.218742 0.199988 0.083769
H20   H     H_    0.769576 0.126249 0.309258 0.095106
H21   H     H_    0.971193 0.906082 0.213601 0.156322
H22   H     H_    0.444553 0.803468 0.697115 0.143838
H23   H     H_    0.078287 0.888519 0.333113 0.152324
H24   H     H_    0.187025 0.587733 0.209374 0.093207
H25   H     H_    0.111888 0.593327 0.323198 0.113068
H26   H     H_    0.553216 0.877654 0.672606 0.114487
H27   H     H_    0.862225 0.721152 0.782681 0.130277
H28   H     H_    0.815348 0.724191 0.663721 0.115297
H29   H     H_    0.746548 0.454485 0.824866 0.137491
H30   H     H_    0.562292 0.578989 0.828694 0.117473
H31   H     H_    0.551695 0.536535 0.709436 0.144083
O1    O     O_R   0.507110 0.256280 0.580300 -0.518482
O2    O     O_R   0.524640 0.695370 0.425100 -0.493501
O3    O     O_R   0.735890 0.504390 0.415980 -0.512850
O4    O     O_R   0.690560 0.277820 0.422350 -0.508052
O5    O     O_3   0.499990 0.499990 0.499980 -0.248684
O6    O     O_R   0.089190 0.825870 0.932320 -0.517084
O7    O     O_R   0.819070 0.053960 0.931440 -0.519306
O8    O     O_R   0.607070 0.076440 0.916460 -0.535435
O9    O     O_R   0.647110 0.806550 0.917690 -0.511930
O10   O     O_R   0.837080 0.593860 0.915300 -0.530900
O11   O     O_R   0.064770 0.636080 0.932550 -0.504425
O12   O     O_R   0.280830 0.527190 0.577940 -0.498251
O13   O     O_R   0.068250 0.829200 0.092940 -0.514469
O14   O     O_R   0.799650 0.057040 0.080330 -0.503304
O15   O     O_R   0.586130 0.079760 0.077080 -0.512692
O16   O     O_R   0.627700 0.809630 0.066580 -0.502526
O17   O     O_R   0.816140 0.597180 0.075920 -0.509262
O18   O     O_R   0.045360 0.639170 0.081440 -0.493248
O19   O     O_3   0.833980 0.833750 0.001700 -0.249421
O20   O     O_R   0.261360 0.738990 0.584270 -0.525609
O21   O     O_R   0.532590 0.694780 0.574370 -0.508784
O22   O     O_R   0.744470 0.503750 0.577000 -0.529872
O23   O     O_R   0.698520 0.277230 0.571620 -0.504305
O24   O     O_R   0.498530 0.256920 0.419280 -0.512788
O25   O     O_R   0.272880 0.527780 0.428680 -0.500834
O26   O     O_R   0.252780 0.739630 0.423250 -0.512428
O27   O     O_3   0.567007 0.278752 0.801679 -0.588675
C41   C     C_3   0.455228 0.336580 0.851594 0.014261
H32   H     H_    0.398501 0.449611 0.842084 0.152912
H33   H     H_    0.486518 0.330417 0.908495 0.128329
C42   C     C_3   0.357072 0.276124 0.838967 -0.351975
H34   H     H_    0.412108 0.160623 0.841673 0.171824
H35   H     H_    0.271121 0.319211 0.879528 0.103559
H36   H     H_    0.312819 0.301845 0.784564 0.130894

loop_
_geom_bond_atom_site_label_1
_geom_bond_atom_site_label_2
_ccdc_geom_bond_type
C7    C10   D    
Cr1   O12   S    
C39   H22   S    
C28   H23   S    
Cr2   O5    S    
Cr4   O6    S    
C10   H6    S    
Cr2   O26   S    
C2    H30   S    
C42   H34   S    
C25   C28   D    
C41   H33   S    
C26   C27   D    
C34   O25   A    
C16   H16   S    
C8    C29   S    
C20   H20   S    
C26   H24   S    
Cr3   O22   S    
Cr2   O21   S    
C38   C39   S    
C32   O14   A    
C40   H3    S    
C31   O6    A    
C40   H27   S    
C18   C19   S    
C5    H28   S    
Cr5   O15   S    
C12   O22   A    
C17   H15   S    
C22   H17   S    
C11   C15   D    
Cr6   O18   S    
C20   C24   D    
C3    C38   S    
Cr1   O24   S    
C8    C9    D    
C9    H5    S    
C39   H26   S    
C25   H25   S    
C30   O9    A    
C11   H12   S    
C9    C10   S    
C12   O21   A    
C25   C34   S    
C13   H10   S    
C23   O23   A    
Cr5   O16   S    
Cr2   O2    S    
C24   H18   S    
C21   C22   D    
C33   O17   A    
C37   O4    A    
C2    C6    S    
C17   C33   S    
O27   C41   S    
C21   C32   S    
Cr6   O11   S    
C41   C42   S    
Cr3   O23   S    
C29   O7    A    
C4    C6    S    
C36   O3    A    
Cr2   O20   S    
C1    O20   A    
Cr1   O1    S    
C6    H31   S    
Cr3   O3    S    
C15   H9    S    
C3    C30   S    
Cr5   O8    S    
Cr4   O19   S    
C38   H11   S    
C18   H13   S    
Cr6   O17   S    
C4    C39   S    
C17   C18   D    
C8    O27   S    
C38   H1    S    
Cr4   O14   S    
C6    H2    S    
C14   H8    S    
C3    C40   S    
Cr3   O4    S    
C22   C24   S    
C5    H4    S    
C4    C12   S    
C7    H7    S    
Cr1   O25   S    
Cr4   O13   S    
Cr6   O10   S    
C1    O12   A    
C31   O11   A    
C21   H19   S    
C29   O8    A    
C13   C31   S    
C4    C5    S    
Cr4   O7    S    
C36   O2    A    
C33   O16   A    
C35   O18   A    
C19   H14   S    
C41   H32   S    
C34   O26   A    
C42   H36   S    
C2    C3    S    
C16   C36   S    
C37   O24   A    
C20   C37   S    
C32   O15   A    
C16   C19   D    
C7    C23   S    
Cr1   O5    S    
C42   H35   S    
Cr5   O9    S    
C23   O1    A    
C27   H21   S    
C35   O13   A    
C26   C35   S    
Cr6   O19   S    
C5    C40   S    
C27   C28   S    
Cr3   O5    S    
C14   C15   S    
C1    C11   S    
C30   O10   A    
C13   C14   D    
Cr5   O19   S    
C2    H29   S    
