data_mof_unit_62179.cif
_audit_creation_date              2012-12-10T19:31:49-0500
_audit_creation_method            fapswitch 2.2
_symmetry_space_group_name_H-M    P1
_symmetry_Int_Tables_number       1
_space_group_crystal_system       triclinic
_cell_length_a                    18.726209
_cell_length_b                    18.598577
_cell_length_c                    18.691926
_cell_angle_alpha                 109.079994
_cell_angle_beta                  109.555971
_cell_angle_gamma                 109.243488
_cell_volume                      5044.13238791

loop_
_atom_site_label
_atom_site_type_symbol
_atom_type_description
_atom_site_fract_x
_atom_site_fract_y
_atom_site_fract_z
_atom_type_partial_charge
C1    C     C_R   0.380103 0.379947 0.500427 0.862853
C2    C     C_R   0.178363 0.179944 0.421161 0.064590
C3    C     C_3   0.170014 0.108284 0.346339 0.258530
C4    C     C_R   0.618712 0.497870 0.620624 0.888143
C5    C     C_3   0.239732 0.179545 0.346051 -0.478793
C6    C     C_R   0.239223 0.424795 0.246842 0.068424
C7    C     C_R   0.314312 0.501271 0.314277 -0.081966
C8    C     C_R   0.324535 0.580964 0.317716 -0.194515
C9    C     C_R   0.259730 0.580998 0.252598 -0.194661
C10   C     C_R   0.183635 0.501588 0.185827 -0.056363
C11   C     C_R   0.175676 0.425192 0.186425 0.055225
C12   C     C_3   0.809512 0.502056 0.809973 0.086185
C13   C     C_3   0.118218 0.328603 0.139471 -0.468551
C14   C     C_3   0.190637 0.328240 0.209681 0.224519
C15   C     C_R   0.758085 0.679498 0.501484 0.211030
C16   C     C_R   0.619538 0.620316 0.499420 0.914205
C17   C     C_R   0.686971 0.687620 0.502119 -0.114810
C18   C     C_R   0.686062 0.765943 0.514812 -0.208224
C19   C     C_R   0.750316 0.830211 0.514637 -0.207834
C20   C     C_R   0.816321 0.816667 0.504482 -0.088392
C21   C     C_R   0.823055 0.744248 0.504129 0.151138
C22   C     C_3   0.833399 0.680067 0.441296 -0.552939
C23   C     C_3   0.849133 0.578499 0.793124 -0.370191
C24   C     C_3   0.761099 0.608500 0.437749 -0.415635
C25   C     C_R   0.999349 0.379959 0.879213 0.933193
C26   C     C_R   0.876913 0.501621 0.877731 0.885822
C27   C     C_R   0.995470 0.620241 0.115183 0.919517
C28   C     C_R   0.379145 0.499800 0.379530 0.871423
C29   C     C_R   0.117760 0.500095 0.118331 0.893471
C30   C     C_R   0.999409 0.120229 0.619397 0.892639
C31   C     C_R   0.119634 0.119413 0.499060 0.873398
C32   C     C_R   0.000728 0.879973 0.380343 0.887864
C33   C     C_R   0.880382 0.879862 0.500260 0.864989
C34   C     C_3   0.742297 0.511298 0.837661 -0.391041
C35   C     C_R   0.923977 0.252395 0.736130 0.005663
C36   C     C_R   0.001254 0.315175 0.814035 -0.218258
C37   C     C_R   0.081089 0.320429 0.823660 0.391186
C38   C     C_R   0.080608 0.256624 0.758394 -0.245947
C39   C     C_R   0.001395 0.189149 0.684100 -0.161730
C40   C     C_3   0.692329 0.413384 0.651998 -0.351481
C41   C     C_R   0.924303 0.190030 0.671606 0.175108
C42   C     C_3   0.840934 0.118371 0.649998 -0.545962
C43   C     C_3   0.840466 0.186916 0.721537 -0.194898
C44   C     C_R   0.041120 0.706637 0.265920 0.100965
C45   C     C_R   0.241889 0.243667 0.421228 0.023922
C46   C     C_R   0.996674 0.687899 0.180135 -0.174691
C47   C     C_R   0.965689 0.743215 0.161479 -0.050399
C48   C     C_R   0.969324 0.807823 0.229290 -0.135132
C49   C     C_R   0.004591 0.818413 0.313562 -0.125575
C50   C     C_R   0.045398 0.771372 0.332067 0.179692
C51   C     C_3   0.034215 0.719292 0.377589 -0.479204
C52   C     C_3   0.762783 0.414553 0.724753 -0.417560
C53   C     C_3   0.029694 0.647739 0.304459 -0.493160
C54   C     C_3   0.776516 0.579469 0.724267 0.205184
C55   C     C_3   0.668490 0.506111 0.764361 -0.484090
C56   C     C_R   0.312119 0.315455 0.499837 -0.053540
C57   C     C_3   0.687632 0.498916 0.688299 0.080392
C58   C     C_2   0.198602 0.047780 0.369099 0.884391
C59   C     C_2   0.766766 0.204802 0.688387 0.949273
C60   C     C_2   0.925255 0.733408 0.072956 0.902228
C61   C     C_R   0.312289 0.328639 0.578289 -0.187322
C62   C     C_R   0.248388 0.263865 0.578301 -0.168569
C63   C     C_R   0.183812 0.187286 0.499653 -0.082038
Cl1   Cl    Cl    0.065152 0.053365 0.251417 -0.545751
Cl2   Cl    Cl    0.243141 0.275903 0.167501 -0.535986
Cl3   Cl    Cl    0.181376 0.400099 0.919477 -0.575187
Cl4   Cl    Cl    0.801135 0.583890 0.640258 -0.665405
H1    H     H_    0.707543 0.406138 0.598235 0.234087
H2    H     H_    0.628263 0.355450 0.624754 0.168546
H3    H     H_    0.268490 0.642437 0.254921 0.163142
H4    H     H_    0.057302 0.309959 0.143225 0.185231
H5    H     H_    0.108994 0.297172 0.072835 0.248630
H6    H     H_    0.171998 0.309059 0.253897 0.108127
H7    H     H_    0.633632 0.775358 0.520300 0.165378
H8    H     H_    0.747458 0.888939 0.520210 0.156863
H9    H     H_    0.815213 0.681032 0.378671 0.202595
H10   H     H_    0.897702 0.684163 0.472367 0.223441
H11   H     H_    0.700571 0.568155 0.373134 0.208929
H12   H     H_    0.774555 0.574774 0.898134 0.189638
H13   H     H_    0.731973 0.359133 0.734780 0.220504
H14   H     H_    0.783613 0.570842 0.466006 0.250012
H15   H     H_    0.141323 0.258128 0.766785 0.193186
H16   H     H_    0.788318 0.091442 0.582706 0.232087
H17   H     H_    0.849989 0.068085 0.665568 0.187505
H18   H     H_    0.848688 0.175878 0.778163 0.167849
H19   H     H_    0.943283 0.849011 0.216097 0.232403
H20   H     H_    0.093281 0.749552 0.441609 0.217432
H21   H     H_    0.810462 0.405392 0.705101 0.193657
H22   H     H_    0.971971 0.700689 0.378819 0.195767
H23   H     H_    0.774265 0.640293 0.755712 0.131024
H24   H     H_    0.086269 0.636834 0.326184 0.207232
H25   H     H_    0.964860 0.587426 0.263317 0.222374
H26   H     H_    0.896033 0.571195 0.771272 0.225630
H27   H     H_    0.662651 0.565498 0.791426 0.199840
H28   H     H_    0.605545 0.448387 0.740345 0.188927
H29   H     H_    0.713987 0.458479 0.851899 0.206331
H30   H     H_    0.286973 0.035403 0.454724 0.351490
H31   H     H_    0.695837 0.227876 0.599480 0.336500
H32   H     H_    0.843752 0.754133 0.989983 0.343784
H33   H     H_    0.886141 0.642243 0.854285 0.204311
H34   H     H_    0.363963 0.386572 0.639626 0.159193
H35   H     H_    0.250503 0.272376 0.639303 0.155395
H36   H     H_    0.302331 0.178745 0.364125 0.213310
H37   H     H_    0.215409 0.187531 0.287741 0.253938
H38   H     H_    0.382515 0.642259 0.369441 0.154780
O1    O     O_R   0.408690 0.356690 0.448570 -0.612939
O2    O     O_R   0.947510 0.091650 0.539220 -0.613824
O3    O     O_R   0.143610 0.091630 0.552030 -0.611403
O4    O     O_R   0.408080 0.460090 0.551420 -0.628454
O5    O     O_R   0.039620 0.091690 0.448080 -0.594148
O6    O     O_R   0.052490 0.908450 0.460880 -0.618642
O7    O     O_R   0.948500 0.908500 0.356930 -0.613617
O8    O     O_R   0.960380 0.908410 0.552020 -0.614039
O9    O     O_R   0.856390 0.908470 0.448070 -0.621202
O10   O     O_R   0.592400 0.448300 0.540680 -0.602635
O11   O     O_R   0.591790 0.551700 0.643540 -0.637322
O12   O     O_R   0.049530 0.460080 0.906210 -0.578147
O13   O     O_R   0.591920 0.539910 0.448580 -0.609621
O14   O     O_R   0.591310 0.643310 0.551430 -0.620705
O15   O     O_R   0.408210 0.448300 0.356460 -0.570650
O16   O     O_R   0.407600 0.551700 0.459320 -0.633151
O17   O     O_R   0.946090 0.356720 0.906270 -0.628364
O18   O     O_2   0.155963 0.968946 0.319159 -0.589612
O19   O     O_R   0.274801 0.082313 0.446825 -0.816337
O20   O     O_2   0.722378 0.205629 0.723633 -0.634449
O21   O     O_R   0.748567 0.219390 0.617118 -0.804878
O22   O     O_2   0.944163 0.700687 0.019111 -0.648260
O23   O     O_R   0.853510 0.448360 0.905260 -0.625367
O24   O     O_R   0.866580 0.764038 0.051756 -0.789328
O25   O     O_R   0.956950 0.551730 0.905200 -0.604215
O26   O     O_R   0.945130 0.540000 0.088470 -0.638213
O27   O     O_R   0.048570 0.643360 0.088400 -0.575912
O28   O     O_R   0.037700 0.448350 0.089480 -0.631673
O29   O     O_R   0.141150 0.551720 0.089410 -0.602508
O30   O     O_R   0.051500 0.091600 0.643170 -0.617985
Zn1   Zn    Zn3+2 0.500410 0.430960 0.431320 1.041295
Zn2   Zn    Zn3+2 0.499590 0.569040 0.568680 0.975610
Zn3   Zn    Zn3+2 0.928260 0.431020 0.997380 0.991727
Zn4   Zn    Zn3+2 0.066400 0.569060 0.997290 1.064242
Zn5   Zn    Zn3+2 0.069430 0.000010 0.569450 1.000775
Zn6   Zn    Zn3+2 0.930570 0.000090 0.430650 1.025523

loop_
_geom_bond_atom_site_label_1
_geom_bond_atom_site_label_2
_ccdc_geom_bond_type
C29   O28   A    
C5    H36   S    
C32   O6    A    
C30   O2    A    
C27   O26   A    
C31   O3    A    
C4    O10   A    
C35   C36   A    
C22   H9    S    
C8    H38   S    
C7    C8    A    
C39   C41   A    
C3    Cl1   S    
C59   O21   S    
C12   C23   S    
C33   O9    A    
C62   C63   A    
C21   C22   S    
C36   C37   A    
C1    C56   S    
C34   H29   S    
C54   H23   S    
H30   O19   S    
C38   C39   A    
O10   Zn1   S    
O4    Zn2   S    
C18   C19   A    
C41   C42   S    
O16   Zn2   S    
O23   Zn3   S    
C1    O4    A    
C47   C60   S    
C44   C53   S    
C14   Cl2   S    
C19   C20   A    
C45   C56   A    
C16   C17   S    
C4    C57   S    
C53   H24   S    
O2    Zn6   S    
C35   C43   S    
C9    C10   A    
C26   O25   A    
C43   C59   S    
C1    O1    A    
O1    Zn1   S    
C23   H33   S    
C5    H37   S    
C34   C55   S    
C18   H7    S    
C13   C14   S    
C38   H15   S    
C27   O27   A    
O12   Zn4   S    
C55   H27   S    
O25   Zn4   S    
C12   C52   S    
C44   C46   A    
O6    Zn5   S    
C50   C51   S    
C2    C45   A    
O30   Zn5   S    
C40   H2    S    
H32   O24   S    
O14   Zn2   S    
O9    Zn6   S    
C31   C63   S    
C52   H21   S    
C42   H17   S    
C9    H3    S    
O17   Zn3   S    
C55   H28   S    
C28   O15   A    
C16   O14   A    
C51   H20   S    
C6    C11   A    
O3    Zn5   S    
C28   O16   A    
C8    C9    A    
C54   Cl4   S    
C13   H4    S    
C40   C52   S    
C5    C45   S    
C7    C28   S    
C23   H26   S    
C12   C26   S    
O15   Zn1   S    
C43   H18   S    
O7    Zn6   S    
O5    Zn6   S    
C61   H34   S    
C24   H14   S    
C14   H6    S    
C37   C38   A    
C16   O13   A    
C34   H12   S    
C6    C14   S    
C47   C48   A    
C15   C21   A    
C37   Cl3   S    
C53   H25   S    
C17   C18   A    
C58   O18   D    
O8    Zn5   S    
C26   O23   A    
C20   C33   S    
C27   C46   S    
C24   H11   S    
C48   C49   A    
C30   O30   A    
C55   C57   S    
C48   H19   S    
C42   C43   S    
C12   C34   S    
O29   Zn4   S    
O13   Zn1   S    
C2    C63   A    
C23   C54   S    
O11   Zn2   S    
C25   O17   A    
H31   O21   S    
C44   C50   A    
C15   C17   A    
C46   C47   A    
C15   C24   S    
C40   C57   S    
C32   O7    A    
C33   O8    A    
C4    O11   A    
C60   O22   D    
C42   H16   S    
C22   H10   S    
C3    C5    S    
C25   O12   A    
C60   O24   S    
C6    C7    A    
C13   H5    S    
C59   O20   D    
C58   O19   S    
C19   H8    S    
O27   Zn4   S    
O26   Zn3   S    
C51   H22   S    
C29   O29   A    
C11   C13   S    
C10   C29   S    
C31   O5    A    
C30   C39   S    
C2    C3    S    
C22   C24   S    
C61   C62   A    
C35   C41   A    
C32   C49   S    
C10   C11   A    
C25   C36   S    
C3    C58   S    
O28   Zn3   S    
C20   C21   A    
C49   C50   A    
C40   H1    S    
C56   C61   A    
C51   C53   S    
C52   H13   S    
C62   H35   S    
C54   C57   S    
