data_mof_unit_13215.cif
_audit_creation_date              2012-12-10T20:31:55-0500
_audit_creation_method            fapswitch 2.2
_symmetry_space_group_name_H-M    P1
_symmetry_Int_Tables_number       1
_space_group_crystal_system       triclinic
_cell_length_a                    9.8717
_cell_length_b                    10.639253
_cell_length_c                    15.46751
_cell_angle_alpha                 89.974494
_cell_angle_beta                  67.552798
_cell_angle_gamma                 89.622153
_cell_volume                      1501.39115696

loop_
_atom_site_label
_atom_site_type_symbol
_atom_type_description
_atom_site_fract_x
_atom_site_fract_y
_atom_site_fract_z
_atom_type_partial_charge
C1    C     C_R   0.499944 0.739590 0.499720 0.894857
C2    C     C_R   0.434043 0.552358 0.904706 0.099300
C3    C     C_R   0.303008 0.619883 0.953956 0.160442
C4    C     C_R   0.545571 0.542844 0.941310 0.022094
C5    C     C_R   0.509600 0.574634 0.036316 0.043324
C6    C     C_R   0.377516 0.642008 0.084434 -0.172634
C7    C     C_R   0.277776 0.666574 0.042799 -0.201230
C8    C     C_R   0.692541 0.507562 0.885858 0.411227
C9    C     C_R   0.790551 0.479935 0.929056 -0.253131
C10   C     C_R   0.747267 0.487433 0.026027 0.005230
C11   C     C_R   0.606649 0.537620 0.079943 0.063570
C12   C     C_R   0.408232 0.501149 0.676203 0.884472
C13   C     C_R   0.841555 0.445301 0.070087 0.171872
C14   C     C_R   0.795423 0.454778 0.168319 0.412673
C15   C     C_R   0.561764 0.540041 0.177021 -0.305660
C16   C     C_R   0.479451 0.937332 0.428805 0.065587
C17   C     C_R   0.502562 0.871321 0.499431 -0.131012
C18   C     C_R   0.548675 0.932882 0.563179 -0.242477
C19   C     C_R   0.548631 0.062865 0.565192 0.266237
C20   C     C_R   0.503640 0.128576 0.501654 -0.206052
C21   C     C_R   0.479865 0.065556 0.430115 0.082407
C22   C     C_3   0.357426 0.075649 0.396247 0.107707
C23   C     C_R   0.499454 0.260444 0.502090 0.958876
C24   C     C_3   0.357252 0.932696 0.394375 -0.494905
C25   C     C_R   0.886092 0.556345 0.570905 0.300544
C26   C     C_R   0.967564 0.434444 0.434694 -0.100318
C27   C     C_R   0.111535 0.434491 0.434640 -0.119832
C28   C     C_R   0.028175 0.555546 0.571367 0.184193
C29   C     C_3   0.016123 0.690242 0.599929 -0.507364
C30   C     C_3   0.863230 0.691489 0.598275 -0.475608
C31   C     C_R   0.592211 0.498936 0.323641 0.950852
C32   C     C_R   0.352903 0.522366 0.776874 -0.081734
C33   C     C_R   0.652845 0.498646 0.221149 -0.132960
C34   C     C_R   0.199480 0.639848 0.913126 -0.139034
C35   C     C_R   0.226675 0.594389 0.823279 -0.174413
C36   C     C_R   0.447116 0.492595 0.821630 -0.115859
H1    H     H_    0.178874 0.719638 0.081257 0.158581
H2    H     H_    0.576512 0.880333 0.614272 0.179044
H3    H     H_    0.255797 0.117542 0.448759 0.148102
H4    H     H_    0.255519 0.892152 0.446321 0.183584
H5    H     H_    0.393078 0.891363 0.323066 0.230681
H6    H     H_    0.945740 0.383421 0.380993 0.197392
H7    H     H_    0.198147 0.383487 0.380807 0.190370
H8    H     H_    0.016243 0.702164 0.671295 0.210302
H9    H     H_    0.452152 0.568970 0.220712 0.178828
H10   H     H_    0.094258 0.750819 0.545562 0.216308
H11   H     H_    0.775127 0.705486 0.668467 0.242997
H12   H     H_    0.853770 0.752071 0.542220 0.214232
H13   H     H_    0.901214 0.452352 0.885445 0.190693
H14   H     H_    0.100271 0.693620 0.949392 0.148135
H15   H     H_    0.152438 0.618730 0.789245 0.148729
H16   H     H_    0.533230 0.424699 0.788547 0.228223
H17   H     H_    0.350874 0.681453 0.153245 0.149588
N1    N     N_R   0.856900 0.500860 0.500610 -0.117884
N2    N     N_R   0.142540 0.500820 0.500610 -0.111227
O1    O     O_R   0.385310 0.683210 0.499990 -0.624651
O2    O     O_R   0.614650 0.683240 0.500000 -0.628202
O3    O     O_R   0.319830 0.499970 0.632240 -0.615628
O4    O     O_R   0.549170 0.500000 0.632250 -0.590057
O5    O     O_R   0.385350 0.316760 0.500000 -0.620321
O6    O     O_R   0.614690 0.316790 0.500010 -0.575561
O7    O     O_R   0.450830 0.500000 0.367750 -0.626242
O8    O     O_R   0.680170 0.500030 0.367760 -0.566482
Zn1   Zn    Zn3+2 0.346870 0.499980 0.499990 0.956245
Zn2   Zn    Zn3+2 0.653130 0.500020 0.500010 1.007215
Br1   Br    Br    0.023391 0.358334 0.999277 -0.506918
Br2   Br    Br    0.593375 0.144177 0.662051 -0.494937
Br3   Br    Br    0.422576 0.151416 0.272953 -0.483685
O9    O     O_3   0.882912 0.415309 0.214859 -0.746518
H18   H     H_    0.986939 0.417136 0.171771 0.367438
O10   O     O_3   0.742818 0.510984 0.789406 -0.803875
H19   H     H_    0.846346 0.482215 0.762056 0.334259

loop_
_geom_bond_atom_site_label_1
_geom_bond_atom_site_label_2
_ccdc_geom_bond_type
C1    O1    A    
C2    C4    A    
O1    Zn1   S    
C19   Br2   S    
C16   C21   A    
C1    O2    A    
C9    C10   A    
C27   N2    A    
C1    C17   S    
C19   C20   A    
C36   H16   S    
C20   C23   S    
O5    Zn1   S    
C29   H10   S    
C4    C8    A    
O9    H18   S    
C12   O3    A    
N2    Zn1   S    
C20   C21   A    
C14   C33   A    
C31   C33   S    
C2    C3    A    
C7    H1    S    
C18   H2    S    
O10   H19   S    
C16   C24   S    
N1    Zn2   S    
C21   C22   S    
C12   C32   S    
C25   C28   A    
O3    Zn1   S    
C24   H5    S    
C31   O7    A    
C22   Br3   S    
C26   C27   A    
C29   C30   S    
O6    Zn2   S    
C22   H3    S    
C32   C36   A    
C22   C24   S    
C30   H12   S    
C28   C29   S    
C24   H4    S    
C28   N2    A    
C17   C18   A    
C6    C7    A    
C3    C7    A    
C13   Br1   S    
C5    C11   A    
C35   H15   S    
C5    C6    A    
C26   N1    A    
C14   O9    S    
O8    Zn2   S    
C34   H14   S    
C16   C17   A    
C10   C11   A    
C15   H9    S    
C6    H17   S    
C32   C35   A    
C31   O8    A    
C30   H11   S    
C23   O6    A    
C9    H13   S    
C25   N1    A    
C26   H6    S    
C8    C9    A    
C34   C35   A    
C2    C36   A    
C25   C30   S    
C27   H7    S    
C18   C19   A    
C8    O10   S    
O7    Zn1   S    
C13   C14   A    
C3    C34   A    
C29   H8    S    
C12   O4    A    
C11   C15   A    
C15   C33   A    
C23   O5    A    
O4    Zn2   S    
O2    Zn2   S    
C4    C5    A    
C10   C13   A    
