data_mof_unit_25619.cif
_audit_creation_date              2013-03-05T15:45:40-0500
_audit_creation_method            fapswitch 2.2
_symmetry_space_group_name_H-M    P1
_symmetry_Int_Tables_number       1
_space_group_crystal_system       triclinic
_cell_length_a                    15.05399
_cell_length_b                    11.016236
_cell_length_c                    9.968322
_cell_angle_alpha                 110.121822
_cell_angle_beta                  98.190215
_cell_angle_gamma                 92.936317
_cell_volume                      1527.43463773

loop_
_atom_site_label
_atom_site_type_symbol
_atom_site_description
_atom_site_fract_x
_atom_site_fract_y
_atom_site_fract_z
_atom_type_partial_charge
O1    O     O_R   0.508410 0.332340 0.577400 -0.527788
O2    O     O_R   0.491590 0.667660 0.422600 -0.478684
O3    O     O_R   0.481780 0.295500 0.332650 -0.614977
O4    O     O_R   0.518220 0.704500 0.667350 -0.617863
C1    C     C_R   0.495949 0.254585 0.442602 0.819217
C2    C     C_R   0.511248 0.744285 0.557372 0.853829
O5    O     O_R   0.383570 0.518390 0.622380 -0.521857
O6    O     O_R   0.616430 0.481610 0.377620 -0.581018
O7    O     O_R   0.356940 0.481550 0.377630 -0.605973
O8    O     O_R   0.643060 0.518450 0.622370 -0.592451
C3    C     C_R   0.329218 0.500536 0.500966 0.858930
C4    C     C_R   0.670987 0.500350 0.499565 0.811906
Cu1   Cu    Cu3+1 0.515770 0.521810 0.644910 1.042166
Cu2   Cu    Cu3+1 0.484230 0.478190 0.355090 1.033381
C5    C     C_R   0.806722 0.538622 0.399567 -0.172192
C6    C     C_R   0.194912 0.469270 0.607229 -0.129305
C7    C     C_R   0.768068 0.500928 0.500203 -0.087285
C8    C     C_R   0.232692 0.502475 0.502728 -0.095606
C9    C     C_R   0.822496 0.466244 0.604483 -0.118091
C10   C     C_R   0.178284 0.537223 0.398700 -0.122517
C11   C     C_R   0.916110 0.469284 0.609738 -0.019872
C12   C     C_R   0.084998 0.536430 0.395355 -0.015587
C13   C     C_R   0.954179 0.503800 0.503908 0.032395
C14   C     C_R   0.047153 0.502820 0.501992 0.030098
C15   C     C_R   0.899122 0.539278 0.399612 0.056359
C16   C     C_R   0.102405 0.468496 0.607169 0.038713
C17   C     C_R   0.972342 0.435541 0.715087 0.345474
C18   C     C_R   0.028873 0.571296 0.290847 0.347003
C19   C     C_R   0.064823 0.434336 0.711435 -0.177397
C20   C     C_R   0.936675 0.574169 0.295808 -0.193636
H1    H     H_    0.765305 0.568994 0.322107 0.167903
H2    H     H_    0.237322 0.443056 0.688053 0.219571
H3    H     H_    0.790714 0.434588 0.679147 0.228154
H4    H     H_    0.210024 0.567731 0.323145 0.223247
H5    H     H_    0.107904 0.408644 0.792194 0.220872
H6    H     H_    0.893654 0.600749 0.215697 0.205520
C21   C     C_2   0.491012 0.115185 0.419733 -0.276299
C22   C     C_2   0.546325 0.875021 0.578123 -0.260205
C23   C     C_2   0.528694 0.078523 0.531223 0.308478
C24   C     C_2   0.490635 0.958973 0.548413 0.275692
N1    N     N_2   0.460520 0.445420 0.137370 -0.303665
N2    N     N_2   0.539480 0.554580 0.862630 -0.292168
C25   C     C_2   0.515663 0.498379 0.076527 0.075014
C26   C     C_2   0.500221 0.476923 0.917359 0.048541
N3    N     N_R   0.937437 0.403855 0.827259 0.151635
O9    O     O_R   0.889486 0.483105 0.909297 -0.348154
O10   O     O_R   0.966442 0.308462 0.863916 -0.290101
N4    N     N_R   0.063587 0.602472 0.178215 0.150174
O11   O     O_R   0.110352 0.522093 0.094918 -0.320906
O12   O     O_R   0.035327 0.698680 0.142421 -0.291287
N5    N     N_R   0.393683 0.940528 0.541818 0.126405
O13   O     O_R   0.348189 0.041088 0.571675 -0.333984
O14   O     O_R   0.349489 0.825563 0.500738 -0.331720
N6    N     N_R   0.601816 0.160104 0.641310 0.130416
O15   O     O_R   0.612678 0.157085 0.771977 -0.397109
O16   O     O_R   0.665129 0.221714 0.605417 -0.326834
C27   C     C_2   0.646206 0.889688 0.588150 0.492053
H7    H     H_    0.687788 0.848769 0.656553 0.049582
O17   O     O_2   0.682238 0.937505 0.513009 -0.449269
C28   C     C_2   0.432643 0.024177 0.285522 0.474224
H8    H     H_    0.391483 0.062558 0.214097 0.079383
O18   O     O_2   0.431260 0.906457 0.251339 -0.420075
C29   C     C_2   0.451903 0.348918 0.823443 0.494205
H9    H     H_    0.471814 0.262061 0.841843 0.070183
O19   O     O_2   0.383634 0.340026 0.737323 -0.504737
C30   C     C_2   0.605805 0.561316 0.154883 0.460376
H10   H     H_    0.664727 0.522706 0.111405 0.016287
O20   O     O_2   0.614874 0.663262 0.258050 -0.487636
C31   C     C_2   0.567329 0.687973 0.947976 0.627841
H11   H     H_    0.625032 0.737012 0.926594 0.038814
O21   O     O_2   0.523399 0.750545 0.036865 -0.468189
C32   C     C_2   0.366682 0.415387 0.076907 0.614513
H12   H     H_    0.328397 0.336225 0.091715 0.051172
O22   O     O_2   0.327225 0.482880 0.018094 -0.495288

loop_
_geom_bond_atom_site_label_1
_geom_bond_atom_site_label_2
_geom_bond_distance
_ccdc_geom_bond_type
C4    C7    1.460229 S    
C30   O20   1.219488 D    
O7    Cu2   1.961626 S    
C2    C22   1.442861 S    
C3    C8    1.456875 S    
C15   C20   1.398595 A    
C1    C21   1.469138 S    
C6    H2    1.082831 S    
C22   C27   1.489320 S    
N1    C25   1.317042 D    
C19   H5    1.084253 S    
O6    C4    1.311612 A    
C25   C26   1.502860 S    
C10   H4    1.081079 S    
C17   N3    1.437146 S    
C29   O19   1.217885 D    
C30   H10   1.084846 S    
C11   C17   1.416024 A    
C31   O21   1.221078 D    
C21   C23   1.368479 D    
C12   C18   1.415782 A    
Cu1   Cu2   2.726427 S    
C32   H12   1.084331 S    
C28   O18   1.220451 D    
C22   C24   1.357574 D    
N4    O12   1.301815 A    
O7    C3    1.306782 A    
C25   C30   1.470112 S    
C27   H7    1.085706 S    
O2    C2    1.298405 A    
O3    Cu2   1.944758 S    
N2    C26   1.319079 D    
C16   C19   1.398863 A    
N1    C32   1.428496 S    
O1    C1    1.301640 A    
O8    C4    1.304745 A    
C12   C14   1.418925 A    
C18   C20   1.397444 A    
N4    O11   1.301420 A    
C9    C11   1.400992 A    
C10   C12   1.399472 A    
O5    C3    1.307876 A    
N5    O14   1.301344 A    
C8    C10   1.398554 A    
C13   C15   1.409916 A    
C11   C13   1.418395 A    
C6    C16   1.392110 A    
C31   H11   1.084320 S    
O2    Cu2   1.952017 S    
Cu2   N1    2.048160 S    
N6    O16   1.301955 A    
C27   O17   1.220951 D    
C23   N6    1.448981 S    
C17   C19   1.398475 A    
C13   C14   1.403015 A    
O4    C2    1.306714 A    
N5    O13   1.301451 A    
C21   C28   1.489644 S    
N3    O9    1.301378 A    
O5    Cu1   1.967652 S    
O1    Cu1   1.952017 S    
C32   O22   1.222824 D    
C5    C15   1.390572 A    
C6    C8    1.397160 A    
C26   C29   1.478707 S    
C9    H3    1.080474 S    
N3    O10   1.301640 A    
O4    Cu1   1.944757 S    
C5    C7    1.394839 A    
C24   N5    1.452204 S    
C23   C24   1.482571 S    
Cu1   N2    2.048160 S    
O6    Cu2   1.967652 S    
C7    C9    1.400210 A    
N6    O15   1.301578 A    
C5    H1    1.076504 S    
N2    C31   1.426199 S    
C18   N4    1.437248 S    
C29   H9    1.083280 S    
C14   C16   1.410868 A    
C28   H8    1.085311 S    
O3    C1    1.316469 A    
O8    Cu1   1.961626 S    
C20   H6    1.084367 S    
