data_mof_unit_30289.cif
_audit_creation_date              2012-12-10T18:48:43-0500
_audit_creation_method            fapswitch 2.2
_symmetry_space_group_name_H-M    P1
_symmetry_Int_Tables_number       1
_space_group_crystal_system       orthorhombic
_cell_length_a                    16.431763
_cell_length_b                    13.791039
_cell_length_c                    10.056056
_cell_angle_alpha                 90.0
_cell_angle_beta                  90.0
_cell_angle_gamma                 90.0
_cell_volume                      2278.81375466

loop_
_atom_site_label
_atom_site_type_symbol
_atom_type_description
_atom_site_fract_x
_atom_site_fract_y
_atom_site_fract_z
_atom_type_partial_charge
C1    C     C_R   0.120613 0.381361 0.500230 0.912321
C2    C     C_R   0.879387 0.618639 0.500230 0.912323
C3    C     C_R   0.879387 0.381361 0.499770 0.912325
C4    C     C_R   0.120613 0.618639 0.499770 0.912327
C5    C     C_R   0.620613 0.881361 0.500230 0.912321
C6    C     C_R   0.379387 0.118639 0.500230 0.912323
C7    C     C_R   0.379387 0.881361 0.499770 0.912325
C8    C     C_R   0.620613 0.118639 0.499770 0.912327
C9    C     C_R   0.999340 0.587305 0.072774 0.268135
C10   C     C_R   0.999340 0.412695 0.927226 0.268135
C11   C     C_R   0.000660 0.412695 0.072774 0.268135
C12   C     C_R   0.000660 0.587305 0.927226 0.268136
C13   C     C_R   0.499339 0.087305 0.072774 0.268135
C14   C     C_R   0.499339 0.912694 0.927226 0.268135
C15   C     C_R   0.500660 0.912694 0.072774 0.268135
C16   C     C_R   0.500660 0.087305 0.927226 0.268136
C17   C     C_R   0.781611 0.282498 0.377381 -0.124979
C18   C     C_R   0.219758 0.715955 0.619459 -0.132016
C19   C     C_R   0.218389 0.717502 0.377381 -0.124982
C20   C     C_R   0.780242 0.284045 0.619459 -0.132021
C21   C     C_R   0.218390 0.282499 0.622619 -0.124980
C22   C     C_R   0.780241 0.715954 0.380541 -0.132019
C23   C     C_R   0.781613 0.717504 0.622619 -0.124982
C24   C     C_R   0.219758 0.284044 0.380541 -0.132024
C25   C     C_R   0.281611 0.782498 0.377381 -0.124979
C26   C     C_R   0.719758 0.215955 0.619459 -0.132016
C27   C     C_R   0.718389 0.217502 0.377381 -0.124982
C28   C     C_R   0.280242 0.784045 0.619459 -0.132021
C29   C     C_R   0.718390 0.782499 0.622619 -0.124980
C30   C     C_R   0.280241 0.215954 0.380541 -0.132019
C31   C     C_R   0.281612 0.217504 0.622619 -0.124982
C32   C     C_R   0.719758 0.784044 0.380541 -0.132024
C33   C     C_R   0.187469 0.684387 0.498775 -0.082518
C34   C     C_R   0.812531 0.315613 0.498775 -0.082518
C35   C     C_R   0.812531 0.684387 0.501225 -0.082519
C36   C     C_R   0.187469 0.315613 0.501225 -0.082519
C37   C     C_R   0.687469 0.184387 0.498775 -0.082518
C38   C     C_R   0.312531 0.815613 0.498775 -0.082518
C39   C     C_R   0.312531 0.184387 0.501225 -0.082519
C40   C     C_R   0.687469 0.815613 0.501225 -0.082519
H1    H     H_    0.805807 0.306693 0.282807 0.202658
H2    H     H_    0.198445 0.688482 0.713689 0.220830
H3    H     H_    0.194193 0.693306 0.282807 0.202658
H4    H     H_    0.801555 0.311518 0.713689 0.220830
H5    H     H_    0.194195 0.306696 0.717194 0.202656
H6    H     H_    0.801554 0.688480 0.286311 0.220830
H7    H     H_    0.805809 0.693310 0.717194 0.202659
H8    H     H_    0.198444 0.311516 0.286310 0.220832
H9    H     H_    0.305807 0.806693 0.282807 0.202658
H10   H     H_    0.698445 0.188482 0.713689 0.220830
H11   H     H_    0.694193 0.193306 0.282807 0.202658
H12   H     H_    0.301555 0.811518 0.713689 0.220830
H13   H     H_    0.694195 0.806696 0.717194 0.202656
H14   H     H_    0.301554 0.188480 0.286311 0.220830
H15   H     H_    0.305809 0.193310 0.717194 0.202659
H16   H     H_    0.698444 0.811516 0.286310 0.220832
N1    N     N_R   0.000000 0.500000 0.857200 -0.234163
N2    N     N_R   1.000000 0.500000 0.142800 -0.234162
N3    N     N_R   0.500000 0.000000 0.857200 -0.234163
N4    N     N_R   0.500000 0.000000 0.142800 -0.234162
O1    O     O_R   0.091610 0.408380 0.614620 -0.571013
O2    O     O_R   0.908390 0.591620 0.385380 -0.570242
O3    O     O_R   0.908390 0.591620 0.614620 -0.571014
O4    O     O_R   0.091610 0.408380 0.385380 -0.570244
O5    O     O_R   0.908390 0.408380 0.385380 -0.571013
O6    O     O_R   0.091610 0.591620 0.614620 -0.570241
O7    O     O_R   0.091610 0.591620 0.385380 -0.571014
O8    O     O_R   0.908390 0.408380 0.614620 -0.570242
O9    O     O_R   0.591610 0.908380 0.614620 -0.571013
O10   O     O_R   0.408390 0.091620 0.385380 -0.570242
O11   O     O_R   0.408390 0.091620 0.614620 -0.571014
O12   O     O_R   0.591610 0.908380 0.385380 -0.570244
O13   O     O_R   0.408390 0.908380 0.385380 -0.571013
O14   O     O_R   0.591610 0.091620 0.614620 -0.570241
O15   O     O_R   0.591610 0.091620 0.385380 -0.571014
O16   O     O_R   0.408390 0.908380 0.614620 -0.570242
Zn1   Zn    Zn3+2 0.000000 0.500000 0.653120 1.093733
Zn2   Zn    Zn3+2 0.000000 0.500000 0.346880 1.093732
Zn3   Zn    Zn3+2 0.500000 0.000000 0.653120 1.093733
Zn4   Zn    Zn3+2 0.500000 0.000000 0.346880 1.093732
S1    S     S_3+6 0.989612 0.704505 0.158511 0.107594
O17   O     O_2   0.050613 0.775236 0.104841 -0.203301
O18   O     O_2   0.905547 0.741227 0.128486 -0.291203
O19   O     O_3   0.000672 0.717824 0.322468 -0.531924
H17   H     H_    0.984386 0.785540 0.341976 0.365878
S2    S     S_3+6 0.989612 0.295495 0.841489 0.107594
O20   O     O_2   0.050613 0.224764 0.895158 -0.203300
O21   O     O_2   0.905547 0.258773 0.871515 -0.291204
O22   O     O_3   0.000672 0.282176 0.677531 -0.531923
H18   H     H_    0.984386 0.214460 0.658024 0.365878
S3    S     S_3+6 0.010388 0.295495 0.158511 0.107593
O23   O     O_2   0.949386 0.224764 0.104841 -0.203299
O24   O     O_2   0.094453 0.258773 0.128485 -0.291207
O25   O     O_3   0.999328 0.282176 0.322468 -0.531923
H19   H     H_    0.015618 0.214461 0.341977 0.365877
S4    S     S_3+6 0.010388 0.704505 0.841489 0.107592
O26   O     O_2   0.949386 0.775236 0.895159 -0.203307
O27   O     O_2   0.094452 0.741228 0.871515 -0.291200
O28   O     O_3   0.999328 0.717824 0.677532 -0.531926
H20   H     H_    0.015609 0.785542 0.658025 0.365879
S5    S     S_3+6 0.489612 0.204505 0.158511 0.107594
O29   O     O_2   0.550613 0.275236 0.104841 -0.203301
O30   O     O_2   0.405547 0.241227 0.128486 -0.291203
O31   O     O_3   0.500672 0.217824 0.322468 -0.531924
H21   H     H_    0.484386 0.285540 0.341976 0.365878
S6    S     S_3+6 0.489612 0.795495 0.841489 0.107594
O32   O     O_2   0.550613 0.724764 0.895158 -0.203300
O33   O     O_2   0.405547 0.758773 0.871515 -0.291204
O34   O     O_3   0.500672 0.782176 0.677531 -0.531923
H22   H     H_    0.484386 0.714460 0.658024 0.365878
S7    S     S_3+6 0.510388 0.795495 0.158511 0.107593
O35   O     O_2   0.449386 0.724764 0.104841 -0.203299
O36   O     O_2   0.594453 0.758773 0.128485 -0.291207
O37   O     O_3   0.499328 0.782176 0.322468 -0.531923
H23   H     H_    0.515618 0.714461 0.341977 0.365877
S8    S     S_3+6 0.510388 0.204505 0.841489 0.107592
O38   O     O_2   0.449386 0.275236 0.895159 -0.203307
O39   O     O_2   0.594452 0.241228 0.871515 -0.291200
O40   O     O_3   0.499328 0.217824 0.677532 -0.531926
H24   H     H_    0.515609 0.285542 0.658025 0.365879

loop_
_geom_bond_atom_site_label_1
_geom_bond_atom_site_label_2
_ccdc_geom_bond_type
C2    C35   S    
S5    O29   D    
C15   N4    A    
S7    O35   D    
O16   Zn3   S    
O11   Zn3   S    
O37   H23   S    
C7    O13   A    
C13   N4    A    
C14   N3    A    
C21   C31   A    
C24   C36   A    
C22   C32   A    
C23   C29   A    
C5    O12   A    
C26   H10   S    
S2    O21   D    
S6    O32   D    
S4    O28   S    
S8    O38   D    
C9    N2    A    
O6    Zn1   S    
C5    O9    A    
S1    O18   D    
C7    C38   S    
C10   S2    S    
C3    O8    A    
C19   H3    S    
S4    O27   D    
C11   N2    A    
O15   Zn4   S    
C20   C34   A    
S5    O30   D    
C3    O5    A    
O7    Zn2   S    
C16   S8    S    
O31   H21   S    
C20   H4    S    
C27   H11   S    
S1    O17   D    
C21   H5    S    
C6    O11   A    
C17   H1    S    
C23   H7    S    
O10   Zn4   S    
C17   C27   A    
N1    Zn1   S    
C10   N1    A    
C18   C28   A    
O19   H17   S    
C19   C33   A    
N3    Zn3   S    
S3    O23   D    
C21   C36   A    
S2    O20   D    
C3    C34   S    
C8    O15   A    
C29   H13   S    
C16   N3    A    
C24   H8    S    
C22   C35   A    
C15   S7    S    
C25   C38   A    
S3    O24   D    
C30   H14   S    
O28   H20   S    
C28   C38   A    
S4    O26   D    
C8    O14   A    
S7    O36   D    
C12   N1    A    
C22   H6    S    
S5    O31   S    
C23   C35   A    
O14   Zn3   S    
O9    Zn3   S    
C24   C30   A    
C17   C34   A    
C13   S5    S    
C1    O4    A    
S1    O19   S    
C2    O3    A    
O3    Zn1   S    
O8    Zn1   S    
C6    O10   A    
O1    Zn1   S    
C4    C33   S    
N4    Zn4   S    
O5    Zn2   S    
C14   C15   A    
O4    Zn2   S    
O2    Zn2   S    
C20   C26   A    
S2    O22   S    
C1    O1    A    
C4    O7    A    
O40   H24   S    
C26   C37   A    
C7    O16   A    
S8    O40   S    
C10   C11   A    
C18   H2    S    
O12   Zn4   S    
O34   H22   S    
S3    O25   S    
C4    O6    A    
C28   H12   S    
S6    O33   D    
C27   C37   A    
C29   C40   A    
O13   Zn4   S    
S8    O39   D    
C30   C39   A    
S7    O37   S    
C32   C40   A    
O25   H19   S    
C19   C25   A    
C18   C33   A    
C25   H9    S    
C9    C12   A    
N2    Zn2   S    
C11   S3    S    
C14   S6    S    
C8    C37   S    
C13   C16   A    
C31   C39   A    
C6    C39   S    
C12   S4    S    
C31   H15   S    
O22   H18   S    
C5    C40   S    
C32   H16   S    
C2    O2    A    
C1    C36   S    
C9    S1    S    
S6    O34   S    
