data_mof_unit_38123.cif
_audit_creation_date              2013-03-05T15:51:13-0500
_audit_creation_method            fapswitch 2.2
_symmetry_space_group_name_H-M    P1
_symmetry_Int_Tables_number       1
_space_group_crystal_system       triclinic
_cell_length_a                    23.003929
_cell_length_b                    6.95649
_cell_length_c                    20.706781
_cell_angle_alpha                 89.986113
_cell_angle_beta                  93.306356
_cell_angle_gamma                 90.013577
_cell_volume                      3308.11982686

loop_
_atom_site_label
_atom_site_type_symbol
_atom_site_description
_atom_site_fract_x
_atom_site_fract_y
_atom_site_fract_z
_atom_type_partial_charge
O1    O     O_R   0.188030 0.379840 0.189340 -0.595817
O2    O     O_R   0.811970 0.620160 0.810660 -0.595817
O3    O     O_R   0.311970 0.879840 0.310660 -0.595877
O4    O     O_R   0.688030 0.120160 0.689340 -0.595877
O5    O     O_R   0.307090 0.708420 0.185790 -0.581844
O6    O     O_R   0.692910 0.291580 0.814210 -0.581844
O7    O     O_R   0.192910 0.208420 0.314210 -0.581801
O8    O     O_R   0.807090 0.791580 0.685790 -0.581801
C1    C     C_R   0.326688 0.540806 0.170713 0.979247
C2    C     C_R   0.673312 0.459194 0.829287 0.979247
C3    C     C_R   0.173313 0.040755 0.329285 0.979301
C4    C     C_R   0.826687 0.959245 0.670715 0.979301
O9    O     O_R   0.188180 0.709480 0.181650 -0.602075
O10   O     O_R   0.811820 0.290520 0.818350 -0.602075
O11   O     O_R   0.311820 0.209480 0.318350 -0.602151
O12   O     O_R   0.688180 0.790520 0.681650 -0.602152
O13   O     O_R   0.192210 0.880960 0.306500 -0.589926
O14   O     O_R   0.807790 0.119040 0.693500 -0.589926
O15   O     O_R   0.307790 0.380960 0.193500 -0.589914
O16   O     O_R   0.692210 0.619040 0.806500 -0.589914
C5    C     C_R   0.167741 0.540596 0.165363 0.959587
C6    C     C_R   0.832259 0.459404 0.834637 0.959588
C7    C     C_R   0.332261 0.040597 0.334634 0.959622
C8    C     C_R   0.667739 0.959403 0.665366 0.959622
O17   O     O_3   0.251460 0.546730 0.290970 -0.275258
O18   O     O_3   0.748540 0.453270 0.709030 -0.275259
O19   O     O_3   0.248540 0.046730 0.209030 -0.275237
O20   O     O_3   0.751460 0.953270 0.790970 -0.275237
V1    V     V_3+5 0.249730 0.821120 0.242400 1.182438
V2    V     V_3+5 0.750270 0.178880 0.757600 1.182438
V3    V     V_3+5 0.250270 0.321120 0.257600 1.182398
V4    V     V_3+5 0.749730 0.678880 0.742400 1.182398
C9    C     C_R   0.578702 0.816929 0.607916 -0.228704
C10   C     C_R   0.421297 0.183071 0.392084 -0.228705
C11   C     C_R   0.921457 0.317282 0.891862 -0.228329
C12   C     C_R   0.078543 0.682718 0.108138 -0.228329
C13   C     C_R   0.618584 0.969882 0.615727 -0.142895
C14   C     C_R   0.381416 0.030118 0.384273 -0.142896
C15   C     C_R   0.881409 0.469867 0.884279 -0.143019
C16   C     C_R   0.118591 0.530133 0.115721 -0.143020
C17   C     C_R   0.610707 0.134631 0.576644 -0.237107
C18   C     C_R   0.389292 0.865368 0.423356 -0.237107
C19   C     C_R   0.889114 0.634235 0.923591 -0.237088
C20   C     C_R   0.110886 0.365765 0.076409 -0.237088
C21   C     C_R   0.564055 0.146565 0.529934 0.147937
C22   C     C_R   0.435945 0.853435 0.470066 0.147937
C23   C     C_R   0.935797 0.646244 0.970265 0.148029
C24   C     C_R   0.064203 0.353756 0.029735 0.148029
C25   C     C_R   0.523792 0.993846 0.523118 0.034246
C26   C     C_R   0.476208 0.006154 0.476882 0.034246
C27   C     C_R   0.976205 0.493837 0.976886 0.033765
C28   C     C_R   0.023795 0.506163 0.023114 0.033765
C29   C     C_R   0.530985 0.828966 0.562518 0.144467
C30   C     C_R   0.469015 0.171034 0.437482 0.144468
C31   C     C_R   0.969149 0.329249 0.937297 0.144529
C32   C     C_R   0.030851 0.670751 0.062703 0.144529
C33   C     C_R   0.556913 0.308601 0.489868 -0.207357
C34   C     C_R   0.443087 0.691399 0.510132 -0.207357
C35   C     C_R   0.942828 0.808047 0.010487 -0.206788
C36   C     C_R   0.057172 0.191953 0.989513 -0.206788
C37   C     C_R   0.509893 0.320556 0.444001 -0.190607
C38   C     C_R   0.490107 0.679444 0.555999 -0.190607
C39   C     C_R   0.989860 0.820036 0.056338 -0.190213
C40   C     C_R   0.010140 0.179964 0.943662 -0.190213
H1    H     H_    0.584142 0.690080 0.638099 0.139448
H2    H     H_    0.415858 0.309919 0.361901 0.139448
H3    H     H_    0.916159 0.190792 0.861472 0.139397
H4    H     H_    0.083841 0.809208 0.138527 0.139397
H5    H     H_    0.641325 0.252845 0.582071 0.141784
H6    H     H_    0.358674 0.747155 0.417929 0.141784
H7    H     H_    0.858342 0.752090 0.918359 0.141677
H8    H     H_    0.141658 0.247910 0.081641 0.141677
H9    H     H_    0.587515 0.426944 0.494282 0.146889
H10   H     H_    0.412485 0.573056 0.505718 0.146889
H11   H     H_    0.912102 0.926112 0.006241 0.146739
H12   H     H_    0.087898 0.073888 0.993759 0.146739
H13   H     H_    0.505285 0.447666 0.413896 0.150500
H14   H     H_    0.494714 0.552334 0.586104 0.150500
H15   H     H_    0.994361 0.946914 0.086589 0.150283
H16   H     H_    0.005639 0.053086 0.913411 0.150283
C41   C     C_3   0.051051 0.042212 0.532767 -0.248817
C42   C     C_3   0.948948 0.957788 0.467232 -0.248817
C43   C     C_3   0.448960 0.542269 0.967225 -0.248804
C44   C     C_3   0.551040 0.457731 0.032775 -0.248804
C45   C     C_3   0.012594 0.864209 0.542424 0.411855
C46   C     C_3   0.987406 0.135791 0.457576 0.411855
C47   C     C_3   0.487372 0.364213 0.957602 0.411868
C48   C     C_3   0.512628 0.635787 0.042398 0.411868
H17   H     H_    0.092841 0.073675 0.560222 0.187579
H18   H     H_    0.907158 0.926325 0.439778 0.187579
H19   H     H_    0.407180 0.573781 0.939763 0.187602
H20   H     H_    0.592820 0.426219 0.060237 0.187602
H21   H     H_    0.009504 0.689397 0.444561 0.213775
H22   H     H_    0.990496 0.310603 0.555439 0.213775
H23   H     H_    0.490415 0.189436 0.055495 0.213763
H24   H     H_    0.509585 0.810564 0.944505 0.213763
C49   C     C_1   0.872069 0.968732 0.624991 -0.263696
C50   C     C_1   0.127931 0.031268 0.375009 -0.263696
C51   C     C_1   0.627929 0.468588 0.875014 -0.263718
C52   C     C_1   0.372070 0.531412 0.124986 -0.263718
C53   C     C_3   0.995074 0.169772 0.531106 -0.253457
C54   C     C_3   0.004926 0.830228 0.468894 -0.253457
C55   C     C_3   0.504970 0.669750 0.968863 -0.253422
C56   C     C_3   0.495029 0.330250 0.031137 -0.253422
C57   C     C_3   0.957499 0.988525 0.541283 -0.006065
C58   C     C_3   0.042500 0.011475 0.458717 -0.006065
C59   C     C_3   0.542499 0.488450 0.958719 -0.006107
C60   C     C_3   0.457501 0.511550 0.041280 -0.006108
C61   C     C_1   0.910413 0.977290 0.587134 0.154945
C62   C     C_1   0.089587 0.022710 0.412866 0.154945
C63   C     C_1   0.589586 0.477149 0.912870 0.154968
C64   C     C_1   0.410414 0.522851 0.087130 0.154968
N1    N     N_R   0.027956 0.711989 0.588636 0.233527
O21   O     O_R   0.076112 0.616582 0.583824 -0.397118
O22   O     O_R   0.993785 0.669645 0.634457 -0.407720
N2    N     N_R   0.972043 0.288011 0.411363 0.233527
O23   O     O_R   0.923887 0.383418 0.416176 -0.397118
O24   O     O_R   0.006215 0.330355 0.365543 -0.407720
N3    N     N_R   0.471972 0.211999 0.911417 0.233549
O25   O     O_R   0.423803 0.116606 0.916261 -0.397078
O26   O     O_R   0.506123 0.169647 0.865590 -0.407699
N4    N     N_R   0.528027 0.788001 0.088582 0.233549
O27   O     O_R   0.576197 0.883394 0.083739 -0.397078
O28   O     O_R   0.493877 0.830353 0.134410 -0.407699

loop_
_geom_bond_atom_site_label_1
_geom_bond_atom_site_label_2
_geom_bond_distance
_ccdc_geom_bond_type
C34   C38   1.400153 A    
C43   C47   1.541324 S    
O1    C5    1.299296 A    
C50   C62   1.214818 T    
O19   V1    1.714264 S    
O13   V1    1.972044 S    
O3    C7    1.299316 A    
C18   H6    1.084261 S    
O15   V3    1.971776 S    
C10   H2    1.084293 S    
C9    H1    1.084294 S    
C39   H15   1.083915 S    
N2    O23   1.300275 A    
O7    C3    1.294938 A    
C21   C33   1.403494 A    
O5    C1    1.294972 A    
C26   C30   1.411615 A    
C43   C55   1.562738 S    
C3    C50   1.450729 S    
O2    V4    1.995294 S    
O9    V1    1.996194 S    
C14   C18   1.408541 A    
C58   C62   1.483009 S    
O4    C8    1.299317 A    
O1    V3    1.995294 S    
C44   C59   1.549476 S    
C43   C60   1.549476 S    
C46   N2    1.456898 S    
C18   C22   1.405134 A    
C42   C57   1.549491 S    
C33   H9    1.083518 S    
O3    V1    1.995297 S    
C12   C16   1.408452 A    
C1    O15   1.292778 A    
H22   C53   1.109571 S    
C2    O16   1.292777 A    
O2    C6    1.299296 A    
C54   C58   1.549720 S    
O14   V2    1.972044 S    
C11   H3    1.084648 S    
C16   C20   1.408969 A    
C41   H17   1.110037 S    
O11   C7    1.302622 A    
O12   C8    1.302620 A    
C22   C34   1.403495 A    
O17   V1    2.156630 S    
C40   H16   1.083915 S    
C46   C58   1.533557 S    
O10   V2    1.996196 S    
C45   C57   1.533557 S    
C24   C36   1.404130 A    
O5    V1    1.977163 S    
N3    O26   1.300257 A    
C9    C29   1.405912 A    
C53   C57   1.549720 S    
O7    V3    1.976690 S    
C11   C31   1.405934 A    
C27   C28   1.414669 A    
O8    V4    1.976691 S    
O20   V4    2.157044 S    
C48   N4    1.456879 S    
C37   H13   1.083446 S    
O18   V4    1.714560 S    
C41   C53   1.562749 S    
C42   C46   1.541335 S    
O19   V3    2.157044 S    
C36   H12   1.083955 S    
C9    C13   1.408008 A    
C60   C64   1.483061 S    
C11   C15   1.408452 A    
C47   N3    1.456879 S    
C12   C32   1.405934 A    
C49   C61   1.214818 T    
C29   C38   1.403332 A    
C21   C25   1.411018 A    
O8    C4    1.294938 A    
C51   C63   1.214849 T    
C31   C40   1.403957 A    
C8    C13   1.485380 S    
C42   C54   1.562749 S    
C32   C39   1.403957 A    
O9    C5    1.302567 A    
C33   C37   1.400153 A    
C4    C49   1.450729 S    
O6    V2    1.977162 S    
C52   C64   1.214848 T    
C1    C52   1.450783 S    
C44   C56   1.562738 S    
N4    O28   1.300257 A    
C35   H11   1.083955 S    
C56   C60   1.549724 S    
C48   C55   1.540889 S    
H23   C56   1.109554 S    
C34   H10   1.083518 S    
C17   H5    1.084261 S    
N1    O21   1.300275 A    
O16   V4    1.971776 S    
C57   C61   1.483009 S    
C41   C58   1.549491 S    
C3    O13   1.292822 A    
C19   H7    1.084607 S    
C10   C14   1.408008 A    
C59   C63   1.483061 S    
O17   V3    1.714560 S    
C38   H14   1.083446 S    
C44   C48   1.541324 S    
H21   C54   1.109571 S    
O6    C2    1.294973 A    
C23   C27   1.411588 A    
N3    O25   1.300276 A    
C12   H4    1.084648 S    
O11   V3    1.996219 S    
C30   C37   1.403332 A    
O12   V4    1.996223 S    
C7    C14   1.485380 S    
C43   H19   1.110024 S    
C22   C26   1.411017 A    
C35   C39   1.400160 A    
C42   H18   1.110037 S    
C36   C40   1.400160 A    
O10   C6    1.302567 A    
C45   N1    1.456898 S    
C10   C30   1.405912 A    
C5    C16   1.485346 S    
C25   C29   1.411615 A    
C6    C15   1.485346 S    
O20   V2    1.714265 S    
N2    O24   1.300257 A    
C20   H8    1.084607 S    
C27   C31   1.412187 A    
C13   C17   1.408541 A    
C2    C51   1.450781 S    
O4    V2    1.995295 S    
C23   C35   1.404130 A    
C47   C56   1.540889 S    
C48   C60   1.533550 S    
C28   C32   1.412187 A    
C24   C28   1.411588 A    
C47   C59   1.533550 S    
C15   C19   1.408969 A    
C25   C26   1.414657 A    
H24   C55   1.109554 S    
C4    O14   1.292822 A    
C17   C21   1.405134 A    
C55   C59   1.549724 S    
C44   H20   1.110025 S    
N4    O27   1.300276 A    
C46   C53   1.540904 S    
C19   C23   1.405191 A    
C41   C45   1.541335 S    
C45   C54   1.540904 S    
C20   C24   1.405191 A    
N1    O22   1.300257 A    
O18   V2    2.156629 S    
