data_mof_unit_36160.cif
_audit_creation_date              2012-12-10T17:53:55-0500
_audit_creation_method            fapswitch 2.2
_symmetry_space_group_name_H-M    P1
_symmetry_Int_Tables_number       1
_space_group_crystal_system       triclinic
_cell_length_a                    15.899952
_cell_length_b                    11.718482
_cell_length_c                    10.488382
_cell_angle_alpha                 89.728876
_cell_angle_beta                  88.543076
_cell_angle_gamma                 89.798232
_cell_volume                      1953.56502205

loop_
_atom_site_label
_atom_site_type_symbol
_atom_type_description
_atom_site_fract_x
_atom_site_fract_y
_atom_site_fract_z
_atom_type_partial_charge
C1    C     C_R   0.500009 0.283376 0.500232 0.821294
C2    C     C_R   0.339761 0.500731 0.501646 0.826847
C3    C     C_R   0.660263 0.499694 0.498371 0.825393
C4    C     C_1   0.500018 0.059740 0.500266 -0.001993
C5    C     C_1   0.500014 0.161990 0.500563 -0.187306
C6    C     C_1   0.499964 0.499972 0.072120 0.079707
C7    C     C_1   0.499945 0.499989 0.927886 0.069784
C8    C     C_R   0.499985 0.716635 0.499762 0.824817
C9    C     C_3   0.043024 0.447247 0.621891 0.192128
C10   C     C_3   0.053019 0.448282 0.385883 0.237755
C11   C     C_3   0.945485 0.466066 0.627454 0.226562
C12   C     C_1   0.749656 0.503690 0.494417 -0.240677
C13   C     C_3   0.955646 0.434711 0.393167 0.202429
C14   C     C_1   0.500013 0.940270 0.499680 -0.002172
C15   C     C_1   0.500001 0.838021 0.499406 -0.186636
C16   C     C_3   0.071567 0.694007 0.651189 -0.351499
C17   C     C_3   0.078154 0.823374 0.679642 -0.452628
C18   C     C_3   0.069590 0.846740 0.822549 -0.849678
C19   C     C_3   0.109174 0.735548 0.425221 -0.340126
C20   C     C_3   0.140196 0.712989 0.287469 -0.295615
C21   C     C_3   0.187110 0.816379 0.232162 -0.924561
C22   C     C_3   0.893505 0.731725 0.572216 -0.294772
C23   C     C_1   0.250396 0.505371 0.505769 -0.244494
C24   C     C_3   0.876981 0.858321 0.540125 -0.419117
C25   C     C_3   0.850339 0.926885 0.658436 -0.876215
C26   C     C_3   0.928408 0.682628 0.332394 -0.290627
C27   C     C_3   0.933271 0.802652 0.268904 -0.440121
C28   C     C_3   0.932026 0.793795 0.123180 -0.863151
C29   C     C_3   0.119185 0.415366 0.184656 0.077324
C30   C     C_3   0.211152 0.391840 0.218588 -0.370971
C31   C     C_3   0.254631 0.312718 0.122811 -0.911829
C32   C     C_3   0.135827 0.382023 0.778339 0.089381
C33   C     C_3   0.088244 0.284741 0.846791 -0.370655
C34   C     C_3   0.082911 0.518049 0.505200 -0.019248
C35   C     C_3   0.143366 0.178622 0.859072 -0.934537
C36   C     C_3   0.863011 0.355925 0.244402 0.091596
C37   C     C_3   0.910009 0.255043 0.182832 -0.378532
C38   C     C_3   0.851768 0.153623 0.164019 -0.923623
C39   C     C_3   0.880444 0.471012 0.833066 0.097375
C40   C     C_3   0.786399 0.455623 0.809493 -0.354050
C41   C     C_3   0.739240 0.411032 0.927552 -0.915724
C42   C     C_3   0.917235 0.519427 0.496995 -0.047849
C43   C     C_3   0.949524 0.652100 0.477599 0.146514
C44   C     C_3   0.051469 0.650841 0.509285 0.168244
C45   C     C_1   0.824977 0.509420 0.493609 -0.032257
C46   C     C_1   0.175053 0.510370 0.507225 -0.023025
Cu1   Cu    Cu3+1 0.500000 0.500000 0.625300 0.970502
Cu2   Cu    Cu3+1 0.500000 0.500000 0.374700 0.970744
H1    H     H_    0.916467 0.379166 0.634721 0.036984
H2    H     H_    0.029482 0.657154 0.724019 0.288628
H3    H     H_    0.134347 0.660689 0.677518 0.223700
H4    H     H_    0.144517 0.891581 0.227921 0.256728
H5    H     H_    0.241942 0.837415 0.291185 0.261304
H6    H     H_    0.210313 0.796974 0.133829 0.256220
H7    H     H_    0.185614 0.641334 0.286623 0.253993
H8    H     H_    0.088964 0.695383 0.222656 0.265657
H9    H     H_    0.081033 0.821745 0.429723 0.177446
H10   H     H_    0.169895 0.744978 0.474695 0.188686
H11   H     H_    0.793067 0.889078 0.704199 0.261531
H12   H     H_    0.945647 0.345801 0.430158 0.011309
H13   H     H_    0.901152 0.928553 0.728861 0.262740
H14   H     H_    0.835954 0.016171 0.630205 0.244993
H15   H     H_    0.932474 0.899785 0.494556 0.217648
H16   H     H_    0.822594 0.863544 0.476189 0.223861
H17   H     H_    0.829338 0.697091 0.585102 0.196685
H18   H     H_    0.915546 0.728827 0.670268 0.245226
H19   H     H_    0.986902 0.744866 0.085281 0.259781
H20   H     H_    0.873512 0.751041 0.093256 0.261369
H21   H     H_    0.934078 0.880547 0.080226 0.243445
H22   H     H_    0.877173 0.854318 0.293182 0.225333
H23   H     H_    0.050447 0.354443 0.599193 0.013900
H24   H     H_    0.989360 0.851355 0.293693 0.232001
H25   H     H_    0.968248 0.629253 0.271079 0.281115
H26   H     H_    0.863036 0.654505 0.315240 0.213068
H27   H     H_    0.118480 0.452583 0.087167 0.170660
H28   H     H_    0.082946 0.334524 0.181845 0.133548
H29   H     H_    0.246534 0.473194 0.220420 0.235489
H30   H     H_    0.213990 0.350681 0.313789 0.212649
H31   H     H_    0.220705 0.230184 0.119042 0.258144
H32   H     H_    0.320088 0.295905 0.152513 0.268090
H33   H     H_    0.257169 0.353189 0.027005 0.250250
H34   H     H_    0.079377 0.360073 0.396592 0.029576
H35   H     H_    0.181123 0.419248 0.845145 0.147783
H36   H     H_    0.174311 0.348863 0.696212 0.140992
H37   H     H_    0.067089 0.313619 0.942887 0.199006
H38   H     H_    0.031334 0.260963 0.793920 0.207610
H39   H     H_    0.150311 0.135641 0.765191 0.256475
H40   H     H_    0.113669 0.118668 0.928816 0.253000
H41   H     H_    0.206831 0.200937 0.892233 0.263350
H42   H     H_    0.816461 0.388829 0.176488 0.160826
H43   H     H_    0.825911 0.327469 0.330256 0.134588
H44   H     H_    0.937258 0.282136 0.088920 0.209297
H45   H     H_    0.006951 0.818677 0.859495 0.257702
H46   H     H_    0.962042 0.227033 0.244437 0.203666
H47   H     H_    0.827791 0.121259 0.257765 0.254583
H48   H     H_    0.887125 0.083973 0.115076 0.255864
H49   H     H_    0.797737 0.178326 0.104852 0.256186
H50   H     H_    0.887693 0.520704 0.922069 0.179189
H51   H     H_    0.911834 0.387254 0.849030 0.126452
H52   H     H_    0.758491 0.538866 0.781436 0.242218
H53   H     H_    0.778117 0.393890 0.730898 0.211736
H54   H     H_    0.767485 0.329418 0.959400 0.249606
H55   H     H_    0.672502 0.395577 0.904529 0.268796
H56   H     H_    0.119495 0.800959 0.874810 0.265130
H57   H     H_    0.741172 0.474784 0.005399 0.251822
H58   H     H_    0.075495 0.939507 0.839875 0.248559
H59   H     H_    0.140316 0.856615 0.646310 0.218704
H60   H     H_    0.030073 0.873111 0.631016 0.246717
N1    N     N_1   0.500000 0.499990 0.186410 -0.141953
N2    N     N_1   0.500000 0.499990 0.813590 -0.142430
O1    O     O_R   0.500000 0.337200 0.605810 -0.569228
O2    O     O_3   0.079690 0.469869 0.741709 -0.591558
O3    O     O_3   0.919365 0.445965 0.270687 -0.590917
O4    O     O_3   0.918804 0.534553 0.732418 -0.612124
O5    O     O_R   0.500000 0.337200 0.394190 -0.569583
O6    O     O_R   0.379430 0.500010 0.605860 -0.570610
O7    O     O_R   0.379430 0.500010 0.394140 -0.574479
O8    O     O_R   0.620570 0.500010 0.605860 -0.573763
O9    O     O_R   0.620570 0.500010 0.394140 -0.569802
O10   O     O_R   0.500000 0.662810 0.605810 -0.566841
O11   O     O_R   0.500000 0.662810 0.394190 -0.567353
O12   O     O_3   0.081050 0.496319 0.268251 -0.605680

loop_
_geom_bond_atom_site_label_1
_geom_bond_atom_site_label_2
_ccdc_geom_bond_type
C28   H21   S    
C16   H3    S    
C20   H8    S    
C31   H32   S    
C29   H28   S    
C19   H9    S    
C26   C27   S    
C29   C30   S    
C41   H57   S    
C1    C5    S    
C36   C37   S    
C28   H20   S    
C16   H2    S    
C17   H59   S    
C30   C31   S    
C8    O11   A    
C26   H25   S    
C41   H54   S    
C11   C42   S    
C11   O4    S    
C33   H37   S    
C22   H18   S    
C3    C12   S    
C26   H26   S    
C40   H53   S    
C30   H29   S    
C2    O6    A    
Cu1   O8    S    
Cu1   Cu2   S    
C16   C17   S    
C38   H47   S    
C34   C46   S    
C16   C44   S    
C9    O2    S    
Cu2   N1    S    
C24   H16   S    
C23   C46   T    
C35   H39   S    
C20   H7    S    
C36   O3    S    
C13   C42   S    
C2    O7    A    
C26   C43   S    
Cu2   O9    S    
C19   H10   S    
Cu1   O6    S    
C32   H36   S    
C28   H19   S    
C34   C44   S    
C24   C25   S    
C17   H60   S    
Cu2   O11   S    
C13   H12   S    
C4    C5    T    
C39   H50   S    
C18   H56   S    
C10   H34   S    
C41   H55   S    
C42   C45   S    
C33   H38   S    
C18   H58   S    
C22   H17   S    
C37   C38   S    
C11   H1    S    
C3    O8    A    
C35   H40   S    
C39   H51   S    
C22   C43   S    
C39   O4    S    
C29   O12   S    
C2    C23   S    
C17   C18   S    
C10   C34   S    
C25   H13   S    
C9    C11   S    
C6    C7    S    
C27   H22   S    
C3    O9    A    
Cu2   O5    S    
C35   H41   S    
C36   H43   S    
Cu1   O10   S    
C24   H15   S    
C43   C44   S    
C9    C34   S    
C6    N1    T    
C22   C24   S    
C38   H49   S    
C42   C43   S    
C39   C40   S    
C19   C44   S    
C8    O10   A    
C36   H42   S    
C32   H35   S    
C40   C41   S    
C32   O2    S    
C37   H44   S    
C9    H23   S    
C12   C45   T    
C10   O12   S    
C10   C13   S    
C40   H52   S    
C31   H31   S    
Cu2   O7    S    
C29   H27   S    
C8    C15   S    
Cu1   N2    S    
C1    O5    A    
C31   H33   S    
C7    N2    T    
C32   C33   S    
C19   C20   S    
C1    O1    A    
C21   H5    S    
C21   H6    S    
Cu1   O1    S    
C33   C35   S    
C37   H46   S    
C25   H14   S    
C4    C14   S    
C30   H30   S    
C20   C21   S    
C38   H48   S    
C27   C28   S    
C18   H45   S    
C14   C15   T    
C25   H11   S    
C21   H4    S    
C13   O3    S    
C27   H24   S    
