data_mof_unit_57048.cif
_audit_creation_date              2012-12-10T20:44:05-0500
_audit_creation_method            fapswitch 2.2
_symmetry_space_group_name_H-M    P1
_symmetry_Int_Tables_number       1
_space_group_crystal_system       triclinic
_cell_length_a                    17.510351
_cell_length_b                    10.73027
_cell_length_c                    9.854873
_cell_angle_alpha                 89.352079
_cell_angle_beta                  89.910836
_cell_angle_gamma                 90.312715
_cell_volume                      1851.49152055

loop_
_atom_site_label
_atom_site_type_symbol
_atom_type_description
_atom_site_fract_x
_atom_site_fract_y
_atom_site_fract_z
_atom_type_partial_charge
C1    C     C_R   0.500186 0.259886 0.500312 0.934260
C2    C     C_R   0.114408 0.449703 0.517594 0.058395
C3    C     C_R   0.469928 0.061448 0.612965 -0.007193
C4    C     C_R   0.353396 0.499167 0.500393 0.873378
C5    C     C_R   0.494262 0.127811 0.498024 -0.283505
C6    C     C_R   0.506553 0.064314 0.375384 0.593020
C7    C     C_R   0.502886 0.936124 0.374246 -0.328229
C8    C     C_R   0.490894 0.870798 0.495945 -0.160138
C9    C     C_R   0.469396 0.934108 0.611799 0.005389
C10   C     C_3   0.493164 0.919661 0.756443 -0.637244
C11   C     C_3   0.492699 0.063233 0.760453 0.926331
C12   C     C_R   0.886061 0.447970 0.511517 0.055883
C13   C     C_R   0.449107 0.427942 0.072088 0.159628
C14   C     C_R   0.553955 0.565701 0.071834 0.557919
C15   C     C_R   0.554513 0.562488 0.926393 -0.265483
C16   C     C_R   0.498799 0.739710 0.499173 0.922880
C17   C     C_R   0.448924 0.428430 0.929637 0.281387
C18   C     C_3   0.364267 0.439007 0.924002 -0.517824
C19   C     C_3   0.364338 0.437525 0.077698 -0.543549
C20   C     C_R   0.646759 0.498376 0.499925 0.887339
C21   C     C_R   0.846135 0.468216 0.631422 -0.140349
C22   C     C_R   0.768017 0.487171 0.626578 -0.297067
C23   C     C_1   0.966261 0.439800 0.515467 -0.009538
C24   C     C_R   0.729601 0.485835 0.501413 -0.187606
C25   C     C_R   0.770748 0.465511 0.380768 0.646658
C26   C     C_R   0.849024 0.446829 0.386491 -0.267175
C27   C     C_3   0.446476 0.093953 0.979236 0.194827
C28   C     C_3   0.371356 0.073515 0.054138 -0.864501
C29   C     C_3   0.628949 0.074695 0.734055 0.019907
C30   C     C_3   0.689252 0.175605 0.713070 -0.738483
C31   C     C_3   0.627500 0.747509 0.092094 0.086855
C32   C     C_3   0.707890 0.749287 0.032416 -0.797638
C33   C     C_3   0.144475 0.499219 0.865131 0.090095
C34   C     C_1   0.034034 0.440335 0.517460 0.017852
C35   C     C_3   0.084660 0.494065 0.977128 -0.804702
C36   C     C_R   0.151936 0.500028 0.630053 0.516424
C37   C     C_R   0.230666 0.522187 0.619984 -0.330439
C38   C     C_R   0.270771 0.487848 0.503185 -0.066495
C39   C     C_R   0.232152 0.435006 0.393704 -0.202933
C40   C     C_R   0.153945 0.416669 0.400632 -0.251472
F1    F     F_    0.735892 0.462550 0.257893 -0.631309
F2    F     F_    0.528443 0.124040 0.259413 -0.682951
H1    H     H_    0.875496 0.470884 0.728122 0.164813
H2    H     H_    0.337882 0.352059 0.121765 0.206303
H3    H     H_    0.880846 0.432802 0.293507 0.162580
H4    H     H_    0.260528 0.567584 0.701669 0.144565
H5    H     H_    0.262325 0.406396 0.303884 0.157507
H6    H     H_    0.124152 0.377442 0.314634 0.153656
H7    H     H_    0.474416 0.179634 0.017128 0.217970
H8    H     H_    0.484346 0.013618 0.004046 0.141095
H9    H     H_    0.346147 0.982408 0.025289 0.244459
H10   H     H_    0.381157 0.073554 0.165386 0.242801
H11   H     H_    0.330448 0.148448 0.027519 0.253074
H12   H     H_    0.515002 0.888782 0.280342 0.178440
H13   H     H_    0.619770 0.028959 0.634731 0.139017
H14   H     H_    0.651294 0.005315 0.808346 0.153287
H15   H     H_    0.700731 0.223858 0.810114 0.266589
H16   H     H_    0.743080 0.133538 0.675992 0.202754
H17   H     H_    0.669031 0.244644 0.636686 0.249545
H18   H     H_    0.627136 0.813652 0.177780 0.173823
H19   H     H_    0.585364 0.784342 0.017190 0.086029
H20   H     H_    0.721479 0.844062 0.992566 0.201953
H21   H     H_    0.749989 0.724456 0.112335 0.280886
H22   H     H_    0.712959 0.681790 0.948555 0.239249
H23   H     H_    0.447022 0.874728 0.817624 0.207525
H24   H     H_    0.188523 0.568959 0.894113 0.149449
H25   H     H_    0.170997 0.405132 0.858448 0.136812
H26   H     H_    0.039882 0.424286 0.952263 0.252981
H27   H     H_    0.111960 0.467051 0.074633 0.200915
H28   H     H_    0.057746 0.586860 0.988540 0.262545
H29   H     H_    0.549353 0.873577 0.768034 0.169480
H30   H     H_    0.597642 0.611937 0.868527 0.164436
H31   H     H_    0.345575 0.529737 0.880544 0.199006
H32   H     H_    0.336894 0.355315 0.879281 0.225913
H33   H     H_    0.344599 0.526583 0.122084 0.217357
H34   H     H_    0.737815 0.502363 0.720928 0.193291
N1    N     N_R   0.499490 0.499140 0.142800 -0.150747
N2    N     N_R   0.499490 0.499180 0.857150 -0.128367
O1    O     O_R   0.500010 0.316790 0.614690 -0.575465
O2    O     O_3   0.562077 0.129683 0.786988 -0.613507
O3    O     O_3   0.610016 0.627438 0.145166 -0.536947
O4    O     O_3   0.109128 0.535768 0.742075 -0.614184
O5    O     O_R   0.500000 0.316760 0.385350 -0.555915
O6    O     O_R   0.389120 0.500020 0.614710 -0.622819
O7    O     O_R   0.389110 0.499990 0.385370 -0.635506
O8    O     O_R   0.500000 0.683240 0.614650 -0.619266
O9    O     O_R   0.499990 0.683210 0.385310 -0.621989
O10   O     O_R   0.610890 0.500010 0.614630 -0.639356
O11   O     O_R   0.610880 0.499980 0.385290 -0.498742
O12   O     O_3   0.431424 0.108811 0.838920 -0.640638
Zn1   Zn    Zn3+2 0.500010 0.500020 0.653130 0.968528
Zn2   Zn    Zn3+2 0.499990 0.499980 0.346870 1.032214

loop_
_geom_bond_atom_site_label_1
_geom_bond_atom_site_label_2
_ccdc_geom_bond_type
N1    Zn2   S    
C31   H19   S    
C22   H34   S    
C7    C8    A    
O5    Zn2   S    
C12   C23   S    
C29   C30   S    
C1    C5    S    
C36   C37   A    
O8    Zn1   S    
C5    C6    A    
C28   H9    S    
C15   N2    A    
C30   H15   S    
C20   O10   A    
C27   O12   S    
C18   C19   S    
C14   N1    A    
C26   H3    S    
C21   H1    S    
C20   C24   S    
C35   H28   S    
C36   O4    S    
C8    C9    A    
C16   O9    A    
O6    Zn1   S    
C33   O4    S    
O1    Zn1   S    
C27   H8    S    
C10   H29   S    
C2    C34   S    
C8    C16   S    
O9    Zn2   S    
C16   O8    A    
O7    Zn2   S    
C33   H24   S    
C13   N1    A    
C13   C19   S    
C7    H12   S    
C24   C25   A    
C32   H22   S    
C11   O2    S    
C25   F1    S    
C39   C40   A    
C4    O7    A    
C29   H13   S    
C25   C26   A    
C12   C21   A    
C12   C26   A    
C31   H18   S    
C37   C38   A    
C15   H30   S    
C31   C32   S    
C4    O6    A    
O10   Zn1   S    
C23   C34   T    
C30   H17   S    
C17   C18   S    
O11   Zn2   S    
C3    C9    A    
C4    C38   S    
C18   H31   S    
C1    O1    A    
C22   C24   A    
C19   H2    S    
C33   H25   S    
C39   H5    S    
C9    C10   S    
C10   H23   S    
C2    C36   A    
C40   H6    S    
C32   H21   S    
C3    C5    A    
C28   H11   S    
C6    C7    A    
C29   H14   S    
N2    Zn1   S    
C1    O5    A    
C20   O11   A    
C31   O3    S    
C13   C17   A    
C19   H33   S    
C32   H20   S    
C28   H10   S    
C11   O12   S    
C38   C39   A    
C29   O2    S    
C35   H26   S    
C30   H16   S    
C17   N2    A    
C33   C35   S    
C3    C11   S    
C10   C11   S    
C2    C40   A    
C35   H27   S    
C18   H32   S    
C6    F2    S    
C27   C28   S    
C14   C15   A    
C14   O3    S    
C37   H4    S    
C21   C22   A    
C27   H7    S    
