data_mof_unit_47239.cif
_audit_creation_date              2012-12-10T17:22:42-0500
_audit_creation_method            fapswitch 2.2
_symmetry_space_group_name_H-M    P1
_symmetry_Int_Tables_number       1
_space_group_crystal_system       triclinic
_cell_length_a                    10.695566
_cell_length_b                    10.865538
_cell_length_c                    9.58334
_cell_angle_alpha                 89.655294
_cell_angle_beta                  89.965486
_cell_angle_gamma                 95.964859
_cell_volume                      1107.6587313

loop_
_atom_site_label
_atom_site_type_symbol
_atom_type_description
_atom_site_fract_x
_atom_site_fract_y
_atom_site_fract_z
_atom_type_partial_charge
C1    C     C_R   0.489072 0.261835 0.500344 0.884113
C2    C     C_3   0.964748 0.532110 0.371538 0.560718
C3    C     C_3   0.030968 0.416975 0.407405 -0.252777
C4    C     C_3   0.122619 0.500654 0.499751 -0.159208
C5    C     C_R   0.326502 0.108204 0.705940 0.506228
C6    C     C_R   0.280157 0.040448 0.822343 -0.187407
C7    C     C_R   0.297968 0.916737 0.835090 -0.296641
C8    C     C_R   0.357696 0.858351 0.729265 -0.185248
C9    C     C_R   0.414089 0.926092 0.614161 -0.023366
C10   C     C_R   0.406057 0.055731 0.608952 -0.012387
C11   C     C_R   0.467878 0.126396 0.499378 -0.189331
C12   C     C_R   0.259244 0.498752 0.500041 0.855223
C13   C     C_R   0.508455 0.066695 0.382377 -0.273949
C14   C     C_R   0.499635 0.939158 0.376744 0.450872
C15   C     C_R   0.469016 0.868600 0.498711 -0.208771
C16   C     C_R   0.664003 0.675702 0.143471 -0.199284
C17   C     C_R   0.737949 0.771175 0.071530 0.475876
C18   C     C_R   0.729484 0.775205 0.926652 0.413935
C19   C     C_R   0.659516 0.678955 0.855410 -0.290703
C20   C     C_R   0.578345 0.588304 0.925047 0.094010
C21   C     C_R   0.579152 0.587812 0.074182 0.045610
C22   C     C_R   0.426363 0.413533 0.075172 0.575198
C23   C     C_R   0.490010 0.736617 0.499779 0.775917
C24   C     C_R   0.427944 0.413932 0.926095 -0.121433
C25   C     C_R   0.740820 0.504777 0.499613 0.814514
C26   C     C_3   0.035415 0.474194 0.626194 0.527875
C27   C     C_3   0.942880 0.390671 0.535631 -0.391451
C28   C     C_3   0.877526 0.506356 0.498080 -0.149063
C29   C     C_3   0.970534 0.588624 0.588154 0.399499
C30   C     C_3   0.057740 0.617162 0.460754 -0.444392
Cu1   Cu    Cu3+1 0.499990 0.499990 0.640660 0.964499
Cu2   Cu    Cu3+1 0.500010 0.500010 0.359340 0.989701
H1    H     H_    0.892377 0.299636 0.564545 0.149778
H2    H     H_    0.673278 0.672372 0.252981 0.222075
H3    H     H_    0.055542 0.347128 0.331413 0.145342
N1    N     N_R   0.501210 0.501210 0.147910 -0.214930
N2    N     N_R   0.501250 0.501290 0.852040 -0.202057
O1    O     O_R   0.499990 0.319640 0.618810 -0.560053
O2    O     O_R   0.500000 0.319660 0.381240 -0.539679
O3    O     O_R   0.316850 0.499960 0.618770 -0.531233
O4    O     O_R   0.316860 0.499980 0.381190 -0.581175
O5    O     O_R   0.500000 0.680340 0.618760 -0.629268
O6    O     O_R   0.500010 0.680360 0.381190 -0.562204
O7    O     O_R   0.683140 0.500020 0.618810 -0.589187
O8    O     O_R   0.683150 0.500040 0.381230 -0.573478
H4    H     H_    0.254910 0.862956 0.921191 0.148707
H5    H     H_    0.350000 0.759310 0.737945 0.193968
O9    O     O_3   0.531912 0.885140 0.253647 -0.577750
C31   C     C_3   0.428586 0.880904 0.161916 -0.275448
H6    H     H_    0.407432 0.975532 0.131382 0.175189
H7    H     H_    0.343774 0.827503 0.207971 0.148181
H8    H     H_    0.452963 0.832702 0.065505 0.178308
O10   O     O_3   0.362841 0.316140 0.148638 -0.560388
C32   C     C_3   0.234044 0.303787 0.114832 -0.363674
H9    H     H_    0.216550 0.268679 0.007653 0.170176
H10   H     H_    0.192970 0.392374 0.128304 0.163625
H11   H     H_    0.184704 0.234700 0.186843 0.179956
O11   O     O_3   0.818703 0.865145 0.133485 -0.536805
C33   C     C_3   0.832747 0.855506 0.279560 -0.305158
H12   H     H_    0.864549 0.766006 0.311587 0.175946
H13   H     H_    0.745535 0.871584 0.335352 0.193039
H14   H     H_    0.906376 0.928659 0.313362 0.172633
O12   O     O_3   0.801001 0.869655 0.855888 -0.543936
C34   C     C_3   0.725214 0.930699 0.763093 -0.259330
H15   H     H_    0.634078 0.948920 0.811193 0.166807
H16   H     H_    0.709401 0.877713 0.664872 0.153666
H17   H     H_    0.775954 0.021724 0.734920 0.171428
H18   H     H_    0.673851 0.677227 0.745756 0.247180
H19   H     H_    0.373263 0.342122 0.869372 0.195208
O13   O     O_3   0.080690 0.446291 0.759838 -0.574701
C35   C     C_3   0.978696 0.403587 0.846541 -0.303770
H20   H     H_    0.937105 0.310215 0.813998 0.161050
H21   H     H_    0.905389 0.469150 0.848750 0.199329
H22   H     H_    0.013740 0.394983 0.954568 0.184171
O14   O     O_3   0.932514 0.674564 0.684962 -0.586246
C36   C     C_3   0.039861 0.746721 0.735475 -0.257822
H23   H     H_    0.076932 0.815438 0.655373 0.165274
H24   H     H_    0.114629 0.689361 0.769800 0.167015
H25   H     H_    0.013796 0.798321 0.828458 0.226208
H26   H     H_    0.107297 0.708396 0.430930 0.142771
O15   O     O_3   0.918726 0.555906 0.236985 -0.579705
C37   C     C_3   0.016087 0.615627 0.154158 -0.340962
H27   H     H_    0.101041 0.565294 0.154651 0.159413
H28   H     H_    0.041478 0.712279 0.188859 0.172022
H29   H     H_    0.982399 0.619960 0.045031 0.202569
H30   H     H_    0.547406 0.118902 0.292891 0.203887
O16   O     O_3   0.272410 0.214480 0.673660 -0.584544
C38   C     C_3   0.170545 0.184140 0.581573 -0.303129
H31   H     H_    0.084531 0.213369 0.629565 0.202821
H32   H     H_    0.149761 0.083798 0.556097 0.127194
H33   H     H_    0.189901 0.234652 0.481912 0.169624
H34   H     H_    0.219893 0.080490 0.896237 0.153695

loop_
_geom_bond_atom_site_label_1
_geom_bond_atom_site_label_2
_ccdc_geom_bond_type
O16   C38   S    
C16   C21   A    
Cu1   O5    S    
Cu2   O8    S    
C19   C20   A    
C1    C11   S    
C36   H25   S    
O15   C37   S    
C7    C8    A    
C21   N1    A    
O10   C32   S    
C27   H1    S    
C25   C28   S    
C26   C27   S    
C12   O4    A    
C23   O5    A    
Cu2   N1    S    
C28   C29   S    
C36   H24   S    
C5    C6    A    
C18   O12   S    
C23   O6    A    
Cu1   O3    S    
C18   C19   A    
Cu2   O2    S    
C16   H2    S    
C8    C9    A    
C31   H7    S    
C13   H30   S    
Cu2   O4    S    
O13   C35   S    
C4    C12   S    
C9    C10   A    
C17   O11   S    
C30   H26   S    
C15   C23   S    
C33   H12   S    
C13   C14   A    
C25   O7    A    
C24   H19   S    
C17   C18   A    
C22   O10   S    
C32   H10   S    
C33   H13   S    
Cu1   O7    S    
C7    H4    S    
C36   H23   S    
C35   H21   S    
C16   C17   A    
C14   O9    S    
O11   C33   S    
Cu1   N2    S    
C34   H16   S    
C12   O3    A    
O14   C36   S    
C34   H17   S    
C29   C30   S    
Cu1   Cu2   S    
C38   H33   S    
C3    H3    S    
C31   H8    S    
C24   N2    A    
C19   H18   S    
C20   C21   A    
C1    O1    A    
O9    C31   S    
C38   H32   S    
C37   H27   S    
C37   H28   S    
C26   O13   S    
C22   C24   A    
C3    C4    S    
C25   O8    A    
C32   H9    S    
C33   H14   S    
C35   H22   S    
C4    C26   S    
C6    C7    A    
C29   O14   S    
C37   H29   S    
C22   N1    A    
Cu1   O1    S    
C2    C30   S    
C34   H15   S    
C3    C27   S    
C2    C3    S    
C9    C15   A    
C8    H5    S    
C5    C10   A    
C20   N2    A    
C11   C13   A    
C6    H34   S    
Cu2   O6    S    
C10   C11   A    
C1    O2    A    
O12   C34   S    
C5    O16   S    
C35   H20   S    
C38   H31   S    
C26   C29   S    
C31   H6    S    
C27   C28   S    
C14   C15   A    
C2    O15   S    
C2    C28   S    
C4    C30   S    
C32   H11   S    
