data_mof_unit_20354.cif
_audit_creation_date              2012-12-10T16:35:51-0500
_audit_creation_method            fapswitch 2.2
_symmetry_space_group_name_H-M    P1
_symmetry_Int_Tables_number       1
_space_group_crystal_system       triclinic
_cell_length_a                    14.186824
_cell_length_b                    16.474344
_cell_length_c                    12.997323
_cell_angle_alpha                 90.459804
_cell_angle_beta                  106.878677
_cell_angle_gamma                 90.037379
_cell_volume                      2906.74901442

loop_
_atom_site_label
_atom_site_type_symbol
_atom_type_description
_atom_site_fract_x
_atom_site_fract_y
_atom_site_fract_z
_atom_type_partial_charge
C1    C     C_R   0.314499 0.844603 0.475476 0.834820
C2    C     C_R   0.313916 0.154654 0.476242 0.816852
C3    C     C_R   0.814470 0.344521 0.475227 0.859575
C4    C     C_R   0.813903 0.654574 0.475534 0.833440
C5    C     C_2   0.241050 0.782295 0.462866 0.226830
C6    C     C_2   0.236456 0.213340 0.468363 0.226949
C7    C     C_2   0.742061 0.281497 0.462191 0.222648
C8    C     C_2   0.737498 0.714466 0.464766 0.217043
C9    C     C_R   0.685975 0.155951 0.522956 0.782110
C10   C     C_R   0.686523 0.844544 0.521024 0.796859
C11   C     C_R   0.185687 0.656276 0.523358 0.802464
C12   C     C_R   0.186053 0.344256 0.521467 0.816542
C13   C     C_R   0.546529 0.998659 0.786432 0.842564
C14   C     C_R   0.046630 0.499193 0.786368 0.845042
C15   C     C_R   0.455378 0.999823 0.214158 0.827048
C16   C     C_R   0.955102 0.499793 0.214262 0.829534
C17   C     C_2   0.448912 0.000187 0.098769 -0.232582
C18   C     C_2   0.949089 0.499636 0.099258 -0.232213
C19   C     C_2   0.510168 0.951306 0.062182 0.415981
C20   C     C_2   0.016218 0.455731 0.065495 0.412628
C21   C     C_2   0.563110 0.996577 0.904097 -0.208812
C22   C     C_2   0.063980 0.500031 0.904009 -0.212763
C23   C     C_2   0.503226 0.948899 0.944102 0.402767
C24   C     C_2   0.008587 0.450390 0.947354 0.399240
C25   C     C_2   0.760035 0.219373 0.532209 0.136695
C26   C     C_2   0.762891 0.784221 0.522062 0.208475
C27   C     C_2   0.259427 0.719868 0.532351 0.152718
C28   C     C_2   0.262540 0.285663 0.518304 0.188599
O1    O     O_3   0.500010 0.000000 0.500000 -0.492565
O2    O     O_3   0.000010 0.500000 0.500000 -0.492293
O3    O     O_R   0.376880 0.837120 0.424150 -0.677812
O4    O     O_R   0.376880 0.162880 0.424150 -0.663027
O5    O     O_R   0.876880 0.337120 0.424150 -0.671697
O6    O     O_R   0.876880 0.662880 0.424150 -0.674806
O7    O     O_R   0.603010 0.162890 0.452470 -0.615457
O8    O     O_R   0.603010 0.837110 0.452470 -0.585436
O9    O     O_R   0.103010 0.662890 0.452470 -0.609972
O10   O     O_R   0.103010 0.337110 0.452470 -0.601533
O11   O     O_R   0.316670 0.095240 0.537470 -0.640806
O12   O     O_R   0.316670 0.904760 0.537470 -0.638074
O13   O     O_R   0.816670 0.595240 0.537470 -0.652730
O14   O     O_R   0.816670 0.404760 0.537470 -0.648290
O15   O     O_R   0.703490 0.904800 0.585920 -0.648996
O16   O     O_R   0.703490 0.095200 0.585920 -0.642600
O17   O     O_R   0.203490 0.404800 0.585920 -0.634380
O18   O     O_R   0.203490 0.595200 0.585920 -0.642198
O19   O     O_R   0.458050 1.000000 0.725250 -0.552498
O20   O     O_R   0.958050 0.500000 0.725250 -0.550674
O21   O     O_R   0.461630 0.932310 0.264690 -0.598166
O22   O     O_R   0.461630 0.067690 0.264690 -0.657486
O23   O     O_R   0.961630 0.432310 0.264690 -0.619239
O24   O     O_R   0.961630 0.567690 0.264690 -0.646191
O25   O     O_R   0.618750 1.000000 0.745380 -0.669678
O26   O     O_R   0.118750 0.500000 0.745380 -0.670453
Zn1   Zn    Zn3+2 0.485630 0.096680 0.411850 0.962030
Zn2   Zn    Zn3+2 0.485630 0.903320 0.411850 0.995856
Zn3   Zn    Zn3+2 0.985630 0.596680 0.411850 0.965785
Zn4   Zn    Zn3+2 0.985630 0.403320 0.411850 0.987148
Zn5   Zn    Zn3+2 0.399590 1.000000 0.573760 1.017101
Zn6   Zn    Zn3+2 0.899590 0.500000 0.573760 1.016738
Zn7   Zn    Zn3+2 0.629190 1.000000 0.602520 0.965487
Zn8   Zn    Zn3+2 0.129190 0.500000 0.602520 0.976086
O27   O     O_3   0.440994 0.893868 0.873058 -0.642983
C29   C     C_3   0.367562 0.859846 0.913450 0.049848
H1    H     H_    0.319201 0.908367 0.929721 0.170863
H2    H     H_    0.401108 0.824632 0.987823 0.128951
C30   C     C_3   0.304561 0.801801 0.828918 -0.249338
H3    H     H_    0.276872 0.833758 0.750920 0.258624
H4    H     H_    0.350734 0.749825 0.818117 0.250566
C31   C     C_3   0.216963 0.769582 0.862087 -0.989713
H5    H     H_    0.242788 0.738181 0.940542 0.270924
H6    H     H_    0.174749 0.725750 0.800437 0.270496
H7    H     H_    0.167363 0.820225 0.868757 0.273414
O28   O     O_3   0.947379 0.393455 0.878544 -0.637969
C32   C     C_3   0.884293 0.351037 0.925974 0.049561
H8    H     H_    0.833393 0.393903 0.949200 0.159925
H9    H     H_    0.927492 0.316409 0.997310 0.124254
C33   C     C_3   0.822443 0.290930 0.843737 -0.242602
H10   H     H_    0.784323 0.323439 0.768510 0.254891
H11   H     H_    0.871661 0.244346 0.824896 0.246794
C34   C     C_3   0.745640 0.248908 0.886230 -0.993697
H12   H     H_    0.782207 0.215223 0.960823 0.263774
H13   H     H_    0.702581 0.205432 0.824637 0.272781
H14   H     H_    0.694182 0.294161 0.903679 0.268103
O29   O     O_3   0.580350 0.906197 0.138463 -0.626719
C35   C     C_3   0.636835 0.853752 0.093468 0.101407
H15   H     H_    0.676995 0.888210 0.046062 0.153180
H16   H     H_    0.588624 0.806796 0.041951 0.135998
C36   C     C_3   0.713696 0.812088 0.184709 -0.331683
H17   H     H_    0.762384 0.858792 0.235834 0.224140
H18   H     H_    0.675916 0.778734 0.235091 0.264653
C37   C     C_3   0.776312 0.752912 0.141952 -0.963811
H19   H     H_    0.728956 0.705065 0.091896 0.256497
H20   H     H_    0.831042 0.723594 0.210328 0.287255
H21   H     H_    0.816423 0.785489 0.092914 0.277697
O30   O     O_3   0.093704 0.420228 0.144904 -0.632341
C38   C     C_3   0.154000 0.368533 0.104105 0.115713
H22   H     H_    0.184104 0.400129 0.045288 0.149082
H23   H     H_    0.111525 0.313826 0.066129 0.129235
C39   C     C_3   0.242009 0.342755 0.197118 -0.345672
H24   H     H_    0.285407 0.397441 0.233328 0.224062
H25   H     H_    0.215592 0.313524 0.260293 0.213598
C40   C     C_3   0.308732 0.284346 0.159173 -0.971582
H26   H     H_    0.266848 0.229713 0.120741 0.264510
H27   H     H_    0.370400 0.264982 0.228911 0.286771
H28   H     H_    0.339644 0.314705 0.100117 0.273095
C41   C     C_2   0.642393 0.050609 0.970637 0.295984
H29   H     H_    0.689975 0.082235 0.932319 0.098431
O31   O     O_2   0.655651 0.061155 0.066866 -0.580894
C42   C     C_2   0.138819 0.559428 0.966461 0.304297
H30   H     H_    0.182068 0.593526 0.925128 0.093999
O32   O     O_2   0.152895 0.571918 0.062438 -0.563595
C43   C     C_2   0.377783 0.059030 0.031106 0.285330
H31   H     H_    0.327823 0.091485 0.066067 0.086497
O33   O     O_2   0.374094 0.072912 0.937925 -0.552883
C44   C     C_2   0.870641 0.551260 0.028580 0.297802
H32   H     H_    0.815780 0.578307 0.061445 0.075629
O34   O     O_2   0.866338 0.565187 0.935239 -0.542559
O35   O     O_3   0.344741 0.719344 0.618096 -0.673526
C45   C     C_3   0.414643 0.667555 0.593649 0.054856
H33   H     H_    0.426430 0.683437 0.515003 0.141479
H34   H     H_    0.390189 0.603140 0.590976 0.161610
C46   C     C_3   0.512455 0.677361 0.681787 -0.308039
H35   H     H_    0.537873 0.741400 0.684008 0.223797
H36   H     H_    0.501569 0.663119 0.761040 0.226487
C47   C     C_3   0.591596 0.621564 0.662744 -0.922267
H37   H     H_    0.568940 0.557071 0.663108 0.265200
H38   H     H_    0.661620 0.630926 0.727621 0.292385
H39   H     H_    0.604478 0.635497 0.584614 0.267502
O36   O     O_3   0.360822 0.304269 0.568044 -0.651436
C48   C     C_3   0.393507 0.358770 0.502167 0.065051
H40   H     H_    0.355226 0.418212 0.498014 0.133233
H41   H     H_    0.379938 0.333382 0.419355 0.146163
C49   C     C_3   0.504182 0.372764 0.549447 -0.265286
H42   H     H_    0.519386 0.399027 0.631714 0.218037
H43   H     H_    0.543404 0.313809 0.555089 0.237522
C50   C     C_3   0.543107 0.430426 0.479825 -0.974457
H44   H     H_    0.532041 0.403878 0.398325 0.293074
H45   H     H_    0.623032 0.440964 0.517352 0.285362
H46   H     H_    0.504501 0.489686 0.472476 0.241020
O37   O     O_3   0.846272 0.218136 0.616875 -0.669434
C51   C     C_3   0.911916 0.161494 0.592980 0.059972
H47   H     H_    0.923623 0.174155 0.513347 0.143541
H48   H     H_    0.883151 0.098577 0.592383 0.160192
C52   C     C_3   0.011333 0.167610 0.679264 -0.300296
H49   H     H_    0.044938 0.227915 0.674352 0.224047
H50   H     H_    0.000244 0.162049 0.760143 0.221820
C53   C     C_3   0.081517 0.100918 0.665556 -0.909837
H51   H     H_    0.051632 0.040305 0.676546 0.246345
H52   H     H_    0.154132 0.108986 0.726690 0.289394
H53   H     H_    0.092194 0.103537 0.584423 0.291579
O38   O     O_3   0.858021 0.793519 0.591457 -0.655897
C54   C     C_3   0.904971 0.863764 0.566635 0.047367
H54   H     H_    0.963806 0.881770 0.640416 0.177301
H55   H     H_    0.855781 0.917188 0.544431 0.140919
C55   C     C_3   0.952905 0.846339 0.477287 -0.310219
H56   H     H_    0.006377 0.795867 0.501958 0.267911
H57   H     H_    0.895432 0.827951 0.402697 0.217585
C56   C     C_3   0.006413 0.921370 0.453867 -0.948144
H58   H     H_    0.955545 0.973994 0.434502 0.238819
H59   H     H_    0.034224 0.909322 0.383813 0.295656
H60   H     H_    0.069876 0.936859 0.524456 0.272572
O39   O     O_3   0.664123 0.281337 0.368235 -0.641259
C57   C     C_3   0.689435 0.235970 0.286588 0.147564
H61   H     H_    0.644088 0.179717 0.269358 0.193768
H62   H     H_    0.768084 0.216221 0.308223 0.073763
C58   C     C_3   0.668838 0.285926 0.183817 -0.349923
H63   H     H_    0.710520 0.344006 0.201409 0.209131
H64   H     H_    0.694970 0.251766 0.123273 0.199416
C59   C     C_3   0.559183 0.303401 0.136427 -0.783998
H65   H     H_    0.517141 0.245678 0.115572 0.269850
H66   H     H_    0.547404 0.339764 0.062226 0.234224
H67   H     H_    0.531046 0.338332 0.194695 0.279567
O40   O     O_3   0.642537 0.703607 0.393843 -0.658280
C60   C     C_3   0.616098 0.622076 0.363105 0.060364
H68   H     H_    0.534945 0.617156 0.346643 0.170582
H69   H     H_    0.647031 0.578006 0.428263 0.149262
C61   C     C_3   0.641132 0.599416 0.259444 -0.377058
H70   H     H_    0.598245 0.638439 0.192907 0.233741
H71   H     H_    0.720544 0.609501 0.269209 0.219409
C62   C     C_3   0.616707 0.510612 0.229218 -0.967342
H72   H     H_    0.660348 0.470468 0.293912 0.272028
H73   H     H_    0.635053 0.495944 0.153739 0.259855
H74   H     H_    0.536972 0.498947 0.216404 0.273128
O41   O     O_3   0.154008 0.788212 0.379455 -0.662392
C63   C     C_3   0.172076 0.778337 0.278429 0.122637
H75   H     H_    0.113795 0.737704 0.228367 0.197064
H76   H     H_    0.243615 0.748068 0.282939 0.136124
C64   C     C_3   0.164985 0.860314 0.221937 -0.373661
H77   H     H_    0.089320 0.884812 0.207622 0.224109
H78   H     H_    0.217564 0.904277 0.273610 0.202969
C65   C     C_3   0.187899 0.852099 0.114645 -0.945869
H79   H     H_    0.264290 0.829747 0.127430 0.270975
H80   H     H_    0.181188 0.912203 0.075136 0.252924
H81   H     H_    0.135320 0.809246 0.060726 0.281745
O42   O     O_3   0.136877 0.190455 0.433940 -0.653117
C66   C     C_3   0.115125 0.126375 0.357086 0.071011
H82   H     H_    0.038015 0.107128 0.347891 0.172192
H83   H     H_    0.160730 0.071515 0.384530 0.129531
C67   C     C_3   0.121542 0.154677 0.247226 -0.389837
H84   H     H_    0.076677 0.210438 0.223371 0.250209
H85   H     H_    0.199300 0.168634 0.252815 0.218603
C68   C     C_3   0.084775 0.089546 0.160837 -0.975097
H86   H     H_    0.131259 0.034532 0.181379 0.260710
H87   H     H_    0.089352 0.112609 0.082369 0.266587
H88   H     H_    0.006942 0.073486 0.153074 0.275012

loop_
_geom_bond_atom_site_label_1
_geom_bond_atom_site_label_2
_ccdc_geom_bond_type
C68   H86   S    
C3    O14   A    
O5    Zn4   S    
C66   C67   S    
C8    C26   D    
O39   C57   S    
C55   C56   S    
C53   H53   S    
C5    O41   S    
C4    C8    S    
C48   C49   S    
C38   C39   S    
C49   C50   S    
C6    O42   S    
C61   H70   S    
C9    C25   S    
C46   H35   S    
C58   H64   S    
O29   C35   S    
C45   H33   S    
C50   H45   S    
C47   H37   S    
C59   H66   S    
O18   Zn8   S    
C1    C5    S    
C22   C24   D    
C57   H61   S    
C53   H52   S    
C3    C7    S    
O2    Zn8   S    
C52   H49   S    
C33   H11   S    
C46   H36   S    
C4    O13   A    
C3    O5    A    
O2    Zn3   S    
C38   H22   S    
O17   Zn8   S    
C1    O3    A    
C44   H32   S    
C2    O4    A    
C15   O22   A    
C64   H78   S    
C9    O16   A    
O40   C60   S    
C37   H19   S    
C1    O12   A    
C38   H23   S    
O10   Zn4   S    
O25   Zn7   S    
C2    O11   A    
C6    C28   D    
O1    Zn5   S    
C67   H84   S    
C22   C42   S    
O2    Zn6   S    
O6    Zn3   S    
C41   H29   S    
C56   H59   S    
C31   H5    S    
O3    Zn2   S    
C54   H55   S    
O4    Zn1   S    
C18   C20   D    
C45   C46   S    
C10   C26   S    
C23   O27   S    
C20   O30   S    
O12   Zn5   S    
C5    C27   D    
C41   O31   D    
C51   C52   S    
C2    C6    S    
C37   H20   S    
C52   H50   S    
C45   H34   S    
O20   Zn6   S    
C58   C59   S    
C13   O25   A    
C62   H73   S    
C68   H88   S    
O1    Zn7   S    
C31   H6    S    
O28   C32   S    
C35   H16   S    
C17   C43   S    
C30   H3    S    
C65   H81   S    
C20   C24   S    
C53   H51   S    
C60   H69   S    
C18   C44   S    
C58   H63   S    
C13   O19   A    
C60   C61   S    
C12   O17   A    
C46   C47   S    
C49   H43   S    
O1    Zn1   S    
C47   H39   S    
C19   O29   S    
C62   H72   S    
O7    Zn1   S    
C37   H21   S    
C34   H12   S    
C42   H30   S    
C30   H4    S    
C29   H2    S    
C39   C40   S    
C64   C65   S    
C19   C23   S    
C32   H8    S    
C29   C30   S    
O8    Zn2   S    
C68   H87   S    
C56   H58   S    
C55   H57   S    
C11   C27   S    
O11   Zn5   S    
O30   C38   S    
C31   H7    S    
C39   H25   S    
C56   H60   S    
C13   C21   S    
C40   H27   S    
O23   Zn4   S    
C36   C37   S    
C32   H9    S    
C54   C55   S    
C21   C41   S    
C63   H75   S    
C67   H85   S    
C14   O26   A    
C12   C28   S    
C66   H83   S    
C21   C23   D    
C51   H48   S    
C36   H18   S    
C63   H76   S    
C48   H40   S    
O14   Zn6   S    
C34   H14   S    
C52   C53   S    
O15   Zn7   S    
C11   O9    A    
C43   H31   S    
C62   H74   S    
C64   H77   S    
C15   C17   S    
C55   H56   S    
C16   O23   A    
C47   H38   S    
C10   O15   A    
C35   H15   S    
C57   C58   S    
C25   O37   S    
C16   O24   A    
O13   Zn6   S    
O42   C66   S    
C48   H41   S    
C35   C36   S    
C34   H13   S    
C61   H71   S    
O35   C45   S    
C49   H42   S    
O1    Zn2   S    
C27   O35   S    
O16   Zn7   S    
O21   Zn2   S    
O26   Zn8   S    
C50   H44   S    
O22   Zn1   S    
C7    C25   D    
C30   C31   S    
C29   H1    S    
C14   C22   S    
C63   C64   S    
C26   O38   S    
O36   C48   S    
C54   H54   S    
C60   H68   S    
O37   C51   S    
C65   H79   S    
C33   H10   S    
C33   C34   S    
C24   O28   S    
O41   C63   S    
C7    O39   S    
C67   C68   S    
C50   H46   S    
O2    Zn4   S    
C57   H62   S    
C39   H24   S    
C17   C19   D    
C44   O34   D    
C40   H28   S    
C28   O36   S    
C15   O21   A    
C4    O6    A    
C12   O10   A    
C66   H82   S    
C32   C33   S    
C42   O32   D    
C61   C62   S    
C8    O40   S    
O24   Zn3   S    
O19   Zn5   S    
O27   C29   S    
O38   C54   S    
C16   C18   S    
C59   H65   S    
C40   H26   S    
C9    O7    A    
C14   O20   A    
C51   H47   S    
C11   O18   A    
C10   O8    A    
C36   H17   S    
O9    Zn3   S    
C65   H80   S    
C43   O33   D    
C59   H67   S    
