data_mof_unit_20618.cif
_audit_creation_date              2012-12-11T14:28:32-0500
_audit_creation_method            fapswitch 2.2
_symmetry_space_group_name_H-M    P1
_symmetry_Int_Tables_number       1
_space_group_crystal_system       triclinic
_cell_length_a                    10.928324
_cell_length_b                    19.543289
_cell_length_c                    18.698771
_cell_angle_alpha                 90.145505
_cell_angle_beta                  89.650897
_cell_angle_gamma                 90.11098
_cell_volume                      3993.50300731

loop_
_atom_site_label
_atom_site_type_symbol
_atom_type_description
_atom_site_fract_x
_atom_site_fract_y
_atom_site_fract_z
_atom_type_partial_charge
C1    C     C_R   0.315721 0.936439 0.637308 0.518013
C2    C     C_R   0.318956 0.962788 0.856005 0.531624
C3    C     C_R   0.314510 0.062919 0.363011 0.530982
C4    C     C_R   0.319040 0.036499 0.144368 0.520347
C5    C     C_R   0.815721 0.436440 0.637308 0.518007
C6    C     C_R   0.818956 0.462788 0.856005 0.531616
C7    C     C_R   0.814510 0.562919 0.363011 0.530965
C8    C     C_R   0.819040 0.536500 0.144368 0.520355
C9    C     C_3   0.209673 0.723970 0.458885 -0.171766
C10   C     C_3   0.199716 0.714893 0.037766 -0.133490
C11   C     C_3   0.147632 0.309611 0.524349 -0.140775
C12   C     C_3   0.222417 0.251935 0.950025 -0.180138
C13   C     C_3   0.709689 0.223981 0.458885 -0.171780
C14   C     C_3   0.699717 0.214894 0.037766 -0.133486
C15   C     C_3   0.647616 0.809615 0.524348 -0.140765
C16   C     C_3   0.722419 0.751940 0.950026 -0.180139
C17   C     C_3   0.088544 0.745391 0.424812 0.064503
C18   C     C_3   0.090490 0.747399 0.076875 0.044051
C19   C     C_3   0.087282 0.255824 0.573555 0.043100
C20   C     C_3   0.089232 0.255184 0.925628 0.060412
C21   C     C_3   0.588550 0.245394 0.424820 0.064473
C22   C     C_3   0.590488 0.247399 0.076874 0.044046
C23   C     C_3   0.587275 0.755825 0.573554 0.043124
C24   C     C_3   0.589235 0.755185 0.925628 0.060416
C25   C     C_R   0.314887 0.039724 0.438214 -0.019185
C26   C     C_R   0.321795 0.013666 0.072073 -0.003319
C27   C     C_R   0.318956 0.959416 0.562542 -0.048225
C28   C     C_R   0.322338 0.981984 0.929437 -0.046294
C29   C     C_R   0.814886 0.539723 0.438213 -0.019179
C30   C     C_R   0.821796 0.513667 0.072073 -0.003322
C31   C     C_R   0.818952 0.459418 0.562543 -0.048182
C32   C     C_R   0.822338 0.481983 0.929437 -0.046289
C33   C     C_R   0.536712 0.055979 0.450377 -0.097045
C34   C     C_R   0.545219 0.986022 0.074359 -0.075321
C35   C     C_R   0.546243 0.961872 0.557151 -0.104299
C36   C     C_R   0.546979 0.007913 0.927646 -0.091493
C37   C     C_R   0.036713 0.555974 0.450376 -0.097023
C38   C     C_R   0.045222 0.486025 0.074358 -0.075320
C39   C     C_R   0.046236 0.461861 0.557146 -0.104309
C40   C     C_R   0.046977 0.507916 0.927644 -0.091483
C41   C     C_R   0.647821 0.041086 0.480954 -0.133480
C42   C     C_R   0.655969 0.989317 0.037388 -0.125911
C43   C     C_R   0.652418 0.994327 0.535450 -0.141075
C44   C     C_R   0.656706 0.004986 0.964797 -0.131857
C45   C     C_R   0.147821 0.541077 0.480954 -0.133470
C46   C     C_R   0.155970 0.489322 0.037386 -0.125914
C47   C     C_R   0.152414 0.494314 0.535447 -0.141061
C48   C     C_R   0.156705 0.504991 0.964794 -0.131858
C49   C     C_R   0.430251 0.980730 0.530631 -0.012293
C50   C     C_R   0.434555 0.996659 0.963638 -0.016159
C51   C     C_R   0.426916 0.025142 0.472152 -0.006980
C52   C     C_R   0.433847 0.997345 0.038115 -0.004700
C53   C     C_R   0.930246 0.480726 0.530628 -0.012307
C54   C     C_R   0.934554 0.496660 0.963637 -0.016155
C55   C     C_R   0.926915 0.525138 0.472150 -0.006977
C56   C     C_R   0.933848 0.497347 0.038114 -0.004704
C57   C     C_R   0.205432 0.974153 0.528936 0.053186
C58   C     C_R   0.211134 0.979657 0.969433 0.024853
C59   C     C_R   0.202529 0.019038 0.470946 0.086214
C60   C     C_R   0.210520 0.014920 0.032343 0.034345
C61   C     C_R   0.705427 0.474158 0.528939 0.053197
C62   C     C_R   0.711134 0.479656 0.969434 0.024857
C63   C     C_R   0.702526 0.519040 0.470946 0.086215
C64   C     C_R   0.710521 0.514921 0.032343 0.034341
C65   C     C_R   0.092954 0.944832 0.552271 -0.037004
C66   C     C_R   0.097676 0.949985 0.947620 -0.032511
C67   C     C_R   0.085751 0.039263 0.445399 -0.053049
C68   C     C_R   0.097708 0.047216 0.051963 -0.061779
C69   C     C_R   0.592947 0.444838 0.552275 -0.037018
C70   C     C_R   0.597675 0.449988 0.947619 -0.032502
C71   C     C_R   0.585747 0.539264 0.445397 -0.053067
C72   C     C_R   0.597710 0.547218 0.051962 -0.061782
C73   C     C_R   0.981901 0.961664 0.522559 -0.071067
C74   C     C_R   0.986998 0.972347 0.975393 -0.105631
C75   C     C_R   0.978422 0.009021 0.468652 -0.098642
C76   C     C_R   0.987383 0.026513 0.022606 -0.081934
C77   C     C_R   0.481897 0.461666 0.522558 -0.071067
C78   C     C_R   0.486997 0.472354 0.975389 -0.105620
C79   C     C_R   0.478418 0.509020 0.468649 -0.098638
C80   C     C_R   0.487385 0.526519 0.022602 -0.081922
C81   C     C_R   0.179849 0.770697 0.635825 0.530363
C82   C     C_R   0.177164 0.769911 0.864256 0.562901
C83   C     C_R   0.135889 0.240999 0.357546 0.543610
C84   C     C_R   0.183549 0.228880 0.136015 0.558616
C85   C     C_R   0.679868 0.270702 0.635837 0.530487
C86   C     C_R   0.677163 0.269911 0.864256 0.562909
C87   C     C_R   0.635885 0.741000 0.357546 0.543624
C88   C     C_R   0.683548 0.728880 0.136015 0.558615
C89   C     C_R   0.546692 0.769481 0.646610 0.507811
C90   C     C_R   0.541705 0.771336 0.855284 0.535994
C91   C     C_R   0.542984 0.229296 0.354444 0.519368
C92   C     C_R   0.544953 0.230068 0.146720 0.522945
C93   C     C_R   0.046700 0.269478 0.646613 0.507803
C94   C     C_R   0.041705 0.271336 0.855284 0.535994
C95   C     C_R   0.042994 0.729300 0.354433 0.519376
C96   C     C_R   0.044953 0.730068 0.146720 0.522937
C97   C     C_3   0.098131 0.815017 0.458228 0.309348
C98   C     C_3   0.114359 0.816008 0.042679 0.277040
C99   C     C_3   0.153407 0.198578 0.535019 0.273547
C100  C     C_3   0.058789 0.191547 0.967548 0.278651
C101  C     C_3   0.598133 0.315020 0.458236 0.309340
C102  C     C_3   0.614355 0.316009 0.042678 0.277037
C103  C     C_3   0.653408 0.698581 0.535020 0.273540
C104  C     C_3   0.558797 0.691546 0.967545 0.278650
C105  C     C_3   0.217497 0.795562 0.495117 -0.148253
C106  C     C_3   0.225248 0.785149 0.002128 -0.108788
C107  C     C_3   0.213929 0.251426 0.484780 -0.113466
C108  C     C_3   0.191421 0.186891 0.994189 -0.167907
C109  C     C_3   0.717505 0.295572 0.495120 -0.148264
C110  C     C_3   0.725246 0.285151 0.002128 -0.108784
C111  C     C_3   0.713922 0.751432 0.484779 -0.113521
C112  C     C_3   0.691428 0.686894 0.994188 -0.167909
C113  C     C_3   0.143858 0.767291 0.559284 -0.000263
C114  C     C_3   0.139754 0.764764 0.940461 0.008932
C115  C     C_3   0.104005 0.245503 0.433766 0.019942
C116  C     C_3   0.154486 0.233378 0.058319 0.005224
C117  C     C_3   0.643885 0.267296 0.559291 -0.000223
C118  C     C_3   0.639753 0.264764 0.940461 0.008937
C119  C     C_3   0.603996 0.745505 0.433766 0.019947
C120  C     C_3   0.654485 0.733378 0.058319 0.005222
C121  C     C_3   0.023050 0.789691 0.524254 -0.106357
C122  C     C_3   0.029642 0.797415 0.979544 -0.115574
C123  C     C_3   0.046153 0.190748 0.482655 -0.095340
C124  C     C_3   0.021242 0.236296 0.032324 -0.096988
C125  C     C_3   0.523069 0.289690 0.524266 -0.106305
C126  C     C_3   0.529640 0.297414 0.979542 -0.115574
C127  C     C_3   0.546153 0.690747 0.482656 -0.095321
C128  C     C_3   0.521242 0.736292 0.032321 -0.097001
C129  C     C_3   0.016224 0.718049 0.489596 -0.171446
C130  C     C_3   0.005534 0.727370 0.015054 -0.152226
C131  C     C_3   0.980784 0.249337 0.521978 -0.168901
C132  C     C_3   0.054767 0.301126 0.989323 -0.135802
C133  C     C_3   0.516252 0.218047 0.489607 -0.171448
C134  C     C_3   0.505534 0.227369 0.015053 -0.152230
C135  C     C_3   0.480776 0.749333 0.521979 -0.168907
C136  C     C_3   0.554763 0.801124 0.989323 -0.135805
C137  C     C_3   0.137214 0.696880 0.524004 -0.131978
C138  C     C_3   0.114838 0.695194 0.975599 -0.103883
C139  C     C_3   0.039280 0.303828 0.472487 -0.141809
C140  C     C_3   0.188134 0.297707 0.014815 -0.105842
C141  C     C_3   0.637252 0.196885 0.524006 -0.131990
C142  C     C_3   0.614840 0.195194 0.975599 -0.103884
C143  C     C_3   0.539263 0.803826 0.472487 -0.141811
C144  C     C_3   0.688129 0.797709 0.014817 -0.105838
Cr1   Cr    Cr6+3 0.488160 0.884660 0.750000 0.972736
Cr2   Cr    Cr6+3 0.488160 0.115340 0.250000 0.982296
Cr3   Cr    Cr6+3 0.988160 0.384660 0.750000 0.972724
Cr4   Cr    Cr6+3 0.988160 0.615340 0.250000 0.982290
Cr5   Cr    Cr6+3 0.173480 0.883120 0.750000 0.954352
Cr6   Cr    Cr6+3 0.173480 0.116880 0.250000 0.960048
Cr7   Cr    Cr6+3 0.673480 0.383120 0.750000 0.954310
Cr8   Cr    Cr6+3 0.673480 0.616880 0.250000 0.960046
Cr9   Cr    Cr6+3 0.333410 0.727260 0.750000 0.974576
Cr10  Cr    Cr6+3 0.333410 0.272740 0.250000 0.967769
Cr11  Cr    Cr6+3 0.833410 0.227260 0.750000 0.974527
Cr12  Cr    Cr6+3 0.833410 0.772740 0.250000 0.967772
H1    H     H_    0.294099 0.832089 0.500506 0.087946
H2    H     H_    0.312397 0.812575 0.995132 0.105852
H3    H     H_    0.305583 0.258794 0.462124 0.129486
H4    H     H_    0.250456 0.141115 0.993919 0.089928
H5    H     H_    0.794099 0.332103 0.500504 0.087955
H6    H     H_    0.812394 0.312578 0.995132 0.105854
H7    H     H_    0.805573 0.758811 0.462122 0.129496
H8    H     H_    0.750463 0.641118 0.993918 0.089927
H9    H     H_    0.901320 0.933466 0.537883 0.085550
H10   H     H_    0.902619 0.949527 0.957486 0.081031
H11   H     H_    0.894399 0.019910 0.441592 0.096655
H12   H     H_    0.903080 0.050808 0.039205 0.118604
H13   H     H_    0.401319 0.433462 0.537880 0.085552
H14   H     H_    0.402617 0.449537 0.957479 0.081031
H15   H     H_    0.394396 0.519904 0.441585 0.096657
H16   H     H_    0.403082 0.550816 0.039200 0.118595
H17   H     H_    0.945255 0.815134 0.551692 0.089248
H18   H     H_    0.955889 0.828759 0.956141 0.097731
H19   H     H_    0.979586 0.150083 0.470706 0.088227
H20   H     H_    0.943760 0.230353 0.069911 0.109675
H21   H     H_    0.445269 0.315124 0.551705 0.089266
H22   H     H_    0.455887 0.328758 0.956139 0.097732
H23   H     H_    0.479583 0.650082 0.470710 0.088231
H24   H     H_    0.443758 0.730347 0.069906 0.109670
H25   H     H_    0.937993 0.681967 0.488450 0.122878
H26   H     H_    0.918380 0.700877 0.024744 0.116886
H27   H     H_    0.891129 0.239986 0.546323 0.141893
H28   H     H_    0.003628 0.349906 0.985549 0.129548
H29   H     H_    0.438023 0.181967 0.488466 0.122868
H30   H     H_    0.418380 0.200875 0.024742 0.116885
H31   H     H_    0.391121 0.739975 0.546323 0.141898
H32   H     H_    0.503623 0.849904 0.985549 0.129547
H33   H     H_    0.153273 0.649522 0.554663 0.156512
H34   H     H_    0.112657 0.645448 0.947211 0.149241
H35   H     H_    0.993945 0.347772 0.446758 0.120352
H36   H     H_    0.242765 0.341939 0.033988 0.127265
H37   H     H_    0.653357 0.149527 0.554654 0.156477
H38   H     H_    0.612663 0.145448 0.947212 0.149238
H39   H     H_    0.493910 0.847769 0.446767 0.120338
H40   H     H_    0.742756 0.841941 0.033992 0.127267
H41   H     H_    0.284197 0.697034 0.429855 0.113439
H42   H     H_    0.264603 0.678681 0.062662 0.130765
H43   H     H_    0.200949 0.354886 0.541377 0.113789
H44   H     H_    0.301057 0.257672 0.912786 0.116797
H45   H     H_    0.784213 0.197049 0.429852 0.113444
H46   H     H_    0.764605 0.178684 0.062663 0.130774
H47   H     H_    0.700929 0.854892 0.541373 0.113797
H48   H     H_    0.801059 0.757680 0.912788 0.116799
H49   H     H_    0.727346 0.070325 0.465711 0.103309
H50   H     H_    0.740500 0.981810 0.065848 0.090739
H51   H     H_    0.736259 0.985016 0.563353 0.101580
H52   H     H_    0.741399 0.014223 0.936523 0.112245
H53   H     H_    0.227348 0.570318 0.465716 0.103309
H54   H     H_    0.240503 0.481817 0.065845 0.090741
H55   H     H_    0.236253 0.485001 0.563353 0.101585
H56   H     H_    0.241397 0.514230 0.936520 0.112258
H57   H     H_    0.535693 0.097065 0.415018 0.183837
H58   H     H_    0.548225 0.974302 0.130762 0.136080
H59   H     H_    0.558477 0.922004 0.594570 0.185778
H60   H     H_    0.551890 0.020718 0.871546 0.132308
H61   H     H_    0.035696 0.597063 0.415020 0.183838
H62   H     H_    0.048229 0.474305 0.130761 0.136083
H63   H     H_    0.058464 0.421991 0.594563 0.185786
H64   H     H_    0.051886 0.520721 0.871545 0.132282
H65   H     H_    0.073241 0.078282 0.405957 0.150235
H66   H     H_    0.091490 0.089963 0.087776 0.168527
H67   H     H_    0.088985 0.904206 0.589958 0.152705
H68   H     H_    0.091563 0.908579 0.910596 0.167982
H69   H     H_    0.573235 0.578282 0.405953 0.150237
H70   H     H_    0.591493 0.589965 0.087775 0.168523
H71   H     H_    0.588976 0.404215 0.589964 0.152714
H72   H     H_    0.591559 0.408581 0.910596 0.167980
O1    O     O_R   0.575450 0.828820 0.667950 -0.558711
O2    O     O_R   0.575450 0.828820 0.832050 -0.525441
O3    O     O_R   0.575450 0.171180 0.332050 -0.559100
O4    O     O_R   0.575450 0.171180 0.167950 -0.517803
O5    O     O_R   0.075450 0.328820 0.667950 -0.558711
O6    O     O_R   0.075450 0.328820 0.832050 -0.525435
O7    O     O_R   0.075450 0.671180 0.332050 -0.559112
O8    O     O_R   0.075450 0.671180 0.167950 -0.517809
O9    O     O_R   0.416860 0.942890 0.674680 -0.517367
O10   O     O_R   0.416860 0.942890 0.825320 -0.501341
O11   O     O_R   0.416860 0.057110 0.325320 -0.512704
O12   O     O_R   0.416860 0.057110 0.174680 -0.506955
O13   O     O_R   0.916860 0.442890 0.674680 -0.517343
O14   O     O_R   0.916860 0.442890 0.825320 -0.501356
O15   O     O_R   0.916860 0.557110 0.325320 -0.512722
O16   O     O_R   0.916860 0.557110 0.174680 -0.506964
O17   O     O_R   0.213790 0.953680 0.668330 -0.547297
O18   O     O_R   0.213790 0.953680 0.831670 -0.567175
O19   O     O_R   0.213790 0.046320 0.331670 -0.561497
O20   O     O_R   0.213790 0.046320 0.168330 -0.564576
O21   O     O_R   0.713790 0.453680 0.668330 -0.547388
O22   O     O_R   0.713790 0.453680 0.831670 -0.567168
O23   O     O_R   0.713790 0.546320 0.331670 -0.561518
O24   O     O_R   0.713790 0.546320 0.168330 -0.564567
O25   O     O_R   0.121360 0.817890 0.672660 -0.538988
O26   O     O_R   0.121360 0.817890 0.827340 -0.527626
O27   O     O_R   0.121360 0.182110 0.327340 -0.530574
O28   O     O_R   0.121360 0.182110 0.172660 -0.523872
O29   O     O_R   0.621360 0.317890 0.672660 -0.539025
O30   O     O_R   0.621360 0.317890 0.827340 -0.527639
O31   O     O_R   0.621360 0.682110 0.327340 -0.530574
O32   O     O_R   0.621360 0.682110 0.172660 -0.523875
O33   O     O_R   0.206850 0.711370 0.665820 -0.527736
O34   O     O_R   0.206850 0.711370 0.834180 -0.523380
O35   O     O_R   0.206850 0.288630 0.334180 -0.511160
O36   O     O_R   0.206850 0.288630 0.165820 -0.527778
O37   O     O_R   0.706850 0.211370 0.665820 -0.527723
O38   O     O_R   0.706850 0.211370 0.834180 -0.523410
O39   O     O_R   0.706850 0.788630 0.334180 -0.511149
O40   O     O_R   0.706850 0.788630 0.165820 -0.527775
O41   O     O_R   0.457710 0.733190 0.672630 -0.527029
O42   O     O_R   0.457710 0.733190 0.827370 -0.500433
O43   O     O_R   0.457710 0.266810 0.327370 -0.518708
O44   O     O_R   0.457710 0.266810 0.172630 -0.545070
O45   O     O_R   0.957710 0.233190 0.672630 -0.527043
O46   O     O_R   0.957710 0.233190 0.827370 -0.500449
O47   O     O_R   0.957710 0.766810 0.327370 -0.518713
O48   O     O_R   0.957710 0.766810 0.172630 -0.545071
O49   O     O_3   0.331690 0.831680 0.750000 -0.293411
O50   O     O_3   0.331690 0.168320 0.250000 -0.283015
O51   O     O_3   0.831690 0.331680 0.750000 -0.293414
O52   O     O_3   0.831690 0.668320 0.250000 -0.283010
O53   O     O_3   0.084571 0.876921 0.419673 -0.568607
C145  C     C_3   0.151341 0.880022 0.353761 0.009890
H73   H     H_    0.131594 0.930606 0.330545 0.184196
H74   H     H_    0.118155 0.843784 0.313470 0.128486
C146  C     C_3   0.290932 0.872829 0.358788 -0.292986
H75   H     H_    0.326586 0.907527 0.400435 0.173578
H76   H     H_    0.315658 0.819433 0.371756 0.149631
C147  C     C_3   0.353414 0.888870 0.287456 -0.456179
H77   H     H_    0.326504 0.850558 0.246459 0.131481
H78   H     H_    0.454279 0.886886 0.294007 0.168342
H79   H     H_    0.328007 0.940501 0.268364 0.195914
O54   O     O_3   0.126254 0.882355 0.073029 -0.582635
C148  C     C_3   0.093074 0.888872 0.145916 0.031188
H80   H     H_    0.149521 0.930106 0.168587 0.168194
H81   H     H_    0.121173 0.845191 0.179053 0.110069
C149  C     C_3   0.958316 0.911066 0.154326 -0.243627
H82   H     H_    0.944728 0.960636 0.128856 0.149318
H83   H     H_    0.895829 0.874785 0.127245 0.193145
C150  C     C_3   0.919598 0.922111 0.231824 -0.442951
H84   H     H_    0.933779 0.875495 0.263484 0.203862
H85   H     H_    0.820833 0.935296 0.234093 0.134355
H86   H     H_    0.972225 0.965100 0.255534 0.123625
O55   O     O_3   0.218800 0.144757 0.567700 -0.576199
C151  C     C_3   0.283073 0.170543 0.627613 -0.006703
H87   H     H_    0.218014 0.179041 0.672623 0.134964
H88   H     H_    0.331701 0.219285 0.615045 0.128059
C152  C     C_3   0.377595 0.118818 0.652469 -0.255114
H89   H     H_    0.330634 0.069881 0.663259 0.219257
H90   H     H_    0.447654 0.111073 0.609988 0.178532
C153  C     C_3   0.439534 0.142220 0.721319 -0.443276
H91   H     H_    0.480087 0.193895 0.714451 0.198942
H92   H     H_    0.513185 0.105693 0.735484 0.164326
H93   H     H_    0.371956 0.143875 0.765949 0.125408
O56   O     O_3   0.988025 0.138897 0.936100 -0.567178
C154  C     C_3   0.050518 0.109550 0.876401 0.046450
H94   H     H_    0.116293 0.071391 0.894375 0.143143
H95   H     H_    0.108408 0.146097 0.845925 0.113928
C155  C     C_3   0.957634 0.076140 0.825771 -0.245345
H96   H     H_    0.928336 0.025861 0.847209 0.130147
H97   H     H_    0.874718 0.108571 0.821716 0.212198
C156  C     C_3   0.010696 0.065893 0.750810 -0.445084
H98   H     H_    0.030843 0.116043 0.725734 0.170280
H99   H     H_    0.943890 0.038012 0.716950 0.130693
H100  H     H_    0.096450 0.036047 0.753201 0.200998
O57   O     O_3   0.584563 0.376924 0.419681 -0.568617
C157  C     C_3   0.651328 0.380031 0.353770 0.009892
H101  H     H_    0.631603 0.430621 0.330567 0.184227
H102  H     H_    0.618114 0.343808 0.313473 0.128524
C158  C     C_3   0.790917 0.372812 0.358782 -0.293008
H103  H     H_    0.826607 0.407504 0.400426 0.173558
H104  H     H_    0.815618 0.319411 0.371745 0.149665
C159  C     C_3   0.853388 0.388841 0.287445 -0.456239
H105  H     H_    0.826288 0.350599 0.246418 0.131431
H106  H     H_    0.954253 0.386728 0.293957 0.168321
H107  H     H_    0.828156 0.440522 0.268417 0.196016
O58   O     O_3   0.626245 0.382356 0.073026 -0.582640
C160  C     C_3   0.593064 0.388874 0.145913 0.031185
H108  H     H_    0.649512 0.430109 0.168584 0.168216
H109  H     H_    0.621161 0.345194 0.179051 0.110069
C161  C     C_3   0.458307 0.411068 0.154322 -0.243629
H110  H     H_    0.444720 0.460637 0.128849 0.149322
H111  H     H_    0.395820 0.374785 0.127244 0.193146
C162  C     C_3   0.419590 0.422117 0.231820 -0.442966
H112  H     H_    0.433742 0.375498 0.263478 0.203868
H113  H     H_    0.320832 0.435319 0.234087 0.134343
H114  H     H_    0.472237 0.465096 0.255533 0.123630
O59   O     O_3   0.718790 0.644757 0.567705 -0.576199
C163  C     C_3   0.783127 0.670553 0.627589 -0.006785
H115  H     H_    0.718088 0.679210 0.672572 0.134929
H116  H     H_    0.831965 0.719207 0.614940 0.128166
C164  C     C_3   0.877387 0.618740 0.652575 -0.255115
H117  H     H_    0.830181 0.569892 0.663437 0.219281
H118  H     H_    0.947468 0.610831 0.610139 0.178628
C165  C     C_3   0.939341 0.642166 0.721413 -0.443495
H119  H     H_    0.980443 0.693685 0.714389 0.199167
H120  H     H_    0.012570 0.605450 0.735795 0.164145
H121  H     H_    0.871643 0.644192 0.765965 0.125398
O60   O     O_3   0.488050 0.638895 0.936086 -0.567165
C166  C     C_3   0.550570 0.609555 0.876393 0.046449
H122  H     H_    0.616347 0.571400 0.894372 0.143140
H123  H     H_    0.608461 0.646108 0.845926 0.113910
C167  C     C_3   0.457717 0.576141 0.825747 -0.245335
H124  H     H_    0.428438 0.525853 0.847172 0.130161
H125  H     H_    0.374785 0.608560 0.821689 0.212176
C168  C     C_3   0.510811 0.565918 0.750791 -0.445046
H126  H     H_    0.530926 0.616078 0.725723 0.170305
H127  H     H_    0.444043 0.538021 0.716920 0.130741
H128  H     H_    0.596595 0.536099 0.753189 0.200965

loop_
_geom_bond_atom_site_label_1
_geom_bond_atom_site_label_2
_ccdc_geom_bond_type
C6    C32   S    
Cr1   O2    S    
C7    C29   S    
C119  C143  S    
C38   H62   S    
C120  C144  S    
C65   H67   S    
C110  C118  S    
C160  H108  S    
Cr10  O36   S    
C145  H73   S    
C16   C144  S    
C70   H72   S    
C57   C59   A    
C92   O4    A    
C58   C60   A    
C81   O25   A    
C62   C70   A    
C61   C63   A    
C62   C64   A    
Cr10  O35   S    
C151  C152  S    
C23   C103  S    
C48   H56   S    
C49   C51   A    
C34   C42   A    
C84   O28   A    
Cr4   O15   S    
C50   C52   A    
C23   C89   S    
C157  H101  S    
C128  H24   S    
C41   C43   A    
C97   C105  S    
C40   H64   S    
C73   C75   A    
C90   O42   A    
C42   C44   A    
C20   C132  S    
Cr10  O44   S    
C21   C133  S    
C101  O57   S    
C45   C47   A    
C112  H8    S    
C46   C48   A    
C115  C123  S    
C6    O22   A    
C147  H79   S    
C161  H110  S    
C27   C57   A    
C87   O31   A    
C112  C120  S    
C33   H57   S    
C94   O6    A    
C29   C55   A    
O56   C154  S    
C46   H54   S    
C30   C56   A    
C100  C124  S    
C68   H66   S    
C15   C111  S    
O55   C151  S    
C104  C128  S    
C107  H3    S    
C12   C20   S    
C157  C158  S    
C120  C128  S    
C142  H38   S    
C13   C21   S    
C85   C117  S    
Cr11  O37   S    
C149  H82   S    
C63   C71   A    
C113  C137  S    
C36   C44   A    
C33   C51   A    
C80   H16   S    
C37   C45   A    
C130  C138  S    
C160  C161  S    
C36   C50   A    
C39   C47   A    
C40   C48   A    
C20   C94   S    
C155  C156  S    
C133  C141  S    
Cr1   O49   S    
C127  C135  S    
O58   C160  S    
C24   C90   S    
C15   H47   S    
C28   C58   A    
C98   C106  S    
C61   C69   A    
O53   C145  S    
C8    C30   S    
C146  H76   S    
C1    O17   A    
C168  H126  S    
C108  C116  S    
C10   C18   S    
C163  H115  S    
C76   H12   S    
Cr12  O48   S    
C2    C28   S    
C32   C62   A    
C129  C137  S    
C126  C134  S    
C156  H98   S    
C7    O23   A    
C166  H122  S    
C8    O16   A    
C84   O36   A    
C10   C138  S    
Cr4   O8    S    
C16   H48   S    
C14   C142  S    
C81   O33   A    
Cr5   O18   S    
C47   H55   S    
C69   C77   A    
C134  H30   S    
C83   O35   A    
C164  H117  S    
C161  C162  S    
C71   C79   A    
C110  H6    S    
C164  C165  S    
Cr6   O20   S    
C74   C76   A    
C39   H63   S    
C78   C80   A    
C167  H124  S    
Cr3   O13   S    
Cr5   O25   S    
C66   C74   A    
C78   H14   S    
C124  C132  S    
C111  C119  S    
C67   H65   S    
Cr11  O51   S    
C59   C67   A    
C149  C150  S    
C35   C49   A    
C101  C125  S    
C126  H22   S    
Cr5   O49   S    
Cr9   O33   S    
C133  H29   S    
C24   C136  S    
C151  H88   S    
C84   C116  S    
C136  H32   S    
C158  H104  S    
C9    C137  S    
Cr11  O46   S    
C135  H31   S    
C9    H41   S    
Cr7   O22   S    
Cr2   O3    S    
C121  H17   S    
C100  C108  S    
C83   C115  S    
C159  H105  S    
C73   H9    S    
C168  H128  S    
C104  C112  S    
C1    O9    A    
C122  H18   S    
C163  C164  S    
C45   H53   S    
C91   O3    A    
C147  H78   S    
C98   O54   S    
C87   C119  S    
C148  H80   S    
C97   O53   S    
Cr12  O40   S    
C156  H100  S    
C57   C65   A    
Cr1   O10   S    
C12   H44   S    
C141  H37   S    
C15   C143  S    
C40   C54   A    
C162  H113  S    
C96   O48   A    
C137  H33   S    
C10   C106  S    
C67   C75   A    
Cr8   O24   S    
Cr7   O29   S    
C14   C110  S    
Cr1   O1    S    
C8    O24   A    
C154  C155  S    
C102  O58   S    
C102  C126  S    
C123  H19   S    
C144  H40   S    
C68   C76   A    
C145  H74   S    
Cr4   O7    S    
C127  H23   S    
C14   C22   S    
C72   C80   A    
C36   H60   S    
C11   C107  S    
Cr8   O31   S    
Cr6   O27   S    
C14   H46   S    
C149  H83   S    
C166  C167  S    
C114  C138  S    
C150  H86   S    
C38   C46   A    
C131  C139  S    
C37   C55   A    
Cr3   O6    S    
C38   C56   A    
C145  C146  S    
C165  H119  S    
Cr4   O16   S    
C22   C92   S    
C90   O2    A    
C157  H102  S    
C25   C59   A    
Cr2   O50   S    
C35   H59   S    
C153  H93   S    
C27   C49   A    
C87   O39   A    
C119  C127  S    
C29   C63   A    
C30   C64   A    
C71   H69   S    
C31   C61   A    
Cr9   O42   S    
C159  H107  S    
C37   H61   S    
C109  C117  S    
C99   O55   S    
C11   C19   S    
C161  H111  S    
Cr12  O52   S    
C148  C149  S    
C139  H35   S    
C128  C136  S    
C92   O44   A    
C101  C109  S    
C95   O47   A    
C103  C111  S    
C79   H15   S    
C11   C139  S    
C86   O30   A    
C116  C140  S    
C131  H27   S    
C105  H1    S    
C82   O34   A    
C12   C140  S    
C17   C95   S    
C13   C141  S    
C88   C120  S    
C19   C93   S    
C77   C79   A    
C154  H94   S    
Cr5   O17   S    
C72   H70   S    
C3    O19   A    
C32   C54   A    
C160  H109  S    
C153  H92   S    
C43   H51   S    
C152  H89   S    
C5    O21   A    
C3    C25   S    
C34   H58   S    
C103  O59   S    
O59   C163  S    
C10   H42   S    
C93   O5    A    
Cr4   O52   S    
C83   O27   A    
C117  C141  S    
C150  H84   S    
C146  H75   S    
C134  C142  S    
C100  O56   S    
C20   C100  S    
C143  H39   S    
Cr5   O26   S    
C163  H116  S    
C4    O12   A    
C86   C118  S    
C124  H20   S    
C106  C114  S    
C102  C110  S    
Cr10  O43   S    
C74   H10   S    
C16   C112  S    
C12   C108  S    
C21   C91   S    
C105  C113  S    
C153  H91   S    
C19   C99   S    
C116  C124  S    
C123  C131  S    
C104  O60   S    
C88   O40   A    
C121  C129  S    
C94   O46   A    
C4    C26   S    
C164  H118  S    
C132  C140  S    
C99   C107  S    
C34   C52   A    
C23   C135  S    
C33   C41   A    
C152  C153  S    
C2    O18   A    
C136  C144  S    
C132  H28   S    
C39   C53   A    
C167  H125  S    
C42   H50   S    
O57   C157  S    
C11   H43   S    
Cr11  O38   S    
C88   O32   A    
Cr2   O11   S    
C60   C68   A    
C17   C97   S    
C81   C113  S    
C82   O26   A    
C9    C105  S    
C3    O11   A    
C167  C168  S    
C162  H112  S    
C70   C78   A    
C18   C96   S    
C158  H103  S    
Cr11  O45   S    
C35   C43   A    
Cr7   O21   S    
Cr2   O4    S    
C22   C134  S    
C89   O41   A    
O54   C148  S    
C159  H106  S    
C146  C147  S    
C91   O43   A    
C168  H127  S    
Cr9   O49   S    
C44   H52   S    
C65   C73   A    
Cr7   O51   S    
C4    O20   A    
Cr12  O47   S    
Cr8   O52   S    
C28   C50   A    
C58   C66   A    
C156  H99   S    
Cr1   O9    S    
C97   C121  S    
C21   C101  S    
C15   C23   S    
C13   C109  S    
C16   C24   S    
C138  H34   S    
C95   O7    A    
C69   H71   S    
C53   C55   A    
C19   C131  S    
Cr6   O19   S    
C54   C56   A    
C154  H95   S    
C17   C129  S    
C85   O37   A    
Cr10  O50   S    
C111  H7    S    
C82   C114  S    
C66   H68   S    
C130  H26   S    
C2    O10   A    
Cr3   O14   S    
C93   O45   A    
C106  H2    S    
C24   C104  S    
Cr6   O50   S    
C155  H96   S    
C26   C52   A    
Cr8   O32   S    
Cr6   O28   S    
C115  C139  S    
C96   O8    A    
C113  C121  S    
C166  H123  S    
C31   C53   A    
Cr9   O34   S    
C150  H85   S    
C107  C115  S    
C98   C122  S    
Cr3   O5    S    
C9    C17   S    
C151  H87   S    
C165  H120  S    
C125  H21   S    
C140  H36   S    
C158  C159  S    
C155  H97   S    
C103  C127  S    
C99   C123  S    
C125  C133  S    
C129  H25   S    
Cr9   O41   S    
Cr2   O12   S    
C118  C142  S    
Cr3   O51   S    
C108  H4    S    
C165  H121  S    
C118  C126  S    
C25   C51   A    
C22   C102  S    
C85   O29   A    
C5    O13   A    
C147  H77   S    
C152  H90   S    
C148  H81   S    
C109  H5    S    
Cr12  O39   S    
C26   C60   A    
C135  C143  S    
C13   H45   S    
C64   C72   A    
C41   H49   S    
O60   C166  S    
C18   C130  S    
C114  C122  S    
C77   H13   S    
C162  H114  S    
C7    O15   A    
C1    C27   S    
C86   O38   A    
C6    O14   A    
C75   H11   S    
C18   C98   S    
C89   O1    A    
C117  C125  S    
C122  C130  S    
Cr8   O23   S    
Cr7   O30   S    
C5    C31   S    
