data_mof_unit_12105.cif
_audit_creation_date              2012-12-10T16:51:32-0500
_audit_creation_method            fapswitch 2.2
_symmetry_space_group_name_H-M    P1
_symmetry_Int_Tables_number       1
_space_group_crystal_system       triclinic
_cell_length_a                    7.815246
_cell_length_b                    8.708594
_cell_length_c                    12.554334
_cell_angle_alpha                 92.611218
_cell_angle_beta                  102.998144
_cell_angle_gamma                 93.003879
_cell_volume                      829.96333153

loop_
_atom_site_label
_atom_site_type_symbol
_atom_type_description
_atom_site_fract_x
_atom_site_fract_y
_atom_site_fract_z
_atom_type_partial_charge
C1    C     C_R   0.041163 0.794210 0.493788 0.995811
C2    C     C_R   0.170417 0.494332 0.827914 -0.183216
C3    C     C_2   0.060485 0.957655 0.493591 -0.485692
C4    C     C_R   0.109125 0.500536 0.709012 0.879714
C5    C     C_2   0.918962 0.041711 0.482226 0.320471
C6    C     C_R   0.952570 0.205483 0.496823 0.779960
C7    C     C_R   0.887182 0.470812 0.293204 0.892762
C8    C     C_R   0.856376 0.331361 0.002939 -0.123877
C9    C     C_R   0.817524 0.413032 0.181029 -0.188676
C10   C     C_R   0.079696 0.574242 0.896671 0.502327
C11   C     C_R   0.160933 0.603848 0.007380 -0.313050
C12   C     C_R   0.404057 0.451186 0.985961 0.101182
C13   C     C_R   0.322050 0.546992 0.050536 -0.191618
C14   C     C_3   0.621944 0.022853 0.491353 0.106555
C15   C     C_3   0.539691 0.883116 0.530166 -0.808318
C16   C     C_3   0.746398 0.109714 0.792355 0.051662
C17   C     C_3   0.927010 0.093448 0.766221 -0.884015
C18   C     C_3   0.864149 0.753193 0.885439 0.087201
C19   C     C_3   0.740991 0.748220 0.963821 -0.853029
C20   C     C_R   0.330161 0.426000 0.873138 -0.076035
C21   C     C_R   0.569039 0.394651 0.029366 -0.022105
C22   C     C_R   0.675714 0.344112 0.959485 -0.003530
C23   C     C_R   0.598224 0.307811 0.848809 0.500475
C24   C     C_R   0.422275 0.337392 0.808995 -0.282630
C25   C     C_R   0.635174 0.394438 0.141213 0.389883
C26   C     C_R   0.928471 0.373920 0.112451 -0.283370
H1    H     H_    0.069437 0.374500 0.143476 0.215026
H2    H     H_    0.672095 0.097670 0.566489 0.188790
H3    H     H_    0.645321 0.828672 0.587177 0.244883
H4    H     H_    0.442953 0.915736 0.577754 0.185278
H5    H     H_    0.476160 0.804578 0.458572 0.291125
H6    H     H_    0.646715 0.029751 0.737618 0.140073
H7    H     H_    0.753109 0.072866 0.876859 0.119560
H8    H     H_    0.032039 0.102850 0.842622 0.222614
H9    H     H_    0.931942 0.980485 0.722821 0.206078
H10   H     H_    0.956367 0.185213 0.713603 0.275865
H11   H     H_    0.579675 0.293798 0.263738 0.332190
H12   H     H_    0.467671 0.388865 0.410379 0.204948
H13   H     H_    0.791280 0.800195 0.809230 0.161757
H14   H     H_    0.981357 0.833913 0.919187 0.122262
H15   H     H_    0.798094 0.686627 0.037510 0.259559
H16   H     H_    0.717311 0.866944 0.990349 0.207055
H17   H     H_    0.612978 0.688959 0.921686 0.260737
H18   H     H_    0.534158 0.596736 0.596432 0.201960
H19   H     H_    0.944222 0.298200 0.952140 0.195413
H20   H     H_    0.382035 0.581526 0.135027 0.219249
H21   H     H_    0.098036 0.667796 0.062014 0.174135
H22   H     H_    0.363466 0.293529 0.726435 0.192035
H23   H     H_    0.192892 0.010507 0.513477 0.139740
H24   H     H_    0.519462 0.082220 0.434792 0.157753
N1    N     N_2   0.434800 0.456690 0.470850 -0.172038
N2    N     N_2   0.565200 0.543310 0.529150 -0.170372
O1    O     O_R   0.893060 0.738880 0.507150 -0.562394
O2    O     O_3   0.696532 0.262034 0.775496 -0.584778
O3    O     O_3   0.520830 0.362443 0.207771 -0.791855
O4    O     O_3   0.904034 0.602798 0.856672 -0.574960
O5    O     O_R   0.172250 0.711130 0.488470 -0.639351
O6    O     O_R   0.944700 0.520730 0.667600 -0.544776
O7    O     O_R   0.223890 0.492980 0.648920 -0.639157
O8    O     O_R   0.827750 0.288870 0.511530 -0.639638
O9    O     O_R   0.106940 0.261120 0.492850 -0.639798
O10   O     O_R   0.776110 0.507020 0.351080 -0.593891
O11   O     O_R   0.055300 0.479270 0.332400 -0.612727
O12   O     O_3   0.750459 0.975980 0.435091 -0.590406
Zn1   Zn    Zn3+2 0.813580 0.518530 0.512470 0.990984
Zn2   Zn    Zn3+2 0.186420 0.481470 0.487530 0.938229

loop_
_geom_bond_atom_site_label_1
_geom_bond_atom_site_label_2
_ccdc_geom_bond_type
O8    Zn1   S    
C2    C4    S    
C18   H13   S    
C7    O10   A    
C15   H5    S    
C17   H10   S    
C1    O5    A    
C16   H7    S    
C16   H6    S    
C8    C26   A    
O6    Zn1   S    
C11   H21   S    
C14   C15   S    
C19   H16   S    
C18   O4    S    
O5    Zn2   S    
C23   C24   A    
C14   O12   S    
O1    Zn1   S    
H18   N2    S    
C25   O3    S    
C3    H23   S    
O11   Zn2   S    
C9    C25   A    
C8    H19   S    
C21   C22   A    
C1    O1    A    
C11   C13   A    
C7    O11   A    
C26   H1    S    
C14   H24   S    
C12   C21   A    
C12   C20   A    
C15   H4    S    
O9    Zn2   S    
C6    O9    A    
C19   H17   S    
C9    C26   A    
C15   H3    S    
C3    C5    D    
O7    Zn2   S    
C5    C6    S    
C16   O2    S    
C17   H8    S    
C2    C20   A    
N1    N2    D    
H11   O3    S    
C6    O8    A    
C10   O4    S    
C12   C13   A    
C4    O7    A    
C23   O2    S    
C18   C19   S    
C10   C11   A    
C4    O6    A    
C7    C9    S    
C18   H14   S    
C13   H20   S    
C21   C25   A    
H12   N1    S    
C17   H9    S    
O10   Zn1   S    
C14   H2    S    
C22   C23   A    
C8    C22   A    
C20   C24   A    
C2    C10   A    
N2    Zn1   S    
C19   H15   S    
C5    O12   S    
C16   C17   S    
C1    C3    S    
N1    Zn2   S    
C24   H22   S    
