data_mof_unit_62414.cif
_audit_creation_date              2012-12-10T19:33:00-0500
_audit_creation_method            fapswitch 2.2
_symmetry_space_group_name_H-M    P1
_symmetry_Int_Tables_number       1
_space_group_crystal_system       triclinic
_cell_length_a                    21.642967
_cell_length_b                    21.625187
_cell_length_c                    22.023529
_cell_angle_alpha                 119.053368
_cell_angle_beta                  119.091619
_cell_angle_gamma                 90.325791
_cell_volume                      7469.05341296

loop_
_atom_site_label
_atom_site_type_symbol
_atom_type_description
_atom_site_fract_x
_atom_site_fract_y
_atom_site_fract_z
_atom_type_partial_charge
C1    C     C_R   0.501713 0.121325 0.502742 0.973870
C2    C     C_3   0.704993 0.288641 0.050418 0.473267
C3    C     C_3   0.789901 0.292136 0.082770 0.031985
C4    C     C_3   0.791988 0.209523 0.049851 0.107753
C5    C     C_3   0.746766 0.160046 0.951306 0.443066
C6    C     C_1   0.836472 0.337717 0.174492 0.074727
C7    C     C_1   0.661684 0.162450 0.825588 0.045505
C8    C     C_1   0.624907 0.125233 0.750705 -0.123538
C9    C     C_R   0.444565 0.186956 0.438614 0.031210
C10   C     C_R   0.504636 0.187744 0.504047 -0.301689
C11   C     C_R   0.571513 0.248069 0.561561 0.332564
C12   C     C_R   0.580908 0.081027 0.662017 0.891014
C13   C     C_R   0.572848 0.311494 0.558902 0.324751
C14   C     C_R   0.506860 0.313470 0.499439 -0.262894
C15   C     C_R   0.445664 0.249031 0.436316 0.017931
C16   C     C_3   0.365121 0.237954 0.404491 -0.396632
C17   C     C_3   0.364058 0.169144 0.407353 0.242749
C18   C     C_3   0.244045 0.713836 0.047914 0.441879
C19   C     C_3   0.349281 0.780040 0.049006 0.190003
C20   C     C_3   0.298016 0.720824 0.948562 0.496720
C21   C     C_1   0.126246 0.625399 0.750702 -0.134108
C22   C     C_3   0.294976 0.792712 0.082875 -0.068321
C23   C     C_R   0.500184 0.880373 0.500644 0.893684
C24   C     C_3   0.190077 0.672755 0.951049 -0.432673
C25   C     C_3   0.212919 0.711453 0.917304 0.023845
C26   C     C_3   0.201407 0.790724 0.951559 -0.257565
C27   C     C_3   0.240133 0.834836 0.049133 0.652420
C28   C     C_1   0.164915 0.663826 0.825551 0.072383
C29   C     C_1   0.338819 0.837898 0.174454 0.119701
C30   C     C_1   0.375158 0.874943 0.249313 -0.046077
C31   C     C_R   0.447090 0.747324 0.429744 -0.051052
C32   C     C_R   0.500881 0.814959 0.500949 -0.060164
C33   C     C_R   0.562070 0.816665 0.567427 -0.180590
C34   C     C_R   0.419090 0.918986 0.337987 0.917919
C35   C     C_R   0.562789 0.752173 0.567096 -0.096552
C36   C     C_R   0.503672 0.685799 0.498568 -0.099460
C37   C     C_R   0.449467 0.682984 0.427652 0.018708
C38   C     C_3   0.366483 0.650819 0.376006 0.140158
C39   C     C_3   0.363666 0.723233 0.379522 0.604300
C40   C     C_R   0.878677 0.498484 0.497005 0.934326
C41   C     C_R   0.919164 0.419083 0.337977 0.878158
C42   C     C_R   0.119912 0.499741 0.499455 0.905150
C43   C     C_R   0.081082 0.580954 0.662039 0.919675
C44   C     C_R   0.620300 0.497535 0.500093 0.967695
C45   C     C_3   0.656488 0.239522 0.951067 -0.142891
C46   C     C_R   0.501698 0.379689 0.500092 0.941846
C47   C     C_R   0.379657 0.498959 0.500032 0.910021
C48   C     C_R   0.500229 0.620354 0.499775 0.913459
C49   C     C_R   0.809771 0.556555 0.556006 -0.033693
C50   C     C_R   0.810694 0.495437 0.492704 -0.142295
C51   C     C_R   0.750896 0.427489 0.436251 0.170943
C52   C     C_R   0.689334 0.424857 0.443183 0.154865
C53   C     C_R   0.686492 0.491889 0.500987 -0.097118
C54   C     C_R   0.749471 0.554541 0.560595 -0.038080
C55   C     C_3   0.762263 0.636841 0.600643 0.384262
C56   C     C_3   0.767254 0.274883 0.948623 -0.385170
C57   C     C_3   0.831222 0.639460 0.595317 0.426691
C58   C     C_R   0.250161 0.558969 0.563974 0.113899
C59   C     C_R   0.185541 0.498549 0.499578 -0.186384
C60   C     C_R   0.187703 0.432088 0.442221 -0.218403
C61   C     C_R   0.251693 0.430257 0.441732 0.381947
C62   C     C_R   0.314168 0.495423 0.501044 -0.197513
C63   C     C_R   0.313974 0.557278 0.564846 0.054514
C64   C     C_3   0.334967 0.637625 0.595335 -0.456227
C65   C     C_3   0.263871 0.639329 0.593916 -0.016340
C66   C     C_3   0.819718 0.324748 0.046520 0.261253
C67   C     C_1   0.874396 0.374965 0.249344 -0.120187
C68   C     C_3   0.706665 0.207964 0.917328 0.042674
H1    H     H_    0.614059 0.190348 0.927502 0.175136
H2    H     H_    0.356611 0.283023 0.450561 0.190501
H3    H     H_    0.331457 0.225751 0.340232 0.278344
H4    H     H_    0.353886 0.173415 0.453921 0.130664
H5    H     H_    0.186391 0.612891 0.918423 0.227642
H6    H     H_    0.132342 0.671561 0.933694 0.230563
H7    H     H_    0.799680 0.254392 0.920345 0.231505
H8    H     H_    0.229723 0.822456 0.940138 0.191563
H9    H     H_    0.607021 0.868239 0.620819 0.159045
H10   H     H_    0.608077 0.754604 0.620787 0.186295
H11   H     H_    0.345829 0.642564 0.409810 0.107251
H12   H     H_    0.740079 0.307498 0.922871 0.194116
H13   H     H_    0.138779 0.382922 0.395723 0.203960
H14   H     H_    0.387486 0.671645 0.658951 0.221246
H15   H     H_    0.333593 0.645234 0.548280 0.183172
H16   H     H_    0.221516 0.648411 0.546552 0.197113
H17   H     H_    0.765667 0.186461 0.069798 0.141385
O1    O     O_R   0.448270 0.091610 0.500010 -0.627796
O2    O     O_R   0.908540 0.448310 0.500030 -0.610594
O3    O     O_R   0.938770 0.490290 0.377140 -0.609074
O4    O     O_R   0.938740 0.386860 0.377150 -0.610197
O5    O     O_R   0.091820 0.551690 0.499970 -0.628201
O6    O     O_R   0.091790 0.448250 0.499980 -0.606824
O7    O     O_R   0.061630 0.613140 0.622850 -0.610281
O8    O     O_R   0.061600 0.509710 0.622860 -0.598699
O9    O     O_R   0.626360 0.534710 0.569400 -0.608352
O10   O     O_R   0.557050 0.465350 0.430680 -0.614122
O11   O     O_R   0.534700 0.443070 0.569360 -0.579737
O12   O     O_R   0.551720 0.091610 0.499980 -0.578161
O13   O     O_R   0.465400 0.373710 0.430650 -0.613077
O14   O     O_R   0.443050 0.534650 0.569320 -0.630857
O15   O     O_R   0.373740 0.465290 0.430600 -0.562924
O16   O     O_R   0.534700 0.626290 0.569350 -0.639958
O17   O     O_R   0.465390 0.556930 0.430640 -0.571026
O18   O     O_R   0.509700 0.061430 0.622870 -0.631446
O19   O     O_R   0.613150 0.061430 0.622840 -0.582399
O20   O     O_R   0.448280 0.908390 0.500020 -0.570318
O21   O     O_R   0.551730 0.908390 0.499990 -0.619679
O22   O     O_R   0.386850 0.938570 0.377160 -0.549717
O23   O     O_R   0.490300 0.938570 0.377130 -0.640845
O24   O     O_R   0.908570 0.551750 0.500020 -0.621142
Zn1   Zn    Zn3+2 0.430930 1.000000 0.500020 1.100940
Zn2   Zn    Zn3+2 0.569070 0.000000 0.499980 1.065349
Zn3   Zn    Zn3+2 0.000200 0.569060 0.500000 1.007585
Zn4   Zn    Zn3+2 0.000160 0.430940 0.500000 1.038859
Zn5   Zn    Zn3+2 0.546320 0.546310 0.592620 1.030548
Zn6   Zn    Zn3+2 0.453780 0.453690 0.407380 1.106900
Cl1   Cl    Cl    0.696644 0.381433 0.096509 -0.621254
C69   C     C_3   0.672288 0.254742 0.081019 -0.883244
H18   H     H_    0.660533 0.193756 0.049444 0.193788
H19   H     H_    0.709675 0.281629 0.149752 0.256547
H20   H     H_    0.617569 0.263485 0.066902 0.283096
Cl2   Cl    Cl    0.882584 0.200137 0.103173 -0.507439
Cl3   Cl    Cl    0.651184 0.247344 0.641132 -0.507234
Cl4   Cl    Cl    0.656579 0.387136 0.629819 -0.498924
Cl5   Cl    Cl    0.309327 0.083908 0.306156 -0.428012
C70   C     C_3   0.608036 0.278651 0.911883 -0.726115
H21   H     H_    0.569345 0.292976 0.932325 0.274526
H22   H     H_    0.642095 0.330456 0.930096 0.263418
H23   H     H_    0.572749 0.241184 0.842483 0.225306
C71   C     C_3   0.286546 0.662839 0.070569 -0.694352
H24   H     H_    0.251120 0.620953 0.065706 0.288108
H25   H     H_    0.300867 0.627012 0.026403 0.245955
H26   H     H_    0.336482 0.695759 0.136015 0.249378
C72   C     C_3   0.392276 0.855661 0.073662 -0.805855
H27   H     H_    0.438544 0.850995 0.064359 0.237650
H28   H     H_    0.357541 0.876052 0.035606 0.257696
H29   H     H_    0.418343 0.899670 0.141037 0.272672
C73   C     C_3   0.416279 0.755789 0.093638 -0.728713
H30   H     H_    0.403010 0.701119 0.082738 0.257811
H31   H     H_    0.453528 0.752086 0.071565 0.256566
H32   H     H_    0.450630 0.797111 0.162597 0.221742
Cl6   Cl    Cl    0.311028 0.629912 0.915972 -0.643024
C74   C     C_3   0.318531 0.741480 0.900331 -0.834094
H33   H     H_    0.305624 0.791439 0.902083 0.204743
H34   H     H_    0.378660 0.750020 0.925267 0.260528
H35   H     H_    0.287662 0.695468 0.832913 0.255040
Cl7   Cl    Cl    0.173445 0.848808 0.077406 -0.394463
Cl8   Cl    Cl    0.284842 0.931678 0.098303 -0.529801
C75   C     C_3   0.119507 0.788741 0.902680 -0.622365
H36   H     H_    0.081907 0.752795 0.901801 0.274516
H37   H     H_    0.115522 0.846004 0.931162 0.287330
H38   H     H_    0.099134 0.767633 0.836972 0.245928
Cl9   Cl    Cl    0.189851 0.722392 0.091995 -0.426498
Cl10  Cl    Cl    0.333568 0.568403 0.275588 -0.445617
Cl11  Cl    Cl    0.325501 0.716530 0.283196 -0.459074
Cl12  Cl    Cl    0.326067 0.777063 0.436948 -0.550283
C76   C     C_3   0.749699 0.359778 0.365878 -0.827507
H39   H     H_    0.790797 0.373384 0.354435 0.228473
H40   H     H_    0.761114 0.317113 0.380566 0.251978
H41   H     H_    0.694463 0.335629 0.305975 0.243606
C77   C     C_3   0.627872 0.351646 0.389097 -0.797962
H42   H     H_    0.595512 0.352449 0.415868 0.235519
H43   H     H_    0.589641 0.338942 0.325153 0.248865
H44   H     H_    0.651797 0.305630 0.385136 0.246007
Cl13  Cl    Cl    0.687135 0.657163 0.535760 -0.645117
C78   C     C_3   0.778734 0.676754 0.689102 -0.687158
H45   H     H_    0.817182 0.656106 0.725406 0.251804
H46   H     H_    0.804095 0.737676 0.722959 0.263044
H47   H     H_    0.726276 0.667358 0.685518 0.243247
C79   C     C_3   0.827079 0.662955 0.538079 -0.695807
H48   H     H_    0.879701 0.667922 0.541293 0.256731
H49   H     H_    0.780086 0.622465 0.471861 0.239133
H50   H     H_    0.819680 0.718897 0.559791 0.264431
Cl14  Cl    Cl    0.920815 0.686171 0.693081 -0.627018
Cl15  Cl    Cl    0.249831 0.346466 0.364900 -0.567574
C80   C     C_3   0.277255 0.688487 0.680503 -0.843295
H51   H     H_    0.224103 0.678124 0.675414 0.245695
H52   H     H_    0.318948 0.676648 0.725326 0.253981
H53   H     H_    0.297826 0.748083 0.705206 0.256328
C81   C     C_3   0.822437 0.407275 0.077563 -0.718218
H54   H     H_    0.855227 0.431789 0.063858 0.229603
H55   H     H_    0.766889 0.412670 0.044596 0.266404
H56   H     H_    0.848608 0.442827 0.146235 0.260730
C82   C     C_3   0.901108 0.325108 0.073826 -0.684029
H57   H     H_    0.904960 0.268569 0.042456 0.305656
H58   H     H_    0.923520 0.354522 0.055584 0.227670
H59   H     H_    0.938983 0.353555 0.142775 0.248891
C83   C     C_3   0.691321 0.087365 0.916151 -0.859169
H60   H     H_    0.650956 0.097910 0.934062 0.189339
H61   H     H_    0.659522 0.050898 0.846724 0.256266
H62   H     H_    0.722387 0.055484 0.940770 0.288388
Cl16  Cl    Cl    0.806372 0.127785 0.914612 -0.517056

loop_
_geom_bond_atom_site_label_1
_geom_bond_atom_site_label_2
_ccdc_geom_bond_type
C31   C39   S    
C52   C77   S    
C41   O4    A    
C66   C82   S    
C78   H45   S    
C22   C29   S    
C79   H48   S    
C35   C36   A    
C75   H38   S    
O5    Zn3   S    
O20   Zn1   S    
C3    C6    S    
C33   H9    S    
O14   Zn5   S    
O9    Zn5   S    
C47   O14   A    
C7    C8    T    
C14   C46   S    
C53   C54   A    
C25   C28   S    
C73   H31   S    
C26   C27   S    
C37   C38   S    
O18   Zn1   S    
C18   C24   S    
C34   O22   A    
C40   O2    A    
C76   H39   S    
O1    Zn1   S    
C75   H37   S    
C55   Cl13  S    
C12   O19   A    
C69   H19   S    
C38   C39   S    
C13   Cl4   S    
C40   C50   S    
C24   H5    S    
C38   H11   S    
C15   C16   S    
C23   O20   A    
C58   C63   A    
C49   C57   S    
C42   O6    A    
C61   Cl15  S    
C83   H62   S    
O17   Zn6   S    
C17   Cl5   S    
C43   O8    A    
C7    C68   S    
C21   C43   S    
C2    Cl1   S    
C44   C53   S    
C31   C32   A    
C45   C70   S    
C16   C17   S    
C70   H23   S    
C26   H8    S    
C29   C30   T    
C9    C10   A    
C8    C12   S    
C71   H26   S    
C46   O13   A    
C59   C60   A    
C78   H46   S    
C56   H7    S    
C16   H3    S    
C13   C14   A    
C65   C80   S    
O16   Zn5   S    
C79   H49   S    
C74   H35   S    
O11   Zn5   S    
O15   Zn6   S    
C47   C62   S    
C5    C68   S    
C18   Cl9   S    
C2    C69   S    
C80   H53   S    
C57   C79   S    
O21   Zn2   S    
C2    C45   S    
C73   H32   S    
O4    Zn4   S    
C51   C76   S    
O2    Zn4   S    
C30   C34   S    
C39   Cl11  S    
C45   H1    S    
C51   C52   A    
C77   H44   S    
C20   C74   S    
C19   C22   S    
C16   H2    S    
C75   H36   S    
C5    Cl16  S    
C12   O18   A    
C80   H52   S    
O24   Zn3   S    
O10   Zn6   S    
O7    Zn3   S    
C65   H16   S    
C4    H17   S    
C25   C26   S    
C56   C68   S    
C23   O21   A    
C47   O15   A    
C31   C37   A    
C39   Cl12  S    
C60   C61   A    
C42   O5    A    
C77   H43   S    
C82   H57   S    
C64   H15   S    
C62   C63   A    
C72   H29   S    
C60   H13   S    
C58   C65   S    
C80   H51   S    
O12   Zn2   S    
C19   C73   S    
C48   O17   A    
C45   C68   S    
C14   C15   A    
C50   C51   A    
O8    Zn4   S    
C24   C25   S    
C26   C75   S    
C64   H14   S    
C57   Cl14  S    
C9    C17   S    
C6    C67   T    
C21   C28   T    
C78   H47   S    
C22   C27   S    
C55   C57   S    
C72   H27   S    
C79   H50   S    
C74   H34   S    
C82   H59   S    
C3    C66   S    
C55   C78   S    
C1    O12   A    
C3    C4    S    
C52   C53   A    
C72   H28   S    
C71   H24   S    
C66   C81   S    
C1    O1    A    
C41   O3    A    
C54   C55   S    
C36   C37   A    
C18   C22   S    
C20   Cl6   S    
C76   H41   S    
C1    C10   S    
C4    C5    S    
C42   C59   S    
O19   Zn2   S    
C40   O24   A    
C81   H54   S    
C19   C72   S    
C73   H30   S    
C35   H10   S    
C43   O7    A    
C56   H12   S    
O23   Zn2   S    
O22   Zn1   S    
C34   O23   A    
C32   C33   A    
C81   H56   S    
C19   C20   S    
C82   H58   S    
C2    C3    S    
C58   C59   A    
C83   H60   S    
C44   O10   A    
C69   H18   S    
C23   C32   S    
O3    Zn3   S    
C11   C13   A    
C24   H6    S    
O13   Zn6   S    
C70   H21   S    
C27   Cl7   S    
C56   C66   S    
C48   O16   A    
C64   C65   S    
C76   H40   S    
C33   C35   A    
C69   H20   S    
C4    Cl2   S    
C36   C48   S    
C41   C67   S    
C9    C15   A    
C61   C62   A    
C77   H42   S    
C83   H61   S    
C44   O9    A    
C10   C11   A    
C63   C64   S    
C11   Cl3   S    
O6    Zn4   S    
C46   O11   A    
C17   H4    S    
C27   Cl8   S    
C49   C50   A    
C20   C25   S    
C70   H22   S    
C5    C83   S    
C74   H33   S    
C18   C71   S    
C38   Cl10  S    
C81   H55   S    
C49   C54   A    
C71   H25   S    
