data_mof_unit_50042.cif
_audit_creation_date              2012-12-11T14:52:41-0500
_audit_creation_method            fapswitch 2.2
_symmetry_space_group_name_H-M    P1
_symmetry_Int_Tables_number       1
_space_group_crystal_system       triclinic
_cell_length_a                    18.761988
_cell_length_b                    10.916027
_cell_length_c                    18.748516
_cell_angle_alpha                 90.215003
_cell_angle_beta                  90.74293
_cell_angle_gamma                 89.932312
_cell_volume                      3839.46316986

loop_
_atom_site_label
_atom_site_type_symbol
_atom_type_description
_atom_site_fract_x
_atom_site_fract_y
_atom_site_fract_z
_atom_type_partial_charge
C1    C     C_R   0.271091 0.045485 0.852870 0.533501
C2    C     C_R   0.682048 0.577469 0.030225 -0.144352
C3    C     C_3   0.025742 0.327541 0.065488 0.052684
C4    C     C_3   0.438682 0.028181 0.077095 -0.247803
C5    C     C_3   0.486100 0.139311 0.092159 -0.417040
C6    C     C_3   0.553384 0.047857 0.933184 -0.252639
C7    C     C_3   0.497325 0.137685 0.904580 -0.395973
C8    C     C_3   0.938662 0.528149 0.077096 -0.247693
C9    C     C_3   0.986072 0.639280 0.092172 -0.417109
C10   C     C_3   0.053374 0.547882 0.933216 -0.252584
C11   C     C_3   0.997319 0.637690 0.904598 -0.395889
C12   C     C_R   0.818276 0.078241 0.969934 -0.146741
C13   C     C_R   0.182048 0.077471 0.030226 -0.144506
C14   C     C_R   0.309558 0.549402 0.041844 -0.150474
C15   C     C_R   0.691072 0.547876 0.958388 -0.151726
C16   C     C_R   0.809551 0.049379 0.041844 -0.150747
C17   C     C_R   0.191074 0.047875 0.958389 -0.151793
C18   C     C_R   0.251989 0.598508 0.079445 0.031654
C19   C     C_R   0.747474 0.599353 0.920427 0.030371
C20   C     C_R   0.751987 0.098499 0.079446 0.031184
C21   C     C_R   0.728856 0.045209 0.147098 0.534851
C22   C     C_R   0.247477 0.099349 0.920429 0.030420
C23   C     C_R   0.208531 0.687345 0.046729 -0.141859
C24   C     C_R   0.789257 0.691147 0.952706 -0.142348
C25   C     C_R   0.708531 0.187343 0.046732 -0.141921
C26   C     C_R   0.289262 0.191140 0.952708 -0.142190
C27   C     C_R   0.217052 0.715626 0.975480 -0.154654
C28   C     C_R   0.780667 0.719768 0.024095 -0.156731
C29   C     C_R   0.717052 0.215618 0.975482 -0.154538
C30   C     C_R   0.280669 0.219767 0.024096 -0.156638
C31   C     C_R   0.269830 0.657731 0.935596 0.014993
C32   C     C_R   0.771090 0.545488 0.852869 0.533064
C33   C     C_R   0.729337 0.659359 0.064322 0.013052
C34   C     C_R   0.769825 0.157709 0.935598 0.015693
C35   C     C_R   0.229337 0.159361 0.064323 0.013101
C36   C     C_R   0.472620 0.721817 0.528863 -0.123784
C37   C     C_R   0.477694 0.725315 0.455975 -0.129944
C38   C     C_R   0.974092 0.222355 0.529425 -0.125619
C39   C     C_R   0.978731 0.226360 0.456582 -0.133973
C40   C     C_R   0.497805 0.833796 0.422538 0.030308
C41   C     C_R   0.483736 0.828303 0.569768 0.034392
C42   C     C_R   0.000001 0.334312 0.423445 0.029625
C43   C     C_R   0.228856 0.545211 0.147097 0.531941
C44   C     C_R   0.985989 0.328223 0.570633 0.034472
C45   C     C_R   0.504630 0.942620 0.462274 -0.131895
C46   C     C_R   0.497381 0.939944 0.536007 -0.135212
C47   C     C_R   0.009697 0.442158 0.463710 -0.129207
C48   C     C_R   0.001910 0.439315 0.537381 -0.133540
C49   C     C_R   0.445651 0.818836 0.863029 0.543122
C50   C     C_R   0.556235 0.817988 0.137026 0.537959
C51   C     C_R   0.945657 0.318837 0.863028 0.543154
C52   C     C_R   0.056231 0.317988 0.137026 0.538158
C53   C     C_R   0.207920 0.686901 0.526040 -0.127218
C54   C     C_3   0.528190 0.731924 0.964685 -0.127779
C55   C     C_R   0.787152 0.694739 0.475288 -0.122429
C56   C     C_R   0.682768 0.104724 0.542227 -0.135486
C57   C     C_R   0.292279 0.186383 0.474144 -0.124934
C58   C     C_R   0.208347 0.680664 0.453327 -0.137075
C59   C     C_R   0.787421 0.684608 0.547958 -0.133614
C60   C     C_R   0.679684 0.105533 0.469531 -0.128135
C61   C     C_R   0.291986 0.179721 0.546843 -0.134026
C62   C     C_R   0.252866 0.596229 0.420343 0.034915
C63   C     C_R   0.747042 0.592881 0.579128 0.031994
C64   C     C_R   0.738982 0.068549 0.430001 0.040988
C65   C     C_3   0.481008 0.724920 0.031198 -0.127362
C66   C     C_R   0.247431 0.095428 0.579497 0.034428
C67   C     C_R   0.305197 0.532619 0.459658 -0.137994
C68   C     C_R   0.698564 0.522822 0.538284 -0.128893
C69   C     C_R   0.801592 0.029936 0.464386 -0.146074
C70   C     C_R   0.195053 0.032239 0.539906 -0.131767
C71   C     C_R   0.306311 0.541764 0.533186 -0.145537
C72   C     C_R   0.697080 0.535031 0.465037 -0.136932
C73   C     C_R   0.805679 0.034273 0.538008 -0.141938
C74   C     C_R   0.193669 0.042078 0.466414 -0.137140
C75   C     C_R   0.255755 0.615561 0.566580 0.040066
C76   C     C_3   0.028202 0.231934 0.964682 -0.127776
C77   C     C_R   0.743713 0.617379 0.433359 0.037684
C78   C     C_R   0.747305 0.078360 0.576471 0.034185
C79   C     C_R   0.244307 0.115610 0.433296 0.038794
C80   C     C_R   0.274354 0.685427 0.859306 0.548725
C81   C     C_R   0.725373 0.685975 0.140886 0.548328
C82   C     C_R   0.774351 0.185415 0.859312 0.547660
C83   C     C_R   0.225372 0.185978 0.140887 0.548525
C84   C     C_R   0.269815 0.048992 0.647663 0.555338
C85   C     C_R   0.727369 0.043317 0.355669 0.553596
C86   C     C_R   0.769892 0.548320 0.647444 0.555922
C87   C     C_3   0.981017 0.224907 0.031191 -0.127313
C88   C     C_R   0.230283 0.549427 0.352205 0.554773
C89   C     C_R   0.466995 0.822849 0.644980 0.558348
C90   C     C_R   0.528431 0.824187 0.352156 0.557135
C91   C     C_R   0.967851 0.322914 0.645457 0.559629
C92   C     C_R   0.028963 0.324264 0.352471 0.558786
C93   C     C_R   0.261077 0.641142 0.641550 0.560039
C94   C     C_R   0.738776 0.642033 0.358506 0.561395
C95   C     C_R   0.758949 0.132300 0.645415 0.561112
C96   C     C_R   0.238911 0.141448 0.358427 0.561250
C97   C     C_3   0.475768 0.926134 0.034963 0.035013
C98   C     C_R   0.318284 0.578272 0.969936 -0.146720
C99   C     C_3   0.521944 0.933160 0.967716 0.042760
C100  C     C_3   0.975757 0.426117 0.034964 0.034939
C101  C     C_3   0.021937 0.433167 0.967724 0.042644
C102  C     C_3   0.430453 0.823213 0.000023 -0.154740
C103  C     C_3   0.573099 0.835177 0.999453 -0.153322
C104  C     C_3   0.930456 0.323189 0.000016 -0.154618
C105  C     C_3   0.073098 0.335193 0.999460 -0.153253
C106  C     C_3   0.477706 0.829550 0.933774 0.057621
C107  C     C_3   0.525747 0.827546 0.065486 0.052668
C108  C     C_3   0.977713 0.329551 0.933772 0.057690
Cr1   Cr    Cr6+3 0.229630 0.835900 0.747350 1.000423
Cr2   Cr    Cr6+3 0.614200 0.677120 0.250660 1.008819
Cr3   Cr    Cr6+3 0.885800 0.177120 0.749340 1.004583
Cr4   Cr    Cr6+3 0.114200 0.177120 0.250660 1.007862
Cr5   Cr    Cr6+3 0.770370 0.835900 0.252650 0.999984
Cr6   Cr    Cr6+3 0.729630 0.335900 0.747350 1.001115
Cr7   Cr    Cr6+3 0.270370 0.335900 0.252650 0.998140
Cr8   Cr    Cr6+3 0.387410 0.989850 0.750850 0.992138
Cr9   Cr    Cr6+3 0.612590 0.989850 0.249150 0.994898
Cr10  Cr    Cr6+3 0.887410 0.489850 0.750850 0.994836
Cr11  Cr    Cr6+3 0.112590 0.489850 0.249150 0.996394
Cr12  Cr    Cr6+3 0.385800 0.677120 0.749340 1.006425
H1    H     H_    0.371351 0.820731 0.999422 0.113400
H2    H     H_    0.823785 0.741228 0.579062 0.127230
H3    H     H_    0.629808 0.132765 0.444630 0.128030
H4    H     H_    0.331384 0.231987 0.576815 0.125615
H5    H     H_    0.341471 0.469320 0.434266 0.118290
H6    H     H_    0.666115 0.452179 0.562014 0.135916
H7    H     H_    0.846799 0.996719 0.434557 0.111735
H8    H     H_    0.158812 0.969048 0.565030 0.121570
H9    H     H_    0.345636 0.490645 0.563709 0.111270
H10   H     H_    0.661026 0.478952 0.433297 0.123355
H11   H     H_    0.855511 0.010753 0.564297 0.116763
H12   H     H_    0.632167 0.841035 0.000417 0.114295
H13   H     H_    0.154107 0.991598 0.435694 0.118465
H14   H     H_    0.549796 0.652213 0.935074 0.135218
H15   H     H_    0.463881 0.639177 0.057575 0.131529
H16   H     H_    0.049816 0.152235 0.935068 0.135279
H17   H     H_    0.963895 0.139158 0.057563 0.131636
H18   H     H_    0.361600 0.536267 0.941059 0.130269
H19   H     H_    0.639775 0.533419 0.059347 0.130291
H20   H     H_    0.861587 0.036226 0.941055 0.130350
H21   H     H_    0.139774 0.033424 0.059348 0.130197
H22   H     H_    0.345800 0.485209 0.067015 0.110851
H23   H     H_    0.871354 0.320686 0.999408 0.113549
H24   H     H_    0.656035 0.481253 0.933544 0.110966
H25   H     H_    0.845791 0.985182 0.067015 0.110837
H26   H     H_    0.156036 0.981254 0.933545 0.110976
H27   H     H_    0.164654 0.729522 0.074716 0.127110
H28   H     H_    0.831746 0.735696 0.924151 0.127902
H29   H     H_    0.664658 0.229530 0.074723 0.127324
H30   H     H_    0.331754 0.235681 0.924156 0.128042
H31   H     H_    0.180057 0.778831 0.950720 0.123415
H32   H     H_    0.816635 0.784895 0.048764 0.125821
H33   H     H_    0.680062 0.278833 0.950724 0.123538
H34   H     H_    0.132165 0.341065 0.000431 0.114490
H35   H     H_    0.316637 0.284894 0.048766 0.125924
H36   H     H_    0.458851 0.635016 0.552823 0.134358
H37   H     H_    0.470644 0.640579 0.426404 0.128837
H38   H     H_    0.959770 0.135723 0.553111 0.129702
H39   H     H_    0.970335 0.142254 0.426738 0.125766
H40   H     H_    0.518919 0.027866 0.436954 0.120246
H41   H     H_    0.503065 0.023980 0.566452 0.117633
H42   H     H_    0.026672 0.526558 0.438954 0.133916
H43   H     H_    0.009059 0.522637 0.568198 0.124226
H44   H     H_    0.541710 0.111905 0.104545 0.193191
H45   H     H_    0.170082 0.748911 0.550154 0.129742
H46   H     H_    0.486271 0.201674 0.045723 0.123639
H47   H     H_    0.464785 0.191415 0.138195 0.141439
H48   H     H_    0.390797 0.058399 0.046770 0.148249
H49   H     H_    0.420188 0.989536 0.128356 0.173076
H50   H     H_    0.491094 0.127996 0.845933 0.179045
H51   H     H_    0.444910 0.123348 0.929830 0.166681
H52   H     H_    0.514837 0.233234 0.915348 0.104973
H53   H     H_    0.586313 0.094963 0.974318 0.141127
H54   H     H_    0.589346 0.019973 0.889373 0.165712
H55   H     H_    0.041695 0.611890 0.104486 0.193137
H56   H     H_    0.821117 0.763788 0.452196 0.137874
H57   H     H_    0.986178 0.701713 0.045768 0.123587
H58   H     H_    0.964795 0.691306 0.138253 0.141520
H59   H     H_    0.890782 0.558364 0.046766 0.148295
H60   H     H_    0.920162 0.489494 0.128349 0.173413
H61   H     H_    0.991090 0.627984 0.845957 0.179451
H62   H     H_    0.944907 0.623359 0.929843 0.166560
H63   H     H_    0.014828 0.733229 0.915358 0.105019
H64   H     H_    0.086278 0.594995 0.974364 0.141125
H65   H     H_    0.089357 0.520026 0.889421 0.166387
H66   H     H_    0.636539 0.136244 0.571186 0.123914
H67   H     H_    0.330049 0.248371 0.450290 0.130449
H68   H     H_    0.168978 0.733122 0.423567 0.124084
O1    O     O_R   0.214270 0.709000 0.827470 -0.517058
O2    O     O_R   0.543270 0.717630 0.330160 -0.519291
O3    O     O_R   0.956730 0.217630 0.669840 -0.523944
O4    O     O_R   0.043270 0.217630 0.330160 -0.519688
O5    O     O_R   0.320620 0.625640 0.672920 -0.502097
O6    O     O_R   0.679380 0.625640 0.327080 -0.496824
O7    O     O_R   0.820620 0.125640 0.672920 -0.504183
O8    O     O_R   0.179380 0.125640 0.327080 -0.497952
O9    O     O_3   0.334280 0.834290 0.749180 -0.272563
O10   O     O_3   0.665720 0.834290 0.250820 -0.274563
O11   O     O_3   0.834280 0.334290 0.749180 -0.270599
O12   O     O_R   0.785730 0.709000 0.172530 -0.517496
O13   O     O_3   0.165720 0.334290 0.250820 -0.272706
O14   O     O_R   0.236160 0.958490 0.823130 -0.522008
O15   O     O_R   0.763840 0.958490 0.176870 -0.521509
O16   O     O_R   0.736160 0.458490 0.823130 -0.522100
O17   O     O_R   0.263840 0.458490 0.176870 -0.523073
O18   O     O_R   0.332080 0.075470 0.831280 -0.538813
O19   O     O_R   0.667920 0.075470 0.168720 -0.539935
O20   O     O_R   0.832080 0.575470 0.831280 -0.539218
O21   O     O_R   0.167920 0.575470 0.168720 -0.542009
O22   O     O_R   0.446300 0.918110 0.826620 -0.505041
O23   O     O_R   0.714270 0.209000 0.827470 -0.520108
O24   O     O_R   0.553700 0.918110 0.173380 -0.507412
O25   O     O_R   0.946300 0.418110 0.826620 -0.505275
O26   O     O_R   0.053700 0.418110 0.173380 -0.507317
O27   O     O_R   0.457110 0.716200 0.831760 -0.527281
O28   O     O_R   0.542890 0.716200 0.168240 -0.528054
O29   O     O_R   0.957110 0.216200 0.831760 -0.527389
O30   O     O_R   0.042890 0.216200 0.168240 -0.527887
O31   O     O_R   0.320980 0.624310 0.823030 -0.510209
O32   O     O_R   0.679020 0.624310 0.176970 -0.510659
O33   O     O_R   0.820980 0.124310 0.823030 -0.512696
O34   O     O_R   0.285730 0.209000 0.172530 -0.517719
O35   O     O_R   0.179020 0.124310 0.176970 -0.511301
O36   O     O_R   0.213890 0.710430 0.665540 -0.525414
O37   O     O_R   0.786110 0.710430 0.334460 -0.525009
O38   O     O_R   0.713890 0.210430 0.665540 -0.522299
O39   O     O_R   0.286110 0.210430 0.334460 -0.525380
O40   O     O_R   0.235810 0.959820 0.673020 -0.507078
O41   O     O_R   0.764190 0.959820 0.326980 -0.505502
O42   O     O_R   0.735810 0.459820 0.673020 -0.504151
O43   O     O_R   0.264190 0.459820 0.326980 -0.507143
O44   O     O_R   0.331700 0.076900 0.669350 -0.522461
O45   O     O_R   0.445950 0.919440 0.676520 -0.497024
O46   O     O_R   0.668300 0.076900 0.330650 -0.526628
O47   O     O_R   0.831700 0.576900 0.669350 -0.520894
O48   O     O_R   0.168300 0.576900 0.330650 -0.522876
O49   O     O_R   0.554050 0.919440 0.323480 -0.500593
O50   O     O_R   0.945950 0.419440 0.676520 -0.495375
O51   O     O_R   0.054050 0.419440 0.323480 -0.497450
O52   O     O_R   0.456730 0.717630 0.669840 -0.523626

loop_
_geom_bond_atom_site_label_1
_geom_bond_atom_site_label_2
_ccdc_geom_bond_type
C58   C62   A    
C99   C103  S    
C73   H11   S    
C92   O51   A    
Cr3   O3    S    
C76   C105  S    
C53   C58   A    
C55   C59   A    
C43   O17   A    
C10   H64   S    
C80   O1    A    
C57   C79   A    
Cr7   O34   S    
Cr1   O9    S    
C11   H61   S    
Cr10  O25   S    
C80   O31   A    
C14   H22   S    
C76   H16   S    
C92   O4    A    
C31   C80   S    
C82   O33   A    
C45   C46   A    
C3    C105  S    
Cr12  O27   S    
C15   C19   A    
C45   H40   S    
C36   H36   S    
C62   C67   A    
C98   H18   S    
C58   H68   S    
C2    H19   S    
C65   C102  S    
Cr1   O14   S    
C87   H17   S    
C13   C35   A    
C37   C40   A    
C7    H51   S    
C67   H5    S    
C38   C39   A    
C55   C77   A    
C67   C71   A    
C71   H9    S    
C20   C25   A    
Cr10  O11   S    
C37   H37   S    
C54   H14   S    
C74   H13   S    
C77   C94   S    
C100  C104  S    
C10   H65   S    
C56   C78   A    
C84   O44   A    
C25   H29   S    
Cr3   O33   S    
C31   C98   A    
C89   O45   A    
C14   C18   A    
Cr4   O8    S    
Cr8   O22   S    
C94   O37   A    
Cr3   O11   S    
C47   H42   S    
C3    C100  S    
C6    C7    S    
C12   C16   A    
Cr1   O1    S    
C51   C108  S    
C46   H41   S    
Cr11  O13   S    
Cr8   O45   S    
C70   C74   A    
C95   O7    A    
C41   C46   A    
C12   H20   S    
C69   C73   A    
C13   H21   S    
C32   O20   A    
C102  H1    S    
Cr2   O32   S    
C103  H12   S    
Cr7   O43   S    
C97   C102  S    
C90   O49   A    
C16   C20   A    
Cr10  O20   S    
C83   O35   A    
Cr10  O50   S    
C101  C108  S    
Cr5   O15   S    
C105  H34   S    
Cr9   O49   S    
C1    C22   S    
C76   C108  S    
Cr2   O6    S    
C7    H52   S    
Cr8   O44   S    
C25   C29   A    
Cr2   O10   S    
C83   O34   A    
C89   O52   A    
C36   C41   A    
C53   C75   A    
C11   H62   S    
Cr4   O13   S    
C81   O12   A    
Cr5   O41   S    
C1    O14   A    
Cr10  O47   S    
C54   C65   S    
C97   C99   S    
Cr1   O40   S    
C9    H55   S    
C38   C44   A    
C14   C98   A    
C39   C42   A    
C10   C101  S    
C101  C105  S    
C40   C45   A    
C88   O48   A    
Cr11  O21   S    
C4    H49   S    
C54   C106  S    
C3    C87   S    
C18   C23   A    
C86   O42   A    
C96   O39   A    
C54   C103  S    
C26   H30   S    
C11   H63   S    
C38   H38   S    
C24   H28   S    
C48   H43   S    
C35   C83   S    
C8    C9    S    
C6    H54   S    
C5    H46   S    
C73   C78   A    
C62   C88   S    
C29   C34   A    
Cr2   O2    S    
C51   O29   A    
C85   O46   A    
C16   H25   S    
Cr6   O23   S    
C49   O22   A    
C60   H3    S    
Cr2   O28   S    
C5    H44   S    
Cr7   O39   S    
C72   C77   A    
C2    C15   A    
C32   O16   A    
Cr6   O38   S    
C8    H60   S    
Cr5   O37   S    
C47   C48   A    
C50   O28   A    
C78   C95   S    
C68   C72   A    
C86   O47   A    
C19   C32   S    
C52   O26   A    
Cr12  O9    S    
C104  H23   S    
C85   O41   A    
C64   C69   A    
C57   C61   A    
C1    O18   A    
C44   C91   S    
C76   C87   S    
C65   H15   S    
Cr1   O36   S    
Cr4   O4    S    
C50   O24   A    
C30   C35   A    
C2    C33   A    
C53   H45   S    
C30   H35   S    
Cr12  O52   S    
C28   C33   A    
C28   H32   S    
C23   C27   A    
Cr6   O11   S    
Cr7   O17   S    
C27   C31   A    
C50   C107  S    
Cr4   O35   S    
Cr6   O16   S    
C17   H26   S    
C12   C34   A    
C21   O15   A    
C84   O40   A    
C68   H6    S    
C64   C85   S    
C104  C108  S    
C9    H57   S    
C15   H24   S    
C75   C93   S    
C29   H33   S    
C82   O23   A    
C90   O2    A    
Cr5   O10   S    
C70   H8    S    
C99   C106  S    
C63   C68   A    
C36   C37   A    
C27   H31   S    
C61   C66   A    
C39   H39   S    
C41   C89   S    
C94   O6    A    
C4    H48   S    
C52   O30   A    
Cr9   O24   S    
C93   O5    A    
C24   C28   A    
Cr12  O5    S    
C56   H66   S    
C4    C5    S    
Cr9   O19   S    
Cr6   O42   S    
C3    C52   S    
C72   H10   S    
C49   C106  S    
C6    H53   S    
Cr3   O29   S    
C49   O27   A    
C59   C63   A    
C17   C22   A    
C13   C17   A    
C60   C64   A    
C6    C99   S    
C21   O19   A    
C19   C24   A    
C8    C100  S    
C95   O38   A    
C79   C96   S    
C63   C86   S    
C18   C43   S    
C71   C75   A    
Cr8   O9    S    
C81   O32   A    
C8    H59   S    
Cr11  O51   S    
C66   C70   A    
C23   H27   S    
Cr9   O46   S    
C59   H2    S    
Cr12  O31   S    
Cr7   O13   S    
C91   O50   A    
C100  C101  S    
C74   C79   A    
Cr5   O12   S    
C102  C106  S    
C93   O36   A    
C42   C92   S    
C42   C47   A    
C5    H47   S    
C91   O3    A    
C61   H4    S    
C43   O21   A    
C55   H56   S    
C57   H67   S    
C10   C11   S    
C9    H58   S    
C66   C84   S    
C87   C104  S    
C97   C107  S    
C56   C60   A    
Cr11  O48   S    
C96   O8    A    
C88   O43   A    
C20   C21   S    
C69   H7    S    
Cr11  O26   S    
C22   C26   A    
C7    H50   S    
Cr4   O30   S    
C51   O25   A    
C103  C107  S    
C34   C82   S    
C40   C90   S    
C4    C97   S    
C33   C81   S    
C65   C107  S    
Cr8   O18   S    
Cr9   O10   S    
C44   C48   A    
Cr3   O7    S    
C26   C30   A    
