data_mof_unit_51871.cif
_audit_creation_date              2012-12-11T14:13:04-0500
_audit_creation_method            fapswitch 2.2
_symmetry_space_group_name_H-M    P1
_symmetry_Int_Tables_number       1
_space_group_crystal_system       triclinic
_cell_length_a                    11.930509
_cell_length_b                    18.501083
_cell_length_c                    10.308822
_cell_angle_alpha                 90.000436
_cell_angle_beta                  111.250048
_cell_angle_gamma                 89.999777
_cell_volume                      2120.72620481

loop_
_atom_site_label
_atom_site_type_symbol
_atom_type_description
_atom_site_fract_x
_atom_site_fract_y
_atom_site_fract_z
_atom_type_partial_charge
C1    C     C_R   0.117363 0.637339 0.153350 0.525679
C2    C     C_2   0.594879 0.076910 0.080636 -0.130799
C3    C     C_2   0.605717 0.431697 0.052308 -0.104788
C4    C     C_2   0.405115 0.576905 0.919382 -0.130759
C5    C     C_2   0.480610 0.969095 0.040937 -0.154540
C6    C     C_2   0.489275 0.046012 0.019009 -0.168528
C7    C     C_2   0.519334 0.469072 0.959155 -0.154546
C8    C     C_2   0.510686 0.545991 0.981072 -0.168401
C9    C     C_2   0.033047 0.930976 0.114100 0.315443
C10   C     C_2   0.929949 0.063150 0.875186 0.293511
C11   C     C_2   0.966952 0.430975 0.885903 0.315471
C12   C     C_R   0.921604 0.355872 0.859174 0.556077
C13   C     C_2   0.070033 0.563154 0.124805 0.293543
C14   C     C_2   0.935542 0.945649 0.999082 -0.075969
C15   C     C_2   0.889757 0.019465 0.954167 -0.074288
C16   C     C_2   0.064449 0.445649 0.000927 -0.075969
C17   C     C_2   0.110235 0.519465 0.045837 -0.074386
C18   C     C_R   0.468460 0.644826 0.434357 0.502863
C19   C     C_R   0.525620 0.349982 0.554433 0.557102
C20   C     C_R   0.531541 0.144826 0.565643 0.502856
C21   C     C_R   0.474381 0.849982 0.445567 0.557102
C22   C     C_R   0.375997 0.645933 0.964063 0.518958
C23   C     C_R   0.882625 0.137338 0.846645 0.525664
C24   C     C_R   0.627005 0.356893 0.029190 0.561312
C25   C     C_R   0.624002 0.145933 0.035938 0.518919
C26   C     C_R   0.372989 0.856899 0.970825 0.561338
C27   C     C_R   0.479895 0.416094 0.470406 -0.016206
C28   C     C_R   0.494008 0.568260 0.480070 0.003669
C29   C     C_R   0.520110 0.916093 0.529597 -0.016204
C30   C     C_R   0.505998 0.068260 0.519934 0.003576
C31   C     C_R   0.291055 0.424468 0.514450 -0.113129
C32   C     C_R   0.678214 0.554880 0.417336 -0.084449
C33   C     C_R   0.708942 0.924462 0.485539 -0.113106
C34   C     C_R   0.078394 0.855872 0.140827 0.556099
C35   C     C_R   0.321796 0.054880 0.582677 -0.084372
C36   C     C_R   0.217324 0.464056 0.565159 -0.050294
C37   C     C_R   0.757946 0.509694 0.385619 -0.048815
C38   C     C_R   0.782670 0.964045 0.434816 -0.050290
C39   C     C_R   0.242066 0.009693 0.614396 -0.048821
C40   C     C_R   0.235365 0.537575 0.590943 0.199027
C41   C     C_R   0.741571 0.435665 0.378285 0.268530
C42   C     C_R   0.764637 0.037567 0.409047 0.198993
C43   C     C_R   0.258447 0.935665 0.621733 0.268502
C44   C     C_R   0.337979 0.568906 0.582228 -0.101996
C45   C     C_R   0.391532 0.457111 0.498108 -0.001248
C46   C     C_R   0.631297 0.408971 0.368233 -0.099045
C47   C     C_R   0.662030 0.068903 0.417778 -0.102024
C48   C     C_R   0.368720 0.908972 0.631785 -0.099051
C49   C     C_R   0.408814 0.531802 0.521107 -0.014626
C50   C     C_R   0.557195 0.450790 0.417532 -0.024755
C51   C     C_R   0.591194 0.031800 0.478899 -0.014659
C52   C     C_R   0.442816 0.950790 0.582477 -0.024746
C53   C     C_R   0.575165 0.526128 0.436305 0.034571
C54   C     C_R   0.608473 0.957109 0.501895 -0.001244
C55   C     C_R   0.424843 0.026127 0.563702 0.034546
C56   C     C_2   0.394270 0.931710 0.947734 -0.104776
Cr1   Cr    Cr6+3 0.187610 0.750000 0.979860 1.179516
Cr2   Cr    Cr6+3 0.812390 0.250000 0.020140 1.179693
Cr3   Cr    Cr6+3 0.245810 0.750000 0.341640 1.103341
Cr4   Cr    Cr6+3 0.754190 0.250000 0.658360 1.103318
Cr5   Cr    Cr6+3 0.485760 0.750000 0.219910 1.026212
Cr6   Cr    Cr6+3 0.514240 0.250000 0.780090 1.026209
H1    H     H_    0.147151 0.436995 0.585434 0.219131
H2    H     H_    0.612117 0.352305 0.343484 0.143868
H3    H     H_    0.634463 0.121610 0.374523 0.109272
H4    H     H_    0.387901 0.852305 0.656528 0.143877
H5    H     H_    0.415353 0.074639 0.941625 0.174118
H6    H     H_    0.547111 0.942980 0.130568 0.171123
H7    H     H_    0.584596 0.574610 0.058482 0.174158
H8    H     H_    0.452805 0.442951 0.869558 0.171097
H9    H     H_    0.667463 0.044437 0.147524 0.144120
H10   H     H_    0.327093 0.960821 0.867222 0.134587
H11   H     H_    0.332543 0.544443 0.852458 0.144121
H12   H     H_    0.837816 0.531152 0.379797 0.260191
H13   H     H_    0.672920 0.460813 0.132785 0.134615
H14   H     H_    0.815512 0.037714 0.982952 0.109799
H15   H     H_    0.883188 0.901149 0.937884 0.086721
H16   H     H_    0.184485 0.537711 0.017059 0.109801
H17   H     H_    0.116797 0.401150 0.062134 0.086747
H18   H     H_    0.239379 0.684770 0.665014 0.333960
H19   H     H_    0.896672 0.273214 0.522206 0.398389
H20   H     H_    0.760639 0.184763 0.334996 0.333935
H21   H     H_    0.103345 0.773213 0.477785 0.398380
H22   H     H_    0.211180 0.015176 0.974931 0.370820
H23   H     H_    0.852835 0.936976 0.414518 0.219076
H24   H     H_    0.183588 0.110191 0.197094 0.360921
H25   H     H_    0.788785 0.515201 0.025035 0.371016
H26   H     H_    0.817225 0.610423 0.802292 0.361113
H27   H     H_    0.162195 0.031149 0.620219 0.260190
H28   H     H_    0.269131 0.368198 0.488476 0.162220
H29   H     H_    0.708896 0.609619 0.444252 0.186749
H30   H     H_    0.730863 0.868192 0.511508 0.162189
H31   H     H_    0.291110 0.109617 0.555759 0.186862
H32   H     H_    0.365551 0.621611 0.625489 0.109295
O1    O     O_R   0.267710 0.668200 0.902110 -0.453707
O2    O     O_R   0.883280 0.330790 0.732340 -0.444133
O3    O     O_R   0.883280 0.169210 0.732340 -0.452719
O4    O     O_R   0.116720 0.830790 0.267660 -0.444119
O5    O     O_R   0.366710 0.675440 0.427590 -0.523561
O6    O     O_R   0.633290 0.324560 0.572410 -0.450010
O7    O     O_R   0.633290 0.175440 0.572410 -0.523568
O8    O     O_R   0.366710 0.824560 0.427590 -0.449972
O9    O     O_R   0.534870 0.669390 0.371760 -0.535176
O10   O     O_R   0.465130 0.330610 0.628240 -0.527359
O11   O     O_R   0.465130 0.169390 0.628240 -0.535152
O12   O     O_R   0.732290 0.331800 0.097890 -0.422133
O13   O     O_R   0.534870 0.830610 0.371760 -0.527393
O14   O     O_R   0.453080 0.674480 0.075160 -0.510356
O15   O     O_R   0.546920 0.325520 0.924840 -0.512107
O16   O     O_R   0.546920 0.174480 0.924840 -0.510370
O17   O     O_R   0.453080 0.825520 0.075160 -0.512100
O18   O     O_3   0.306390 0.750000 0.180470 -0.314209
O19   O     O_3   0.693610 0.250000 0.819530 -0.314237
O20   O     O_2   0.009919 0.581826 0.515044 -0.174468
O21   O     O_2   0.115703 0.559702 0.760915 -0.262992
O22   O     O_3   0.153672 0.677610 0.648564 -0.451022
O23   O     O_R   0.732290 0.168200 0.097890 -0.453704
O24   O     O_2   0.915001 0.368834 0.308583 -0.189792
O25   O     O_2   0.959788 0.403986 0.549871 -0.271536
O26   O     O_3   0.821327 0.295956 0.459444 -0.514730
O27   O     O_2   0.990088 0.081811 0.484949 -0.174369
O28   O     O_2   0.884304 0.059689 0.239078 -0.262881
O29   O     O_3   0.846344 0.177600 0.351436 -0.450951
O30   O     O_2   0.084997 0.868837 0.691391 -0.189808
O31   O     O_2   0.040248 0.903995 0.450103 -0.271552
O32   O     O_3   0.178696 0.795957 0.540546 -0.514707
O33   O     O_2   0.979168 0.994848 0.680686 -0.234469
O34   O     O_R   0.267710 0.831800 0.902110 -0.422123
O35   O     O_2   0.101559 0.101886 0.781057 -0.299146
O36   O     O_3   0.144773 0.982307 0.922485 -0.492127
O37   O     O_2   0.105879 0.013131 0.340240 -0.194958
O38   O     O_2   0.260030 0.972398 0.254597 -0.320183
O39   O     O_3   0.121786 0.078938 0.130628 -0.507087
O40   O     O_2   0.020793 0.494850 0.319279 -0.234506
O41   O     O_2   0.898425 0.601898 0.218931 -0.299067
O42   O     O_3   0.855189 0.482327 0.077471 -0.492087
O43   O     O_2   0.894165 0.513105 0.659757 -0.195414
O44   O     O_2   0.739974 0.472411 0.745370 -0.319752
O45   O     O_R   0.099480 0.674460 0.038850 -0.469664
O46   O     O_3   0.878228 0.578942 0.869338 -0.507164
O47   O     O_R   0.900520 0.325540 0.961150 -0.480383
O48   O     O_R   0.900520 0.174460 0.961150 -0.469479
O49   O     O_R   0.099480 0.825540 0.038850 -0.480388
O50   O     O_R   0.116720 0.669210 0.267660 -0.452715
S1    S     S_3+6 0.127585 0.588927 0.631104 0.068967
S2    S     S_3+6 0.864267 0.376375 0.421336 0.078950
S3    S     S_3+6 0.872422 0.088916 0.368889 0.069123
S4    S     S_3+6 0.135751 0.876377 0.578653 0.078928
S5    S     S_3+6 0.041143 0.036130 0.811577 0.047322
S6    S     S_3+6 0.132941 0.999360 0.212746 0.063824
S7    S     S_3+6 0.958829 0.536140 0.188398 0.047439
S8    S     S_3+6 0.867072 0.499357 0.787238 0.063781

loop_
_geom_bond_atom_site_label_1
_geom_bond_atom_site_label_2
_ccdc_geom_bond_type
C44   C49   A    
C37   H12   S    
O26   S2    S    
Cr3   O5    S    
C22   O1    A    
C32   C53   A    
C5    C56   D    
C4    C8    D    
C7    H8    S    
C3    C24   S    
C7    C8    S    
Cr6   O11   S    
C20   C30   S    
O25   S2    D    
O30   S4    D    
H19   O26   S    
C8    H7    S    
C40   S1    S    
Cr5   O9    S    
C30   C51   A    
C38   C42   A    
C48   C52   A    
C3    C7    D    
C10   C15   D    
C10   S5    S    
C5    C6    S    
C22   O14   A    
C32   H29   S    
C29   C54   A    
O38   S6    D    
C12   O47   A    
Cr1   O45   S    
C28   C49   A    
C14   H15   S    
Cr5   O14   S    
H26   O46   S    
C43   S4    S    
C41   S2    S    
H18   O22   S    
C16   C17   S    
C56   H10   S    
Cr2   O19   S    
C41   C46   A    
O27   S3    D    
C23   O48   A    
C45   C49   A    
C36   H1    S    
C3    H13   S    
C43   C48   A    
O46   S8    S    
C1    O45   A    
C27   C50   A    
C18   O9    A    
C27   C45   A    
C15   H14   S    
Cr4   O19   S    
C2    C6    D    
Cr1   O34   S    
C5    H6    S    
C42   S3    S    
Cr6   O10   S    
C35   H31   S    
C34   O49   A    
C9    S6    S    
C50   C53   A    
C24   O15   A    
C38   H23   S    
C35   C55   A    
C11   C12   S    
C36   C40   A    
C18   C28   S    
C13   S7    S    
Cr6   O19   S    
Cr4   O3    S    
C33   H30   S    
O32   S4    S    
C39   C43   A    
C20   O7    A    
O44   S8    D    
O28   S3    D    
C21   C29   S    
Cr2   O23   S    
C25   O23   A    
Cr2   O12   S    
C35   C39   A    
C9    C14   D    
O35   S5    D    
C4    C22   S    
C19   O10   A    
Cr2   O48   S    
H24   O39   S    
Cr6   O16   S    
O24   S2    D    
C28   C53   A    
C31   H28   S    
O36   S5    S    
Cr3   O18   S    
O43   S8    D    
C26   O34   A    
C32   C37   A    
C4    H11   S    
C21   O13   A    
C25   O16   A    
C21   O8    A    
Cr4   O2    S    
C6    H5    S    
C23   O3    A    
O29   S3    S    
Cr3   O50   S    
Cr1   O1    S    
C9    C34   S    
C24   O12   A    
C18   O5    A    
H21   O32   S    
C2    H9    S    
Cr5   O17   S    
H20   O29   S    
O42   S7    S    
C19   C27   S    
C20   O11   A    
C33   C54   A    
O21   S1    D    
C14   C15   S    
Cr3   O8    S    
H25   O42   S    
O39   S6    S    
O20   S1    D    
Cr4   O6    S    
O31   S4    D    
C26   C56   S    
C47   C51   A    
C19   O6    A    
C52   C55   A    
C10   C23   S    
C30   C55   A    
C46   C50   A    
C33   C38   A    
C13   C17   D    
C16   H17   S    
C51   C54   A    
C1    O50   A    
O33   S5    D    
Cr2   O47   S    
O22   S1    S    
Cr6   O15   S    
O41   S7    D    
O40   S7    D    
H22   O36   S    
C17   H16   S    
C34   O4    A    
C47   H3    S    
C2    C25   S    
C42   C47   A    
C37   C41   A    
Cr5   O13   S    
C11   C16   D    
C44   H32   S    
Cr1   O18   S    
C11   S8    S    
C40   C44   A    
C1    C13   S    
C31   C45   A    
C46   H2    S    
Cr3   O4    S    
C31   C36   A    
C12   O2    A    
O37   S6    D    
C48   H4    S    
Cr5   O18   S    
C26   O17   A    
C39   H27   S    
Cr4   O7    S    
Cr1   O49   S    
C29   C52   A    
