data_mof_unit_5339.cif
_audit_creation_date              2012-12-10T17:33:03-0500
_audit_creation_method            fapswitch 2.2
_symmetry_space_group_name_H-M    P1
_symmetry_Int_Tables_number       1
_space_group_crystal_system       triclinic
_cell_length_a                    12.322233
_cell_length_b                    13.321268
_cell_length_c                    14.219121
_cell_angle_alpha                 92.564529
_cell_angle_beta                  108.334618
_cell_angle_gamma                 116.853211
_cell_volume                      1927.93704044

loop_
_atom_site_label
_atom_site_type_symbol
_atom_type_description
_atom_site_fract_x
_atom_site_fract_y
_atom_site_fract_z
_atom_type_partial_charge
C1    C     C_R   0.650360 0.713695 0.507618 0.780236
C2    C     C_R   0.812407 0.436846 0.901423 0.087994
C3    C     C_R   0.740841 0.417920 0.965812 0.170698
C4    C     C_R   0.920732 0.416042 0.926741 0.043982
C5    C     C_R   0.976574 0.408973 0.028464 0.030776
C6    C     C_R   0.900537 0.385270 0.089451 -0.218360
C7    C     C_R   0.781365 0.384904 0.056234 -0.233353
C8    C     C_R   0.976374 0.402370 0.856151 0.151232
C9    C     C_R   0.100322 0.411093 0.892222 -0.234617
C10   C     C_R   0.167207 0.426485 0.995590 0.118005
C11   C     C_R   0.105689 0.424579 0.065055 0.086199
C12   C     C_R   0.616708 0.513020 0.686597 0.789044
C13   C     C_R   0.294404 0.441328 0.029890 -0.187895
C14   C     C_R   0.363398 0.458782 0.133058 -0.190113
C15   C     C_R   0.178419 0.445080 0.169443 -0.240769
C16   C     C_R   0.134291 0.976087 0.352422 -0.177772
C17   C     C_R   0.247996 0.164391 0.462397 -0.139167
C18   C     C_R   0.719984 0.919385 0.561146 -0.180777
C19   C     C_R   0.801338 0.035832 0.570639 -0.187523
C20   C     C_R   0.903151 0.071107 0.535424 -0.102970
C21   C     C_R   0.924721 0.989517 0.488543 0.086039
C22   C     C_R   0.827974 0.871665 0.463507 0.003853
C23   C     C_R   0.345535 0.285949 0.485713 0.829407
C24   C     C_R   0.035269 0.021791 0.460673 -0.089472
C25   C     C_R   0.032522 0.941615 0.389295 -0.003882
C26   C     C_R   0.928074 0.828036 0.355627 0.424887
C27   C     C_R   0.826917 0.794368 0.391681 -0.281566
C28   C     C_R   0.151131 0.129621 0.504461 0.384085
C29   C     C_R   0.239916 0.087140 0.387444 -0.284413
C30   C     C_R   0.732653 0.835869 0.508775 -0.077569
C31   C     C_R   0.255002 0.685021 0.660784 -0.303704
C32   C     C_R   0.654174 0.342911 0.363899 0.078689
C33   C     C_R   0.731638 0.307007 0.335594 -0.271358
C34   C     C_R   0.379411 0.481115 0.312694 0.786019
C35   C     C_R   0.867126 0.364342 0.388358 -0.201034
C36   C     C_R   0.927364 0.459500 0.470237 -0.006567
C37   C     C_R   0.843587 0.492734 0.496914 0.284441
C38   C     C_R   0.067203 0.524272 0.525267 -0.049092
C39   C     C_R   0.119391 0.619414 0.606069 0.169320
C40   C     C_R   0.036283 0.649360 0.631586 -0.315746
C41   C     C_R   0.901837 0.587730 0.578252 -0.226217
C42   C     C_R   0.158874 0.500519 0.503107 0.036999
C43   C     C_R   0.339409 0.657178 0.635185 0.064666
C44   C     C_R   0.667098 0.496075 0.789415 -0.057684
C45   C     C_R   0.306640 0.462535 0.203595 -0.049338
C46   C     C_R   0.631665 0.435154 0.940095 -0.194109
C47   C     C_R   0.593964 0.472613 0.851552 -0.190272
C48   C     C_R   0.779770 0.484683 0.818287 -0.252424
Cu1   Cu    Cu3+1 0.416420 0.526630 0.522910 0.947103
Cu2   Cu    Cu3+1 0.583580 0.473370 0.477090 0.917051
H1    H     H_    0.724918 0.365715 0.104476 0.140338
H2    H     H_    0.341089 0.440558 0.976917 0.129724
H3    H     H_    0.313524 0.113552 0.353849 0.169956
H4    H     H_    0.131114 0.918349 0.294260 0.183614
H5    H     H_    0.646280 0.894802 0.594508 0.152570
H6    H     H_    0.959487 0.162533 0.541107 0.189671
H7    H     H_    0.786534 0.099139 0.606923 0.144696
H8    H     H_    0.745691 0.707781 0.358921 0.194720
H9    H     H_    0.444197 0.707509 0.677157 0.122659
H10   H     H_    0.138407 0.450922 0.225647 0.140603
H11   H     H_    0.075702 0.722038 0.693397 0.158636
H12   H     H_    0.295515 0.757729 0.722803 0.137199
H13   H     H_    0.128023 0.430142 0.442808 0.119248
H14   H     H_    0.549073 0.297563 0.322657 0.122504
H15   H     H_    0.922232 0.332996 0.363008 0.132798
H16   H     H_    0.686487 0.234468 0.272447 0.144545
H17   H     H_    0.847560 0.618508 0.603606 0.215074
H18   H     H_    0.461993 0.471009 0.157719 0.153937
H19   H     H_    0.144272 0.404410 0.838686 0.157040
H20   H     H_    0.575200 0.419122 0.988167 0.129601
H21   H     H_    0.506674 0.481145 0.830797 0.152129
H22   H     H_    0.841868 0.514123 0.775018 0.172968
H23   H     H_    0.930078 0.364362 0.162402 0.144273
N1    N     N_R   0.290690 0.566960 0.557640 -0.176944
N2    N     N_R   0.709100 0.433710 0.442970 -0.199496
O1    O     O_R   0.545970 0.684450 0.528810 -0.582119
O2    O     O_R   0.687130 0.639470 0.490120 -0.606424
O3    O     O_R   0.519670 0.535100 0.660030 -0.577238
O4    O     O_R   0.660830 0.490120 0.621340 -0.597536
O5    O     O_R   0.312870 0.360530 0.509880 -0.538453
O6    O     O_R   0.454030 0.315550 0.471190 -0.595470
O7    O     O_R   0.339170 0.509880 0.378660 -0.588397
O8    O     O_R   0.480330 0.464900 0.339970 -0.593442
O9    O     O_3   0.923919 0.747738 0.287569 -0.583355
C49   C     C_3   0.996732 0.698314 0.343074 0.052120
H24   H     H_    0.961170 0.662847 0.403246 0.161959
H25   H     H_    0.103049 0.762675 0.379058 0.144446
C50   C     C_3   0.980984 0.600525 0.271655 -0.758174
H26   H     H_    0.007838 0.631372 0.206738 0.260167
H27   H     H_    0.045387 0.566470 0.312474 0.194272
H28   H     H_    0.877458 0.530466 0.243152 0.251439
O10   O     O_3   0.171676 0.201520 0.589084 -0.591390
C51   C     C_3   0.242154 0.179390 0.677214 0.083664
H29   H     H_    0.345971 0.213712 0.684547 0.138933
H30   H     H_    0.197361 0.085321 0.676456 0.135137
C52   C     C_3   0.240484 0.239943 0.769598 -0.800463
H31   H     H_    0.138386 0.202222 0.766965 0.245776
H32   H     H_    0.302206 0.229497 0.840187 0.199258
H33   H     H_    0.279253 0.333273 0.770620 0.243895
C53   C     C_3   0.901452 0.360802 0.742707 -0.869612
H34   H     H_    0.794046 0.322784 0.721775 0.240772
H35   H     H_    0.938518 0.432437 0.704271 0.248326
H36   H     H_    0.916369 0.291225 0.713513 0.226886

loop_
_geom_bond_atom_site_label_1
_geom_bond_atom_site_label_2
_ccdc_geom_bond_type
C52   H33   S    
C51   H29   S    
C17   C29   A    
C15   H10   S    
C35   C36   A    
C4    C8    A    
Cu2   O4    S    
C32   N2    A    
C41   H17   S    
C49   H24   S    
C19   H7    S    
C26   C27   A    
C17   C23   S    
C31   C43   A    
C1    C30   S    
C36   C37   A    
C9    H19   S    
C38   C42   A    
C3    C7    A    
C38   C39   A    
C35   H15   S    
C12   O4    A    
C1    O2    A    
Cu1   O3    S    
C18   C19   A    
C53   H34   S    
C11   C15   A    
C19   C20   A    
C8    C9    A    
C12   O3    A    
C33   H16   S    
C18   C30   A    
C23   O5    A    
C23   O6    A    
C9    C10   A    
C44   C47   A    
C43   H9    S    
C43   N1    A    
C37   N2    A    
C51   H30   S    
C21   C22   A    
C37   C41   A    
C1    O1    A    
C31   H12   S    
C48   H22   S    
Cu2   O8    S    
C14   C45   A    
C49   H25   S    
C42   N1    A    
C24   C25   A    
C32   H14   S    
C39   C40   A    
C2    C48   A    
C16   C29   A    
C27   H8    S    
C53   H36   S    
C40   H11   S    
C52   H32   S    
Cu1   O7    S    
C2    C4    A    
C13   H2    S    
C50   H28   S    
C52   H31   S    
C20   C21   A    
C53   H35   S    
Cu1   O1    S    
C28   O10   S    
C34   C45   S    
O9    C49   S    
C47   H21   S    
C18   H5    S    
C40   C41   A    
C50   H27   S    
C51   C52   S    
C22   C27   A    
C34   O8    A    
C15   C45   A    
Cu2   O2    S    
C6    H23   S    
C49   C50   S    
C16   C25   A    
C46   C47   A    
C26   O9    S    
C22   C30   A    
C17   C28   A    
C24   C28   A    
C4    C5    A    
C10   C13   A    
C5    C11   A    
C6    C7    A    
C3    C46   A    
Cu1   O5    S    
C32   C33   A    
C36   C38   A    
C2    C3    A    
C25   C26   A    
C7    H1    S    
C12   C44   S    
Cu2   N2    S    
C5    C6    A    
C29   H3    S    
O10   C51   S    
C33   C35   A    
C31   C39   A    
C20   H6    S    
C8    C53   S    
C16   H4    S    
C46   H20   S    
C10   C11   A    
C50   H26   S    
Cu1   Cu2   S    
C21   C24   A    
C14   H18   S    
Cu1   N1    S    
C34   O7    A    
C13   C14   A    
C42   H13   S    
C44   C48   A    
Cu2   O6    S    
