data_mof_unit_53605.cif
_audit_creation_date              2012-12-11T14:41:13-0500
_audit_creation_method            fapswitch 2.2
_symmetry_space_group_name_H-M    P1
_symmetry_Int_Tables_number       1
_space_group_crystal_system       triclinic
_cell_length_a                    6.9356
_cell_length_b                    17.630186
_cell_length_c                    19.069408
_cell_angle_alpha                 89.909437
_cell_angle_beta                  90.00046
_cell_angle_gamma                 89.999559
_cell_volume                      2331.72645643

loop_
_atom_site_label
_atom_site_type_symbol
_atom_type_description
_atom_site_fract_x
_atom_site_fract_y
_atom_site_fract_z
_atom_type_partial_charge
O1    O     O_R   0.377350 0.828520 0.186660 -0.540722
O2    O     O_R   0.622650 0.171480 0.813340 -0.540697
O3    O     O_R   0.122650 0.171480 0.686660 -0.528058
O4    O     O_R   0.877350 0.828520 0.313340 -0.528062
O5    O     O_R   0.877350 0.671480 0.313340 -0.540719
O6    O     O_R   0.122650 0.328520 0.686660 -0.540705
O7    O     O_R   0.622650 0.328520 0.813340 -0.528066
O8    O     O_R   0.377350 0.671480 0.186660 -0.528061
O9    O     O_R   0.707090 0.671930 0.178410 -0.534266
O10   O     O_R   0.292910 0.328070 0.821590 -0.534299
O11   O     O_R   0.792910 0.328070 0.678410 -0.525868
O12   O     O_R   0.207090 0.671930 0.321590 -0.525852
O13   O     O_R   0.207090 0.828070 0.321590 -0.534276
O14   O     O_R   0.792910 0.171930 0.678410 -0.534274
O15   O     O_R   0.292910 0.171930 0.821590 -0.525835
O16   O     O_R   0.707090 0.828070 0.178410 -0.525846
C1    C     C_R   0.538209 0.647371 0.160040 0.767084
C2    C     C_R   0.461792 0.352626 0.839964 0.767039
C3    C     C_R   0.962220 0.353117 0.660552 0.765096
C4    C     C_R   0.037781 0.646882 0.339446 0.765043
C5    C     C_R   0.038209 0.852621 0.339968 0.767109
C6    C     C_R   0.961790 0.147369 0.660041 0.767174
C7    C     C_R   0.462220 0.146879 0.839445 0.765055
C8    C     C_R   0.537777 0.853111 0.160546 0.765021
O17   O     O_3   0.543850 0.750000 0.294270 -0.352735
O18   O     O_3   0.456150 0.250000 0.705730 -0.352746
O19   O     O_3   0.956150 0.250000 0.794270 -0.352732
O20   O     O_3   0.043850 0.750000 0.205730 -0.352729
V1    V     V_3+5 0.818700 0.750000 0.241790 1.575614
V2    V     V_3+5 0.181300 0.250000 0.758210 1.575605
V3    V     V_3+5 0.681300 0.250000 0.741790 1.575588
V4    V     V_3+5 0.318700 0.750000 0.258210 1.575603
C9    C     C_R   0.975276 0.415257 0.608426 -0.108922
C10   C     C_R   0.024726 0.584734 0.391561 -0.108947
C11   C     C_R   0.532045 0.585576 0.107421 -0.109940
C12   C     C_R   0.467982 0.414401 0.892603 -0.109800
C13   C     C_R   0.475291 0.084722 0.891552 -0.108947
C14   C     C_R   0.524714 0.915246 0.108415 -0.108801
C15   C     C_R   0.032051 0.914405 0.392599 -0.109951
C16   C     C_R   0.967970 0.085584 0.607413 -0.109866
C17   C     C_R   0.979407 0.449832 0.413275 0.172161
C18   C     C_R   0.020515 0.550158 0.586697 0.172267
C19   C     C_R   0.397416 0.546415 0.919451 0.169930
C20   C     C_R   0.602872 0.453573 0.080588 0.169593
C21   C     C_R   0.479412 0.050137 0.086675 0.172405
C22   C     C_R   0.520804 0.949830 0.913263 0.172242
C23   C     C_R   0.897216 0.953584 0.580563 0.169809
C24   C     C_R   0.102943 0.046393 0.419457 0.169600
C25   C     C_R   0.975692 0.512589 0.367925 -0.228052
C26   C     C_R   0.024242 0.487413 0.632056 -0.228144
C27   C     C_R   0.378488 0.482841 0.875883 -0.207544
C28   C     C_R   0.621779 0.517179 0.124125 -0.207209
C29   C     C_R   0.475640 0.987397 0.132036 -0.228151
C30   C     C_R   0.524523 0.012593 0.867920 -0.227995
C31   C     C_R   0.878305 0.017174 0.624115 -0.207399
C32   C     C_R   0.121809 0.982798 0.375907 -0.207232
C33   C     C_R   0.065920 0.595908 0.463071 0.198613
C34   C     C_R   0.934136 0.404066 0.536911 0.198708
C35   C     C_R   0.567006 0.407447 0.956879 0.198900
C36   C     C_R   0.432911 0.592477 0.043169 0.198898
C37   C     C_R   0.565987 0.904063 0.036907 0.198583
C38   C     C_R   0.433943 0.095867 0.963054 0.198645
C39   C     C_R   0.067109 0.092503 0.543161 0.199017
C40   C     C_R   0.932911 0.907494 0.456851 0.198941
C41   C     C_R   0.021573 0.537397 0.512695 0.003183
C42   C     C_R   0.978415 0.462584 0.487282 0.003059
C43   C     C_R   0.542822 0.464349 0.009621 0.003482
C44   C     C_R   0.457261 0.535597 0.990428 0.003774
C45   C     C_R   0.521689 0.962573 0.987270 0.003090
C46   C     C_R   0.478394 0.037372 0.012678 0.003345
C47   C     C_R   0.042874 0.035610 0.490418 0.003520
C48   C     C_R   0.957217 0.964377 0.509598 0.003672
H1    H     H_    0.045940 0.495739 0.687776 0.118225
H2    H     H_    0.953947 0.504281 0.312206 0.118284
H3    H     H_    0.688054 0.511208 0.175298 0.119441
H4    H     H_    0.312399 0.488870 0.824679 0.119232
H5    H     H_    0.546383 0.004294 0.812205 0.118216
H6    H     H_    0.453883 0.995735 0.187752 0.118022
H7    H     H_    0.188069 0.988778 0.324732 0.119459
H8    H     H_    0.812077 0.011179 0.675296 0.119300
Br1   Br    Br    0.783510 0.315053 0.513091 -0.544051
Br2   Br    Br    0.216800 0.684854 0.486896 -0.544003
Br3   Br    Br    0.238664 0.671295 0.035900 -0.524077
Br4   Br    Br    0.760762 0.328447 0.964179 -0.524298
Br5   Br    Br    0.282592 0.184691 0.986869 -0.543741
Br6   Br    Br    0.716831 0.815097 0.013114 -0.543997
Br7   Br    Br    0.738781 0.828632 0.464113 -0.524179
Br8   Br    Br    0.261065 0.171430 0.535885 -0.524200
C49   C     C_3   0.007827 0.371692 0.380721 -0.301895
C50   C     C_3   0.160847 0.370562 0.322719 -0.777150
H9    H     H_    0.105658 0.397597 0.274124 0.217216
H10   H     H_    0.293877 0.400098 0.340256 0.249864
H11   H     H_    0.198771 0.311007 0.309824 0.229731
H12   H     H_    0.062556 0.331190 0.420448 0.237929
H13   H     H_    0.868729 0.350776 0.359258 0.203870
C51   C     C_3   0.991981 0.628293 0.619245 -0.302050
C52   C     C_3   0.838354 0.629432 0.677033 -0.776756
H14   H     H_    0.705300 0.600102 0.659227 0.249878
H15   H     H_    0.892774 0.602190 0.725639 0.217261
H16   H     H_    0.800758 0.688995 0.690025 0.229662
H17   H     H_    0.130915 0.649135 0.640910 0.203670
H18   H     H_    0.937765 0.668856 0.579485 0.237943
C53   C     C_3   0.376975 0.624348 0.885513 -0.299097
C54   C     C_3   0.488603 0.631397 0.816435 -0.790974
H19   H     H_    0.638849 0.610872 0.823349 0.244484
H20   H     H_    0.417413 0.598915 0.773889 0.221821
H21   H     H_    0.493933 0.691767 0.799891 0.230189
H22   H     H_    0.222185 0.636988 0.876068 0.208066
H23   H     H_    0.440026 0.668791 0.919409 0.238232
C55   C     C_3   0.623661 0.375645 0.114520 -0.298972
C56   C     C_3   0.513606 0.368667 0.183943 -0.791427
H24   H     H_    0.586348 0.400880 0.226318 0.221768
H25   H     H_    0.363507 0.389539 0.177557 0.244485
H26   H     H_    0.507811 0.308271 0.200396 0.230227
H27   H     H_    0.559582 0.331273 0.080792 0.238035
H28   H     H_    0.778590 0.362886 0.123505 0.208596
C57   C     C_3   0.508051 0.128254 0.119242 -0.302368
C58   C     C_3   0.662616 0.129385 0.176700 -0.776038
H29   H     H_    0.609329 0.101831 0.225319 0.217114
H30   H     H_    0.795669 0.100350 0.158487 0.250072
H31   H     H_    0.699796 0.188951 0.189839 0.229599
H32   H     H_    0.561438 0.168937 0.079448 0.238080
H33   H     H_    0.369361 0.148952 0.141229 0.203274
C59   C     C_3   0.492448 0.871700 0.880687 -0.302046
C60   C     C_3   0.339068 0.870553 0.822811 -0.776916
H34   H     H_    0.205936 0.899889 0.840535 0.249876
H35   H     H_    0.393693 0.897786 0.774230 0.217255
H36   H     H_    0.301520 0.810989 0.809808 0.229651
H37   H     H_    0.631485 0.850869 0.859102 0.203713
H38   H     H_    0.438073 0.831134 0.920417 0.237893
C61   C     C_3   0.876541 0.875657 0.614498 -0.299062
C62   C     C_3   0.987493 0.868619 0.683724 -0.791133
H39   H     H_    0.137746 0.889213 0.677023 0.244497
H40   H     H_    0.915767 0.901045 0.726188 0.221780
H41   H     H_    0.992821 0.808244 0.700253 0.230191
H42   H     H_    0.721674 0.862995 0.623747 0.208272
H43   H     H_    0.939984 0.831230 0.580677 0.238173
C63   C     C_3   0.123728 0.124325 0.385536 -0.298902
C64   C     C_3   0.013528 0.131323 0.316146 -0.791308
H44   H     H_    0.086148 0.099107 0.273747 0.221787
H45   H     H_    0.863427 0.110465 0.322574 0.244326
H46   H     H_    0.007722 0.191718 0.299703 0.230246
H47   H     H_    0.059759 0.168703 0.419285 0.238144
H48   H     H_    0.278653 0.137067 0.376513 0.208570

loop_
_geom_bond_atom_site_label_1
_geom_bond_atom_site_label_2
_ccdc_geom_bond_type
C17   C49   S    
C9    C34   A    
C31   H8    S    
C51   H18   S    
C39   Br8   S    
O13   V4    S    
C56   H24   S    
O14   V3    S    
C28   H3    S    
C19   C27   A    
C58   H30   S    
C54   H20   S    
C13   C38   A    
C63   C64   S    
O5    C4    A    
O6    C3    A    
O11   C3    A    
C16   C39   A    
C50   H11   S    
C18   C51   S    
O20   V1    S    
C63   H47   S    
C62   H41   S    
C36   Br3   S    
C37   C45   A    
C38   C46   A    
C49   H12   S    
C58   H29   S    
C22   C45   A    
C35   C43   A    
C55   C56   S    
C12   C35   A    
C34   C42   A    
C62   H39   S    
C18   C41   A    
C8    C14   S    
C53   H22   S    
C40   Br7   S    
O4    V1    S    
O9    V1    S    
C14   C37   A    
C4    C10   S    
C20   C28   A    
O17   V4    S    
O15   C7    A    
O11   V3    S    
O18   V3    S    
O16   C8    A    
C51   H17   S    
O12   V4    S    
O19   V2    S    
C22   C59   S    
C17   C25   A    
C54   H19   S    
C52   H15   S    
C52   H14   S    
O5    V1    S    
O2    C7    A    
O17   V1    S    
C38   Br5   S    
C59   C60   S    
O7    V3    S    
O19   V3    S    
C43   C44   A    
O8    V4    S    
O20   V4    S    
C35   Br4   S    
C61   H42   S    
C3    C9    S    
C34   Br1   S    
C19   C44   A    
O16   V1    S    
C7    C13   S    
O1    V4    S    
C23   C61   S    
O2    V3    S    
C58   H31   S    
C49   H13   S    
O3    V2    S    
C57   H32   S    
C15   C40   A    
C60   H36   S    
O10   V2    S    
C50   H10   S    
C15   C32   A    
C5    C15   S    
O7    C2    A    
C6    C16   S    
C51   C52   S    
O12   C4    A    
C59   H38   S    
C56   H25   S    
C27   H4    S    
C32   H7    S    
C12   C27   A    
C18   C26   A    
C13   C30   A    
O9    C1    A    
O6    V2    S    
C22   C30   A    
C39   C47   A    
O18   V2    S    
C60   H34   S    
C26   H1    S    
C24   C47   A    
C61   C62   S    
C55   H28   S    
C11   C28   A    
C52   H16   S    
O15   V2    S    
C23   C31   A    
C21   C57   S    
C24   C32   A    
C10   C25   A    
C21   C46   A    
C25   H2    S    
C33   C41   A    
C20   C43   A    
C16   C31   A    
C64   H44   S    
C17   C42   A    
O8    C1    A    
C24   C63   S    
C53   H23   S    
C30   H5    S    
C29   H6    S    
C9    C26   A    
C47   C48   A    
C63   H48   S    
C57   C58   S    
O13   C5    A    
O4    C5    A    
C64   H45   S    
O14   C6    A    
C50   H9    S    
C14   C29   A    
O10   C2    A    
C10   C33   A    
C64   H46   S    
C59   H37   S    
C56   H26   S    
C40   C48   A    
C57   H33   S    
C45   C46   A    
C19   C53   S    
C23   C48   A    
C37   Br6   S    
C21   C29   A    
C36   C44   A    
O1    C8    A    
C62   H40   S    
C41   C42   A    
C53   C54   S    
C60   H35   S    
C33   Br2   S    
C11   C36   A    
O3    C6    A    
C1    C11   S    
C49   C50   S    
C2    C12   S    
C55   H27   S    
C54   H21   S    
C61   H43   S    
C20   C55   S    
