data_mof_unit_62323.cif
_audit_creation_date              2012-12-10T19:59:39-0500
_audit_creation_method            fapswitch 2.2
_symmetry_space_group_name_H-M    P1
_symmetry_Int_Tables_number       1
_space_group_crystal_system       monoclinic
_cell_length_a                    18.423998
_cell_length_b                    18.423999
_cell_length_c                    36.246709
_cell_angle_alpha                 90.0
_cell_angle_beta                  90.0
_cell_angle_gamma                 90.000064
_cell_volume                      12303.7177671

loop_
_atom_site_label
_atom_site_type_symbol
_atom_type_description
_atom_site_fract_x
_atom_site_fract_y
_atom_site_fract_z
_atom_type_partial_charge
C1    C     C_R   0.500000 0.000000 0.901158 0.819891
C2    C     C_R   0.433172 0.998129 0.731045 -0.027912
C3    C     C_R   0.241912 0.812071 0.522989 -0.214761
C4    C     C_3   0.145516 0.795348 0.950978 -0.475055
C5    C     C_3   0.204642 0.145506 0.950986 -0.475029
C6    C     C_3   0.854484 0.204652 0.950978 -0.475055
C7    C     C_3   0.795358 0.854494 0.950986 -0.475029
C8    C     C_3   0.145505 0.204642 0.950986 -0.475034
C9    C     C_3   0.204652 0.854484 0.950978 -0.475057
C10   C     C_3   0.854494 0.795358 0.950986 -0.475033
C11   C     C_3   0.795348 0.145516 0.950978 -0.475058
C12   C     C_3   0.645516 0.295348 0.450978 -0.475060
C13   C     C_R   0.998666 0.433158 0.731045 -0.027912
C14   C     C_3   0.704642 0.645506 0.450986 -0.475030
C15   C     C_3   0.354484 0.704652 0.450978 -0.475060
C16   C     C_3   0.295358 0.354494 0.450986 -0.475030
C17   C     C_3   0.645506 0.704642 0.450986 -0.475027
C18   C     C_3   0.704652 0.354484 0.450978 -0.475057
C19   C     C_3   0.354494 0.295358 0.450986 -0.475027
C20   C     C_3   0.295348 0.645516 0.450978 -0.475057
C21   C     C_R   0.998691 0.434444 0.769719 -0.276345
C22   C     C_R   0.565543 0.001835 0.769719 -0.276344
C23   C     C_R   0.001308 0.565556 0.769719 -0.276346
C24   C     C_R   0.566828 0.001871 0.731045 -0.027913
C25   C     C_R   0.434457 0.998165 0.769719 -0.276344
C26   C     C_R   0.498045 0.934461 0.269719 -0.276344
C27   C     C_R   0.065553 0.501449 0.269719 -0.276346
C28   C     C_R   0.501955 0.065539 0.269719 -0.276344
C29   C     C_R   0.934447 0.498551 0.269719 -0.276345
C30   C     C_R   0.000000 0.500000 0.788874 0.177700
C31   C     C_R   0.500000 0.000000 0.788874 0.177699
C32   C     C_R   0.500000 0.000000 0.288874 0.177699
C33   C     C_R   1.000000 0.500000 0.288874 0.177700
C34   C     C_2   0.495836 0.860406 0.213115 0.390073
C35   C     C_R   0.500000 1.000000 0.211343 0.080686
C36   C     C_2   0.139623 0.503088 0.213115 0.390074
C37   C     C_2   0.504164 0.139594 0.213115 0.390074
C38   C     C_2   0.860377 0.496912 0.213115 0.390073
C39   C     C_2   0.997212 0.360371 0.713115 0.390073
C40   C     C_2   0.639601 0.003908 0.713115 0.390073
C41   C     C_2   0.002788 0.639629 0.713115 0.390074
C42   C     C_2   0.360399 0.996091 0.713115 0.390073
C43   C     C_R   1.000000 0.500000 0.211343 0.080686
C44   C     C_R   0.000000 0.500000 0.711343 0.080686
C45   C     C_R   0.500000 0.000000 0.711343 0.080686
C46   C     C_1   0.000000 0.500000 0.828496 -0.055344
C47   C     C_1   0.500000 0.000000 0.828496 -0.055344
C48   C     C_1   0.500000 0.000000 0.328496 -0.055344
C49   C     C_R   1.000000 0.500000 0.901158 0.819892
C50   C     C_1   1.000000 0.500000 0.328496 -0.055344
C51   C     C_1   0.500000 0.000000 0.171507 0.112452
C52   C     C_1   0.000000 0.500000 0.171507 0.112447
C53   C     C_1   0.000000 0.500000 0.671507 0.112446
C54   C     C_1   0.500000 0.000000 0.671507 0.112451
C55   C     C_1   0.500000 0.000000 0.138287 -0.036949
C56   C     C_1   0.000000 0.500000 0.138287 -0.036950
C57   C     C_1   0.000000 0.500000 0.638288 -0.036950
C58   C     C_1   0.500000 1.000000 0.638288 -0.036949
C59   C     C_1   1.000000 0.500000 0.861692 -0.147772
C60   C     C_R   1.000000 0.500000 0.401158 0.819892
C61   C     C_1   0.500000 0.000000 0.861692 -0.147772
C62   C     C_1   0.500000 0.000000 0.361692 -0.147772
C63   C     C_1   1.000000 0.500000 0.361692 -0.147772
C64   C     C_R   0.500000 1.000000 0.098833 0.803692
C65   C     C_R   0.000000 0.500000 0.098833 0.803682
C66   C     C_R   0.000000 0.500000 0.598833 0.803680
C67   C     C_R   0.500000 1.000000 0.598833 0.803689
C68   C     C_R   0.639967 0.859958 0.000035 0.808011
C69   C     C_R   0.140041 0.639967 0.000036 0.808154
C70   C     C_R   0.360033 0.140042 0.000035 0.808011
C71   C     C_R   0.500000 0.000000 0.401158 0.819891
C72   C     C_R   0.859959 0.360033 0.000036 0.808154
C73   C     C_R   0.639967 0.140041 0.000036 0.808169
C74   C     C_R   0.140042 0.360033 0.000035 0.808023
C75   C     C_R   0.360033 0.859959 0.000036 0.808169
C76   C     C_R   0.859958 0.639967 0.000035 0.808023
C77   C     C_R   0.139967 0.359958 0.500035 0.808030
C78   C     C_R   0.640041 0.139967 0.500036 0.808162
C79   C     C_R   0.860033 0.640042 0.500035 0.808030
C80   C     C_R   0.359959 0.860033 0.500036 0.808162
C81   C     C_R   0.139967 0.640041 0.500036 0.808147
C82   C     C_R   0.501993 0.066825 0.231045 -0.027913
C83   C     C_R   0.640042 0.860033 0.500035 0.808017
C84   C     C_R   0.860033 0.359959 0.500036 0.808147
C85   C     C_R   0.359958 0.139967 0.500035 0.808017
C86   C     C_R   0.243375 0.808415 0.978411 0.133203
C87   C     C_R   0.191582 0.243373 0.978414 0.133208
C88   C     C_R   0.756625 0.191585 0.978411 0.133203
C89   C     C_R   0.808418 0.756627 0.978414 0.133208
C90   C     C_R   0.243373 0.191582 0.978414 0.133212
C91   C     C_R   0.191585 0.756625 0.978411 0.133208
C92   C     C_R   0.756627 0.808418 0.978414 0.133212
C93   C     C_R   0.933161 0.498522 0.231045 -0.027912
C94   C     C_R   0.808415 0.243375 0.978411 0.133208
C95   C     C_R   0.743375 0.308415 0.478411 0.133208
C96   C     C_R   0.691582 0.743373 0.478413 0.133210
C97   C     C_R   0.256625 0.691585 0.478411 0.133208
C98   C     C_R   0.308418 0.256627 0.478413 0.133210
C99   C     C_R   0.743373 0.691582 0.478413 0.133206
C100  C     C_R   0.691585 0.256625 0.478411 0.133203
C101  C     C_R   0.256627 0.308418 0.478413 0.133207
C102  C     C_R   0.308415 0.743375 0.478411 0.133203
C103  C     C_R   0.305026 0.803862 0.000284 -0.086108
C104  C     C_R   0.498006 0.933175 0.231045 -0.027912
C105  C     C_R   0.196139 0.305027 0.000282 -0.085967
C106  C     C_R   0.694974 0.196138 0.000284 -0.086108
C107  C     C_R   0.803861 0.694973 0.000282 -0.085967
C108  C     C_R   0.305027 0.196139 0.000282 -0.085961
C109  C     C_R   0.196138 0.694974 0.000284 -0.086103
C110  C     C_R   0.694973 0.803861 0.000282 -0.085961
C111  C     C_R   0.803862 0.305026 0.000284 -0.086103
C112  C     C_R   0.805026 0.303862 0.500283 -0.086099
C113  C     C_R   0.696139 0.805027 0.500282 -0.085966
C114  C     C_R   0.194974 0.696138 0.500283 -0.086099
C115  C     C_R   0.066839 0.501478 0.231045 -0.027912
C116  C     C_R   0.303861 0.194973 0.500282 -0.085966
C117  C     C_R   0.805027 0.696139 0.500282 -0.085972
C118  C     C_R   0.696138 0.194974 0.500283 -0.086104
C119  C     C_R   0.194973 0.303861 0.500282 -0.085972
C120  C     C_R   0.303862 0.805026 0.500283 -0.086104
C121  C     C_R   0.312071 0.741912 0.022989 -0.214746
C122  C     C_R   0.258094 0.312078 0.022984 -0.215134
C123  C     C_R   0.687929 0.258087 0.022989 -0.214746
C124  C     C_R   0.741906 0.687922 0.022984 -0.215134
C125  C     C_R   0.312078 0.258094 0.022984 -0.215174
C126  C     C_R   0.001334 0.566842 0.731045 -0.027912
C127  C     C_R   0.258088 0.687929 0.022989 -0.214787
C128  C     C_R   0.687922 0.741906 0.022984 -0.215174
C129  C     C_R   0.741912 0.312071 0.022989 -0.214787
C130  C     C_R   0.812071 0.241912 0.522989 -0.214803
C131  C     C_R   0.758094 0.812078 0.522984 -0.215160
C132  C     C_R   0.187929 0.758088 0.522989 -0.214803
C133  C     C_R   0.241906 0.187922 0.522984 -0.215160
C134  C     C_R   0.812078 0.758094 0.522984 -0.215119
C135  C     C_R   0.758088 0.187929 0.522989 -0.214761
C136  C     C_R   0.187922 0.241906 0.522984 -0.215119
H1    H     H_    0.358907 0.734972 0.040694 0.185422
H2    H     H_    0.765038 0.858917 0.540686 0.185219
H3    H     H_    0.141093 0.765028 0.540694 0.185399
H4    H     H_    0.234962 0.141083 0.540686 0.185219
H5    H     H_    0.858917 0.765038 0.540686 0.185238
H6    H     H_    0.765028 0.141093 0.540694 0.185416
H7    H     H_    0.141083 0.234962 0.540686 0.185238
H8    H     H_    0.234972 0.858907 0.540694 0.185416
H9    H     H_    0.141367 0.765361 0.924452 0.210028
H10   H     H_    0.234621 0.141349 0.924458 0.210127
H11   H     H_    0.858633 0.234639 0.924452 0.210028
H12   H     H_    0.265038 0.358917 0.040685 0.185230
H13   H     H_    0.765378 0.858651 0.924458 0.210127
H14   H     H_    0.141349 0.234622 0.924458 0.210121
H15   H     H_    0.234639 0.858633 0.924452 0.210022
H16   H     H_    0.858651 0.765378 0.924458 0.210121
H17   H     H_    0.765361 0.141367 0.924452 0.210022
H18   H     H_    0.641367 0.265361 0.424452 0.210019
H19   H     H_    0.734622 0.641349 0.424458 0.210124
H20   H     H_    0.358633 0.734639 0.424452 0.210019
H21   H     H_    0.265378 0.358651 0.424458 0.210124
H22   H     H_    0.641349 0.734622 0.424458 0.210130
H23   H     H_    0.641093 0.265028 0.040694 0.185422
H24   H     H_    0.734639 0.358633 0.424452 0.210025
H25   H     H_    0.358651 0.265378 0.424458 0.210130
H26   H     H_    0.265361 0.641367 0.424452 0.210025
H27   H     H_    0.093107 0.813649 0.962996 0.204400
H28   H     H_    0.186344 0.093100 0.963009 0.204367
H29   H     H_    0.906893 0.186351 0.962996 0.204400
H30   H     H_    0.813656 0.906900 0.963009 0.204366
H31   H     H_    0.093100 0.186344 0.963009 0.204368
H32   H     H_    0.186351 0.906893 0.962996 0.204401
H33   H     H_    0.906900 0.813656 0.963009 0.204368
H34   H     H_    0.734962 0.641083 0.040685 0.185230
H35   H     H_    0.813649 0.093107 0.962996 0.204401
H36   H     H_    0.593107 0.313649 0.462996 0.204401
H37   H     H_    0.686344 0.593100 0.463009 0.204368
H38   H     H_    0.406893 0.686351 0.462996 0.204401
H39   H     H_    0.313656 0.406900 0.463009 0.204368
H40   H     H_    0.593100 0.686344 0.463009 0.204366
H41   H     H_    0.686351 0.406893 0.462996 0.204400
H42   H     H_    0.406900 0.313656 0.463009 0.204366
H43   H     H_    0.313649 0.593107 0.462996 0.204400
H44   H     H_    0.997684 0.383966 0.785125 0.135139
H45   H     H_    0.358917 0.265038 0.040685 0.185212
H46   H     H_    0.616011 0.003248 0.785125 0.135138
H47   H     H_    0.002316 0.616033 0.785125 0.135139
H48   H     H_    0.383989 0.996752 0.785125 0.135138
H49   H     H_    0.496540 0.883996 0.285125 0.135138
H50   H     H_    0.116028 0.502565 0.285125 0.135139
H51   H     H_    0.503460 0.116004 0.285125 0.135138
H52   H     H_    0.883972 0.497435 0.285125 0.135139
H53   H     H_    0.494389 0.811962 0.230162 0.066201
H54   H     H_    0.188077 0.504158 0.230162 0.066200
H55   H     H_    0.505611 0.188038 0.230162 0.066201
H56   H     H_    0.265028 0.641093 0.040694 0.185406
H57   H     H_    0.811922 0.495841 0.230162 0.066200
H58   H     H_    0.996246 0.311914 0.730162 0.066200
H59   H     H_    0.688048 0.005266 0.730162 0.066201
H60   H     H_    0.003754 0.688086 0.730162 0.066200
H61   H     H_    0.311951 0.994734 0.730162 0.066201
H62   H     H_    0.641083 0.734962 0.040685 0.185212
H63   H     H_    0.734972 0.358907 0.040694 0.185406
H64   H     H_    0.858907 0.234972 0.540694 0.185399
O1    O     O_3   0.500000 0.000000 0.000000 -0.486474
O2    O     O_R   0.500000 0.939300 0.418540 -0.639456
O3    O     O_R   0.060700 0.500000 0.418540 -0.639456
O4    O     O_R   0.500000 0.060700 0.418540 -0.639456
O5    O     O_R   0.500000 0.939270 0.081460 -0.619718
O6    O     O_R   0.060730 0.500000 0.081460 -0.619713
O7    O     O_R   0.500000 0.060730 0.081460 -0.619718
O8    O     O_R   0.939270 0.500000 0.081460 -0.619712
O9    O     O_R   1.000000 0.439270 0.581460 -0.619711
O10   O     O_R   0.560730 0.000000 0.581460 -0.619717
O11   O     O_R   0.000000 0.560730 0.581460 -0.619711
O12   O     O_3   0.000000 0.500000 0.000000 -0.486475
O13   O     O_R   0.439270 0.000000 0.581460 -0.619716
O14   O     O_R   0.646180 0.914510 0.978640 -0.644726
O15   O     O_R   0.085490 0.646180 0.978640 -0.644780
O16   O     O_R   0.353820 0.085490 0.978640 -0.644725
O17   O     O_R   0.914510 0.353820 0.978640 -0.644780
O18   O     O_R   0.646180 0.085490 0.978640 -0.644787
O19   O     O_R   0.085490 0.353820 0.978640 -0.644732
O20   O     O_R   0.353820 0.914510 0.978640 -0.644787
O21   O     O_R   0.914510 0.646180 0.978640 -0.644733
O22   O     O_R   0.146180 0.414510 0.478640 -0.644733
O23   O     O_3   0.000000 0.500000 0.500000 -0.486475
O24   O     O_R   0.585490 0.146180 0.478640 -0.644786
O25   O     O_R   0.853820 0.585490 0.478640 -0.644733
O26   O     O_R   0.414510 0.853820 0.478640 -0.644786
O27   O     O_R   0.146180 0.585490 0.478640 -0.644779
O28   O     O_R   0.585490 0.853820 0.478640 -0.644726
O29   O     O_R   0.853820 0.414510 0.478640 -0.644779
O30   O     O_R   0.414510 0.146180 0.478640 -0.644726
O31   O     O_R   0.414550 0.146120 0.021350 -0.643883
O32   O     O_R   0.853880 0.414550 0.021350 -0.643641
O33   O     O_R   0.585450 0.853880 0.021350 -0.643883
O34   O     O_3   0.500000 0.000000 0.500000 -0.486474
O35   O     O_R   0.146120 0.585450 0.021350 -0.643641
O36   O     O_R   0.414550 0.853880 0.021350 -0.643611
O37   O     O_R   0.853880 0.585450 0.021350 -0.643850
O38   O     O_R   0.585450 0.146120 0.021350 -0.643611
O39   O     O_R   0.146120 0.414550 0.021350 -0.643851
O40   O     O_R   0.914550 0.646120 0.521350 -0.643841
O41   O     O_R   0.353880 0.914550 0.521350 -0.643619
O42   O     O_R   0.085450 0.353880 0.521350 -0.643841
O43   O     O_R   0.646120 0.085450 0.521350 -0.643619
O44   O     O_R   0.914550 0.353880 0.521350 -0.643651
O45   O     O_R   0.439300 1.000000 0.918540 -0.639456
O46   O     O_R   0.353880 0.085450 0.521350 -0.643874
O47   O     O_R   0.085450 0.646120 0.521350 -0.643651
O48   O     O_R   0.646120 0.914550 0.521350 -0.643874
O49   O     O_2   0.495612 0.852867 0.179671 -0.565600
O50   O     O_2   0.147163 0.503256 0.179671 -0.565595
O51   O     O_2   0.504387 0.147133 0.179671 -0.565600
O52   O     O_2   0.852837 0.496744 0.179671 -0.565594
O53   O     O_2   0.997061 0.352830 0.679671 -0.565593
O54   O     O_2   0.647141 0.004118 0.679671 -0.565599
O55   O     O_2   0.002939 0.647170 0.679671 -0.565594
O56   O     O_R   0.000000 0.439300 0.918540 -0.639456
O57   O     O_2   0.352859 0.995882 0.679671 -0.565598
O58   O     O_R   0.560700 1.000000 0.918540 -0.639456
O59   O     O_R   0.000000 0.560700 0.918540 -0.639456
O60   O     O_R   0.939300 0.500000 0.418540 -0.639456
Zn1   Zn    Zn3+2 0.500000 0.913220 0.030510 0.988871
Zn2   Zn    Zn3+2 0.000000 0.586770 0.969480 0.961741
Zn3   Zn    Zn3+2 0.413230 0.000000 0.969480 0.961742
Zn4   Zn    Zn3+2 0.000000 0.413230 0.969480 0.961741
Zn5   Zn    Zn3+2 0.086770 0.500000 0.469480 0.961741
Zn6   Zn    Zn3+2 0.500000 0.086770 0.469480 0.961742
Zn7   Zn    Zn3+2 0.913230 0.500000 0.469480 0.961741
Zn8   Zn    Zn3+2 0.500000 0.913230 0.469480 0.961742
Zn9   Zn    Zn3+2 0.086780 0.500000 0.030510 0.988873
Zn10  Zn    Zn3+2 0.500000 0.086780 0.030510 0.988871
Zn11  Zn    Zn3+2 0.913220 0.500000 0.030510 0.988873
Zn12  Zn    Zn3+2 0.000000 0.413220 0.530510 0.988873
Zn13  Zn    Zn3+2 0.586780 0.000000 0.530510 0.988871
Zn14  Zn    Zn3+2 0.000000 0.586780 0.530510 0.988873
Zn15  Zn    Zn3+2 0.413220 0.000000 0.530510 0.988871
Zn16  Zn    Zn3+2 0.586770 0.000000 0.969480 0.961742

loop_
_geom_bond_atom_site_label_1
_geom_bond_atom_site_label_2
_ccdc_geom_bond_type
C25   C31   A    
C71   O2    A    
C80   C120  S    
C11   H35   S    
C74   O19   A    
C50   C63   T    
C46   C59   T    
C7    C10   S    
O11   Zn14  S    
C97   C114  A    
C81   O47   A    
C130  C135  A    
C14   C17   S    
O23   Zn5   S    
C57   C66   S    
O59   Zn2   S    
O29   Zn7   S    
C14   C99   S    
C12   H36   S    
C65   O8    A    
O47   Zn14  S    
C27   C33   A    
C10   H33   S    
C26   C32   A    
C72   O17   A    
C44   C126  A    
C84   C112  S    
O34   Zn13  S    
C123  H23   S    
C60   C63   S    
C36   H54   S    
C24   C45   A    
C107  C124  A    
O46   Zn15  S    
C78   C118  S    
C124  H34   S    
O1    Zn1   S    
C73   O18   A    
C121  C127  A    
C42   O57   D    
C86   C91   A    
O31   Zn10  S    
O24   Zn6   S    
C14   H19   S    
C26   H49   S    
C43   C52   S    
O34   Zn6   S    
O7    Zn10  S    
C117  C134  A    
C56   C65   S    
C34   H53   S    
C96   C99   A    
C29   C33   A    
C94   C111  A    
O10   Zn13  S    
C83   O48   A    
C80   O41   A    
C67   O10   A    
C19   H25   S    
C121  H1    S    
C74   O39   A    
O38   Zn10  S    
C83   C113  S    
C70   O31   A    
C10   H16   S    
O28   Zn8   S    
O23   Zn12  S    
C26   C104  A    
C91   C109  A    
C7    H13   S    
C69   C109  S    
C44   C53   S    
C111  C129  A    
O9    Zn12  S    
C38   O52   D    
C20   C97   S    
O13   Zn15  S    
C10   C89   S    
O40   Zn14  S    
C6    C94   S    
O14   Zn16  S    
C106  C123  A    
C105  C122  A    
C133  C136  A    
C36   O50   D    
C122  H12   S    
C108  C125  A    
C34   O49   D    
C110  C128  A    
C68   O14   A    
O43   Zn13  S    
C21   C30   A    
O23   Zn7   S    
C5    C90   S    
C87   C90   A    
C17   H40   S    
C124  C128  A    
C4    C91   S    
C43   C115  A    
C80   O26   A    
C131  C134  A    
C72   C111  S    
O36   Zn1   S    
C77   O22   A    
O17   Zn4   S    
C31   C47   S    
O19   Zn4   S    
C123  C129  A    
C75   C103  S    
C18   C95   S    
C32   C48   S    
O15   Zn2   S    
C15   C20   S    
C79   O40   A    
C130  H64   S    
C86   C103  A    
C43   C93   A    
O25   Zn7   S    
C64   O7    A    
C35   C82   A    
C19   C98   S    
C20   H43   S    
C83   O28   A    
C21   H44   S    
C2    C45   A    
C71   O4    A    
C39   H58   S    
C88   C94   A    
C4    H27   S    
C12   C100  S    
C22   C31   A    
O39   Zn9   S    
O58   Zn16  S    
C77   O42   A    
C101  C119  A    
C5    H28   S    
O1    Zn3   S    
C28   C32   A    
C18   H41   S    
O37   Zn11  S    
O21   Zn2   S    
O3    Zn5   S    
C28   H51   S    
C6    C11   S    
C85   C116  S    
O22   Zn5   S    
C53   C57   T    
C95   C100  A    
O27   Zn5   S    
C116  C133  A    
O12   Zn11  S    
C33   C50   S    
C37   O51   D    
C125  H45   S    
C34   C104  S    
O34   Zn15  S    
C3    C132  A    
O12   Zn9   S    
C76   O37   A    
O60   Zn7   S    
C27   H50   S    
O42   Zn12  S    
C3    H8    S    
C8    H14   S    
C23   C30   A    
C6    H29   S    
C17   H22   S    
C8    H31   S    
C9    C86   S    
C99   C117  A    
C88   C106  A    
C16   C101  S    
C60   O3    A    
C98   C116  A    
C87   C105  A    
C28   C82   A    
C14   H37   S    
C11   C88   S    
O8    Zn11  S    
C20   H26   S    
C55   C64   S    
C89   C107  A    
C15   H20   S    
O32   Zn11  S    
C13   C21   A    
C75   O36   A    
C84   O44   A    
C17   C96   S    
C68   C110  S    
O34   Zn8   S    
C89   C92   A    
C66   O9    A    
C84   O29   A    
C19   H42   S    
C23   H47   S    
C129  H63   S    
C23   C126  A    
C16   H39   S    
C37   H55   S    
C7    H30   S    
C45   C54   S    
C35   C104  A    
C76   C107  S    
O56   Zn4   S    
C35   C51   S    
C85   O46   A    
C22   C24   A    
C96   C113  A    
C67   O13   A    
O20   Zn3   S    
O12   Zn4   S    
C12   C18   S    
O45   Zn3   S    
C48   C62   T    
C127  H56   S    
C102  C120  A    
C135  H6    S    
O33   Zn1   S    
C1    O58   A    
C54   C58   T    
C7    C92   S    
C49   O56   A    
C9    H15   S    
C81   C114  S    
O18   Zn16  S    
C5    H10   S    
C72   O32   A    
C15   H38   S    
C81   O27   A    
C16   H21   S    
O44   Zn12  S    
C114  C132  A    
C41   C126  S    
C30   C46   S    
C9    H32   S    
C85   O30   A    
C97   C102  A    
O16   Zn3   S    
C12   H18   S    
C77   C119  S    
C1    C61   S    
C69   O15   A    
C47   C61   T    
O30   Zn6   S    
C42   H61   S    
C38   H57   S    
C39   O53   D    
O4    Zn6   S    
C76   O21   A    
O35   Zn9   S    
C98   C101  A    
C64   O5    A    
C41   O55   D    
C78   O43   A    
C49   C59   S    
C29   H52   S    
C27   C115  A    
C95   C112  A    
C8    C87   S    
C70   O16   A    
O41   Zn15  S    
C122  C125  A    
C132  H3    S    
C66   O11   A    
C136  H7    S    
O48   Zn13  S    
C22   H46   S    
C131  H2    S    
C1    O45   A    
C134  H5    S    
C29   C93   A    
C6    H11   S    
C49   O59   A    
C92   C110  A    
C73   C106  S    
O23   Zn14  S    
O5    Zn1   S    
C75   O20   A    
C2    C42   S    
C16   C19   S    
C68   O33   A    
C4    H9    S    
C79   C117  S    
C38   C93   S    
C24   C40   S    
C25   H48   S    
C109  C127  A    
C62   C71   S    
C2    C25   A    
C51   C55   T    
O1    Zn10  S    
C15   C102  S    
C69   O35   A    
C40   O54   D    
C37   C82   S    
C128  H62   S    
C118  C135  A    
C13   C39   S    
C18   H24   S    
C3    C120  A    
C11   H17   S    
O1    Zn16  S    
C90   C108  A    
C58   C67   S    
C73   O38   A    
C100  C118  A    
C133  H4    S    
C113  C131  A    
O26   Zn8   S    
C5    C8    S    
C40   H59   S    
C70   C108  S    
C65   O6    A    
O12   Zn2   S    
C112  C130  A    
C4    C9    S    
O6    Zn9   S    
C36   C115  S    
O2    Zn8   S    
C41   H60   S    
C79   O25   A    
C13   C44   A    
C60   O60   A    
C52   C56   T    
C78   O24   A    
C74   C105  S    
C119  C136  A    
C103  C121  A    
