data_mof_unit_40749.cif
_audit_creation_date              2012-12-10T18:10:53-0500
_audit_creation_method            fapswitch 2.2
_symmetry_space_group_name_H-M    P1
_symmetry_Int_Tables_number       1
_space_group_crystal_system       triclinic
_cell_length_a                    12.58731
_cell_length_b                    13.212216
_cell_length_c                    15.739565
_cell_angle_alpha                 89.683327
_cell_angle_beta                  102.030095
_cell_angle_gamma                 83.031217
_cell_volume                      2539.9079137

loop_
_atom_site_label
_atom_site_type_symbol
_atom_type_description
_atom_site_fract_x
_atom_site_fract_y
_atom_site_fract_z
_atom_type_partial_charge
C1    C     C_R   0.440163 0.690284 0.481325 0.900843
C2    C     C_R   0.596456 0.200262 0.511786 -0.052943
C3    C     C_R   0.295010 0.836379 0.454200 -0.208482
C4    C     C_R   0.500464 0.499520 0.661437 0.904685
C5    C     C_R   0.262953 0.940570 0.450398 -0.149529
C6    C     C_R   0.341159 0.007357 0.457238 -0.159637
C7    C     C_R   0.453295 0.970526 0.463104 0.015751
C8    C     C_R   0.481997 0.866093 0.449121 -0.005246
C9    C     C_R   0.537427 0.034114 0.481645 0.068202
C10   C     C_R   0.646548 0.995600 0.479245 0.126224
C11   C     C_R   0.670534 0.896403 0.454916 -0.409164
C12   C     C_3   0.401512 0.441501 0.032099 -0.392955
C13   C     C_R   0.586774 0.834042 0.429471 0.487775
C14   C     C_R   0.516525 0.134862 0.504676 -0.241173
C15   C     C_R   0.704429 0.162003 0.509880 -0.212998
C16   C     C_R   0.560634 0.308955 0.510962 0.852720
C17   C     C_R   0.404777 0.798166 0.457298 -0.095226
C18   C     C_R   0.088024 0.346521 0.382091 -0.315387
C19   C     C_R   0.799079 0.631332 0.599394 0.031063
C20   C     C_R   0.902987 0.661641 0.618208 -0.269239
C21   C     C_R   0.984442 0.612638 0.579863 -0.208086
C22   C     C_R   0.961898 0.532669 0.522054 0.012732
C23   C     C_3   0.499057 0.492971 0.082261 0.369898
C24   C     C_R   0.854280 0.505321 0.504495 0.231799
C25   C     C_R   0.041256 0.479042 0.481070 -0.015209
C26   C     C_R   0.011051 0.400580 0.422755 0.199776
C27   C     C_R   0.904537 0.376307 0.405905 -0.297838
C28   C     C_R   0.499829 0.498910 0.338543 0.919343
C29   C     C_R   0.827595 0.427748 0.446446 -0.229133
C30   C     C_R   0.150360 0.499145 0.495947 -0.054861
C31   C     C_R   0.194451 0.370052 0.399800 0.007017
C32   C     C_3   0.403150 0.440639 0.934162 -0.394976
C33   C     C_3   0.488369 0.604287 0.948417 -0.396041
C34   C     C_3   0.607014 0.433308 0.067398 -0.398358
C35   C     C_3   0.489245 0.603945 0.046476 -0.406949
C36   C     C_1   0.499110 0.495570 0.249337 -0.203130
C37   C     C_3   0.500461 0.493488 0.917276 0.363186
C38   C     C_3   0.689637 0.744712 0.338191 0.094997
C39   C     C_3   0.681604 0.665716 0.267755 -0.318037
C40   C     C_3   0.765251 0.675225 0.211372 -1.013272
C41   C     C_3   0.608674 0.435137 0.969566 -0.394811
C42   C     C_1   0.498668 0.493512 0.173826 -0.131636
C43   C     C_1   0.501422 0.494713 0.825943 -0.126552
C44   C     C_1   0.501637 0.496993 0.750618 -0.184503
C45   C     C_R   0.729956 0.058988 0.495856 -0.173754
H1    H     H_    0.322851 0.483510 0.041540 0.169594
H2    H     H_    0.310789 0.087313 0.456146 0.125180
H3    H     H_    0.177875 0.969713 0.446761 0.134937
H4    H     H_    0.324490 0.480711 0.896272 0.168708
H5    H     H_    0.255488 0.328871 0.369375 0.133533
H6    H     H_    0.880590 0.316669 0.361507 0.152082
H7    H     H_    0.066205 0.286509 0.337524 0.140161
H8    H     H_    0.181264 0.556539 0.539279 0.126981
H9    H     H_    0.735183 0.669455 0.628574 0.136106
H10   H     H_    0.063515 0.639283 0.596419 0.137038
H11   H     H_    0.920322 0.723062 0.662205 0.149714
H12   H     H_    0.410546 0.360492 0.912518 0.168250
H13   H     H_    0.747725 0.404826 0.430946 0.213266
H14   H     H_    0.556603 0.644394 0.935634 0.167997
H15   H     H_    0.410398 0.647219 0.912047 0.167282
H16   H     H_    0.412964 0.648778 0.057830 0.169129
H17   H     H_    0.559455 0.641970 0.080395 0.178218
H18   H     H_    0.619660 0.355548 0.947079 0.166677
H19   H     H_    0.679625 0.472630 0.958949 0.169240
H20   H     H_    0.614651 0.352884 0.091647 0.165941
H21   H     H_    0.768892 0.723813 0.385015 0.144247
H22   H     H_    0.688030 0.820354 0.305727 0.136575
H23   H     H_    0.406245 0.361860 0.057378 0.165971
H24   H     H_    0.698193 0.587992 0.298060 0.248941
H25   H     H_    0.597888 0.677116 0.226566 0.224163
H26   H     H_    0.748858 0.750835 0.176797 0.265605
H27   H     H_    0.759955 0.615099 0.162325 0.262874
H28   H     H_    0.849488 0.665753 0.252116 0.274213
H29   H     H_    0.678654 0.467463 0.104208 0.167905
H30   H     H_    0.767804 0.211767 0.516374 0.160028
H31   H     H_    0.754413 0.870247 0.451721 0.140176
H32   H     H_    0.813563 0.030150 0.493281 0.131589
H33   H     H_    0.437248 0.165175 0.515348 0.155946
H34   H     H_    0.234219 0.785791 0.457231 0.156253
N1    N     N_R   0.222200 0.444690 0.455710 -0.101335
N2    N     N_R   0.776960 0.554780 0.543830 -0.124178
O1    O     O_R   0.366740 0.627160 0.478850 -0.632846
O2    O     O_R   0.544830 0.662520 0.507140 -0.580346
O3    O     O_R   0.410920 0.482310 0.608710 -0.612885
O4    O     O_R   0.589010 0.517670 0.637000 -0.618817
O5    O     O_R   0.455170 0.337480 0.492860 -0.623884
O6    O     O_R   0.633260 0.372840 0.521150 -0.642692
O7    O     O_R   0.410990 0.482330 0.363000 -0.612916
O8    O     O_R   0.589080 0.517690 0.391290 -0.620892
O9    O     O_3   0.601581 0.745520 0.382061 -0.618791
Zn1   Zn    Zn3+2 0.381090 0.476390 0.481110 0.938434
Zn2   Zn    Zn3+2 0.618910 0.523610 0.518890 0.949739

loop_
_geom_bond_atom_site_label_1
_geom_bond_atom_site_label_2
_ccdc_geom_bond_type
C15   H30   S    
C8    C13   A    
C40   H26   S    
C13   O9    S    
C27   C29   A    
C36   C42   T    
C19   C20   A    
C18   C26   A    
C20   H11   S    
C3    H34   S    
C18   H7    S    
C7    C8    A    
O2    Zn2   S    
C12   H23   S    
C12   C23   S    
C26   C27   A    
C23   C42   S    
C11   H31   S    
C5    C6    A    
C40   H28   S    
C24   C29   A    
N2    Zn2   S    
C38   H21   S    
C22   C25   A    
C28   O7    A    
C16   O6    A    
C28   O8    A    
O3    Zn1   S    
C2    C16   S    
C9    C10   A    
C30   N1    A    
C33   H14   S    
C21   C22   A    
C12   C32   S    
C16   O5    A    
C34   C41   S    
C32   H12   S    
C34   H20   S    
C30   H8    S    
O4    Zn2   S    
C27   H6    S    
C5    H3    S    
C6    H2    S    
C31   N1    A    
C12   H1    S    
C39   C40   S    
C21   H10   S    
C4    O4    A    
C4    C44   S    
C1    O1    A    
C33   C37   S    
O1    Zn1   S    
C37   C43   S    
C9    C14   A    
C4    O3    A    
O7    Zn1   S    
C23   C34   S    
C20   C21   A    
C10   C45   A    
C39   H24   S    
C35   H16   S    
C32   C37   S    
C38   H22   S    
O8    Zn2   S    
C2    C15   A    
C24   N2    A    
C34   H29   S    
C19   H9    S    
C33   H15   S    
C23   C35   S    
C43   C44   T    
C22   C24   A    
C41   H18   S    
C31   H5    S    
C25   C30   A    
C7    C9    A    
C40   H27   S    
C3    C5    A    
C6    C7    A    
C1    O2    A    
C38   O9    S    
C1    C17   S    
C8    C17   A    
O5    Zn1   S    
N1    Zn1   S    
C25   C26   A    
C19   N2    A    
C11   C13   A    
C38   C39   S    
C33   C35   S    
C39   H25   S    
C3    C17   A    
C35   H17   S    
C14   H33   S    
C37   C41   S    
C2    C14   A    
C32   H4    S    
C10   C11   A    
C29   H13   S    
C28   C36   S    
C15   C45   A    
C45   H32   S    
C18   C31   A    
C41   H19   S    
O6    Zn2   S    
