data_mof_unit_16666.cif
_audit_creation_date              2012-12-10T20:27:54-0500
_audit_creation_method            fapswitch 2.2
_symmetry_space_group_name_H-M    P1
_symmetry_Int_Tables_number       1
_space_group_crystal_system       triclinic
_cell_length_a                    12.903643
_cell_length_b                    10.697854
_cell_length_c                    9.838115
_cell_angle_alpha                 90.323899
_cell_angle_beta                  97.468872
_cell_angle_gamma                 90.060106
_cell_volume                      1346.52004171

loop_
_atom_site_label
_atom_site_type_symbol
_atom_type_description
_atom_site_fract_x
_atom_site_fract_y
_atom_site_fract_z
_atom_type_partial_charge
C1    C     C_R   0.498323 0.259934 0.499479 0.884853
C2    C     C_R   0.030851 0.519974 0.569146 0.024068
C3    C     C_R   0.970625 0.530283 0.440613 0.087255
C4    C     C_R   0.863910 0.519450 0.431106 -0.258416
C5    C     C_R   0.876313 0.477040 0.678175 0.071894
C6    C     C_R   0.984414 0.490960 0.685799 -0.209392
C7    C     C_R   0.487074 0.064582 0.620586 0.123383
C8    C     C_R   0.485846 0.128341 0.497499 -0.097750
C9    C     C_R   0.468309 0.063591 0.372470 -0.228064
C10   C     C_R   0.468385 0.934640 0.372795 -0.240071
C11   C     C_R   0.485409 0.871554 0.498193 -0.099810
C12   C     C_R   0.298463 0.513347 0.473327 0.895676
C13   C     C_R   0.486463 0.937044 0.620923 0.135863
C14   C     C_3   0.561715 0.930597 0.749653 -0.493488
C15   C     C_3   0.563458 0.072165 0.748448 -0.478785
C16   C     C_R   0.471886 0.394921 0.065807 0.220976
C17   C     C_R   0.538063 0.599028 0.079158 -0.144941
C18   C     C_R   0.538472 0.598750 0.935126 -0.159228
C19   C     C_R   0.471566 0.395167 0.923082 0.218076
C20   C     C_3   0.368620 0.330019 0.899123 -0.495062
C21   C     C_3   0.369152 0.328931 0.053434 -0.527232
C22   C     C_R   0.498336 0.740071 0.499966 0.856380
C23   C     C_R   0.702390 0.496676 0.527979 0.873324
C24   C     C_R   0.815744 0.496187 0.547936 -0.105070
C25   C     C_R   0.186357 0.538714 0.459395 -0.215144
C26   C     C_R   0.017150 0.558449 0.324138 -0.256690
C27   C     C_R   0.125683 0.565583 0.331949 0.041903
C28   C     C_R   0.137715 0.538779 0.579869 0.407255
H1    H     H_    0.818204 0.532512 0.331638 0.168516
H2    H     H_    0.637663 0.887472 0.733860 0.200852
H3    H     H_    0.529082 0.114526 0.835646 0.198750
H4    H     H_    0.640181 0.111865 0.730410 0.198583
H5    H     H_    0.567171 0.679797 0.138884 0.150459
H6    H     H_    0.568629 0.678659 0.886348 0.144619
H7    H     H_    0.305925 0.389268 0.845414 0.266087
H8    H     H_    0.374399 0.235200 0.854221 0.195318
H9    H     H_    0.306226 0.386494 0.088472 0.211494
H10   H     H_    0.375878 0.233302 0.096726 0.193907
H11   H     H_    0.968627 0.576692 0.227807 0.151394
H12   H     H_    0.033745 0.479153 0.782204 0.170339
H13   H     H_    0.461563 0.111445 0.275223 0.162696
H14   H     H_    0.461990 0.885335 0.275622 0.176400
H15   H     H_    0.524581 0.892364 0.836392 0.197167
N1    N     N_R   0.499290 0.499140 0.142710 -0.104548
N2    N     N_R   0.499290 0.499180 0.857070 -0.099884
O1    O     O_R   0.500010 0.316790 0.614690 -0.620427
O2    O     O_R   0.500000 0.316760 0.385350 -0.619493
O3    O     O_R   0.346360 0.499990 0.595720 -0.558681
O4    O     O_R   0.346350 0.499960 0.366370 -0.630004
O5    O     O_R   0.500000 0.683240 0.614650 -0.636838
O6    O     O_R   0.499990 0.683210 0.385310 -0.629707
O7    O     O_R   0.653650 0.500040 0.633630 -0.638368
O8    O     O_R   0.653640 0.500010 0.404280 -0.615150
Zn1   Zn    Zn3+2 0.500010 0.500020 0.653130 0.941654
Zn2   Zn    Zn3+2 0.499990 0.499980 0.346870 0.935302
C29   C     C_3   0.826251 0.443404 0.806132 -0.372342
C30   C     C_3   0.900833 0.408206 0.935206 -0.403626
C31   C     C_3   0.839839 0.369268 0.051237 -0.875549
H16   H     H_    0.788983 0.446979 0.077991 0.257598
H17   H     H_    0.790646 0.285994 0.020431 0.261054
H18   H     H_    0.895241 0.345403 0.143418 0.258312
H19   H     H_    0.951511 0.329054 0.911741 0.233771
H20   H     H_    0.950505 0.489853 0.971304 0.212823
H21   H     H_    0.779556 0.524680 0.834015 0.222024
H22   H     H_    0.773480 0.362057 0.780071 0.215341
C32   C     C_3   0.171035 0.620508 0.210614 -0.378528
C33   C     C_3   0.217339 0.750497 0.247972 -0.304786
C34   C     C_3   0.250571 0.815946 0.123577 -0.928629
H23   H     H_    0.311609 0.760653 0.080519 0.267169
H24   H     H_    0.181817 0.828678 0.044553 0.257707
H25   H     H_    0.282692 0.909757 0.153915 0.253507
H26   H     H_    0.158028 0.809498 0.290185 0.219221
H27   H     H_    0.286211 0.742503 0.327589 0.220851
H28   H     H_    0.229759 0.558126 0.174012 0.218308
H29   H     H_    0.108866 0.630669 0.121762 0.178419
O9    O     O_3   0.195192 0.554310 0.708338 -0.651072
C35   C     C_3   0.182039 0.677592 0.756988 0.050290
H30   H     H_    0.202662 0.676035 0.869860 0.167248
H31   H     H_    0.099434 0.710238 0.737355 0.131465
C36   C     C_3   0.254782 0.770402 0.697480 -0.322670
H32   H     H_    0.337173 0.742558 0.728925 0.250783
H33   H     H_    0.239249 0.769336 0.583824 0.196762
C37   C     C_3   0.238950 0.903593 0.747263 -0.985386
H34   H     H_    0.155060 0.929824 0.728773 0.266981
H35   H     H_    0.283452 0.969957 0.690740 0.270821
H36   H     H_    0.267701 0.912439 0.858062 0.269935

loop_
_geom_bond_atom_site_label_1
_geom_bond_atom_site_label_2
_ccdc_geom_bond_type
C8    C9    A    
C16   C21   S    
C10   H14   S    
C1    C8    S    
C5    C29   S    
C19   C20   S    
C12   O3    A    
C12   O4    A    
C23   O7    A    
C15   H4    S    
C35   H30   S    
C25   C28   A    
O3    Zn1   S    
C26   C27   A    
O5    Zn1   S    
C16   C19   A    
C5    C6    A    
C4    C24   A    
C1    O1    A    
C31   H17   S    
C29   H22   S    
C32   H28   S    
C29   C30   S    
C33   H26   S    
C20   H7    S    
C21   H10   S    
C34   H23   S    
C23   C24   S    
C29   H21   S    
C30   H20   S    
C33   H27   S    
C9    C10   A    
C16   N1    A    
C4    H1    S    
C22   O5    A    
C31   H18   S    
O8    Zn2   S    
C32   C33   S    
C13   C14   S    
C2    C6    A    
C17   H5    S    
C14   H2    S    
C36   C37   S    
O7    Zn1   S    
C23   O8    A    
C35   H31   S    
C33   C34   S    
C7    C8    A    
O9    C35   S    
C36   H33   S    
C1    O2    A    
C30   H19   S    
C31   H16   S    
O4    Zn2   S    
C37   H34   S    
O1    Zn1   S    
C17   C18   A    
C18   H6    S    
C37   H35   S    
N2    Zn1   S    
C6    H12   S    
C3    C4    A    
C28   O9    S    
C18   N2    A    
O2    Zn2   S    
C35   C36   S    
C3    C26   A    
C36   H32   S    
C19   N2    A    
C15   H3    S    
C25   C27   A    
C11   C22   S    
C9    H13   S    
C12   C25   S    
C2    C3    A    
C17   N1    A    
C27   C32   S    
C11   C13   A    
N1    Zn2   S    
C30   C31   S    
C5    C24   A    
C34   H25   S    
C32   H29   S    
C7    C15   S    
O6    Zn2   S    
C26   H11   S    
C10   C11   A    
C20   H8    S    
C7    C13   A    
C37   H36   S    
C21   H9    S    
C20   C21   S    
C34   H24   S    
C14   C15   S    
C14   H15   S    
C2    C28   A    
C22   O6    A    
