data_mof_unit_66903.cif
_audit_creation_date              2013-03-05T15:57:25-0500
_audit_creation_method            fapswitch 2.2
_symmetry_space_group_name_H-M    P1
_symmetry_Int_Tables_number       1
_space_group_crystal_system       triclinic
_cell_length_a                    17.509703
_cell_length_b                    18.82286
_cell_length_c                    8.514391
_cell_angle_alpha                 90.000413
_cell_angle_beta                  102.119234
_cell_angle_gamma                 89.950042
_cell_volume                      2743.6525759

loop_
_atom_site_label
_atom_site_type_symbol
_atom_site_description
_atom_site_fract_x
_atom_site_fract_y
_atom_site_fract_z
_atom_type_partial_charge
P1    P     P_3+3 0.834140 0.419320 0.003900 0.987044
P2    P     P_3+3 0.834140 0.580680 0.503900 0.986912
P3    P     P_3+3 0.334140 0.919320 0.003900 0.987032
P4    P     P_3+3 0.334140 0.080680 0.503900 0.986938
O1    O     O_2   0.841960 0.394640 0.833410 -0.482735
O2    O     O_2   0.841960 0.605360 0.333410 -0.482654
O3    O     O_2   0.341960 0.894640 0.833410 -0.482849
O4    O     O_2   0.341960 0.105360 0.333410 -0.482612
O5    O     O_3   0.907950 0.463080 0.102990 -0.452373
O6    O     O_3   0.907950 0.536920 0.602990 -0.452666
O7    O     O_3   0.407950 0.963080 0.102990 -0.452333
O8    O     O_3   0.407950 0.036920 0.602990 -0.452670
O9    O     O_3   0.972780 0.329600 0.629720 -0.445379
O10   O     O_3   0.972780 0.670400 0.129720 -0.445209
O11   O     O_3   0.472780 0.829600 0.629720 -0.445420
O12   O     O_3   0.472780 0.170400 0.129720 -0.445237
O13   O     O_2   0.845740 0.275009 0.704352 -0.487611
O14   O     O_2   0.845658 0.724957 0.204228 -0.487326
O15   O     O_2   0.345839 0.774892 0.704487 -0.487726
O16   O     O_2   0.345628 0.224913 0.204222 -0.487368
O17   O     O_3   0.751239 0.473173 0.957759 -0.653336
O18   O     O_3   0.751204 0.526987 0.457936 -0.653468
O19   O     O_3   0.251241 0.973173 0.957790 -0.653320
O20   O     O_3   0.251207 0.026981 0.457935 -0.653440
O21   O     O_3   0.943724 0.184903 0.633171 -0.621745
O22   O     O_3   0.943681 0.815059 0.133644 -0.621737
O23   O     O_3   0.443854 0.684880 0.632902 -0.621797
O24   O     O_3   0.443611 0.315046 0.133681 -0.621812
H1    H     H_    0.047750 0.233866 0.744792 0.119850
H2    H     H_    0.047844 0.765965 0.244563 0.120214
H3    H     H_    0.547726 0.733921 0.745100 0.120044
H4    H     H_    0.547753 0.265990 0.244833 0.120148
C1    C     C_3   0.067376 0.125632 0.711020 -0.407517
C2    C     C_3   0.067300 0.874210 0.211052 -0.407974
C3    C     C_3   0.567610 0.625768 0.710890 -0.407169
C4    C     C_3   0.567191 0.374248 0.211322 -0.407979
H5    H     H_    0.631238 0.636727 0.741962 0.081775
H6    H     H_    0.630884 0.363495 0.241476 0.081788
H7    H     H_    0.131042 0.136402 0.741383 0.081669
H8    H     H_    0.130990 0.863434 0.241183 0.081751
H9    H     H_    0.045925 0.106225 0.816195 0.154905
H10   H     H_    0.045963 0.893511 0.316481 0.155311
H11   H     H_    0.545959 0.606085 0.815650 0.154575
H12   H     H_    0.545823 0.393555 0.316709 0.155384
P5    P     P_3+3 0.165830 0.418670 0.685610 1.003915
P6    P     P_3+3 0.165830 0.581330 0.185610 1.004122
P7    P     P_3+3 0.665830 0.918670 0.685610 1.003759
P8    P     P_3+3 0.665830 0.081330 0.185610 1.003906
P9    P     P_3+3 0.106645 0.269446 0.110430 1.001881
P10   P     P_3+3 0.106548 0.730584 0.610299 1.001991
P11   P     P_3+3 0.606646 0.769440 0.110406 1.001715
P12   P     P_3+3 0.606495 0.230635 0.610382 1.001964
O25   O     O_2   0.157990 0.394030 0.856030 -0.482014
O26   O     O_2   0.157990 0.605970 0.356030 -0.481989
O27   O     O_2   0.657990 0.894030 0.856030 -0.481861
O28   O     O_2   0.657990 0.105970 0.356030 -0.482165
O29   O     O_3   0.027110 0.329490 0.059550 -0.382179
O30   O     O_3   0.027110 0.670510 0.559550 -0.381836
O31   O     O_3   0.527110 0.829490 0.059550 -0.382175
O32   O     O_3   0.527110 0.170510 0.559550 -0.381916
O33   O     O_2   0.163074 0.281907 0.997130 -0.514011
O34   O     O_2   0.162657 0.718387 0.496167 -0.514576
O35   O     O_2   0.663072 0.781906 0.997100 -0.514057
O36   O     O_2   0.662728 0.218372 0.496518 -0.514422
O37   O     O_3   0.243970 0.478911 0.721260 -0.665663
O38   O     O_3   0.243986 0.520987 0.222061 -0.665469
O39   O     O_3   0.743949 0.978922 0.721568 -0.665601
O40   O     O_3   0.743981 0.020982 0.221832 -0.665533
O41   O     O_3   0.070920 0.185548 0.051622 -0.626899
O42   O     O_3   0.070512 0.814541 0.552239 -0.626146
O43   O     O_3   0.570897 0.685550 0.051550 -0.626853
O44   O     O_3   0.570458 0.314585 0.552178 -0.626379
C5    C     C_3   0.027341 0.163149 0.161750 0.319968
C6    C     C_3   0.027995 0.837159 0.664138 0.318852
C7    C     C_3   0.527408 0.663132 0.161820 0.319861
C8    C     C_3   0.527685 0.337151 0.663695 0.319086
H13   H     H_    0.972980 0.195468 0.145841 0.050020
H14   H     H_    0.974188 0.804352 0.651487 0.050435
H15   H     H_    0.473186 0.695609 0.146470 0.050025
H16   H     H_    0.473729 0.304499 0.650175 0.050412
H17   H     H_    0.061413 0.167752 0.286980 -0.012795
H18   H     H_    0.063337 0.833483 0.788468 -0.013645
H19   H     H_    0.561664 0.667501 0.286944 -0.012965
H20   H     H_    0.562702 0.333184 0.788245 -0.013226
C9    C     C_3   0.006320 0.085296 0.131345 -0.239803
C10   C     C_3   0.005635 0.914670 0.632129 -0.238852
C11   C     C_3   0.506034 0.585383 0.130926 -0.239326
C12   C     C_3   0.505682 0.414786 0.632277 -0.239417
H21   H     H_    0.459939 0.581954 0.020573 0.097135
H22   H     H_    0.459436 0.417851 0.522104 0.097580
H23   H     H_    0.960383 0.081584 0.020813 0.097145
H24   H     H_    0.959272 0.917416 0.522090 0.097783
H25   H     H_    0.057990 0.055032 0.112655 0.107801
H26   H     H_    0.056660 0.945351 0.611661 0.107274
H27   H     H_    0.557510 0.554983 0.111660 0.107655
H28   H     H_    0.556886 0.445342 0.612339 0.107464
C13   C     C_3   0.218159 0.453504 0.257265 0.280128
C14   C     C_3   0.218359 0.546453 0.756909 0.280633
C15   C     C_3   0.718197 0.953517 0.257270 0.280288
C16   C     C_3   0.718203 0.046472 0.756788 0.280454
H29   H     H_    0.196103 0.456721 0.369695 0.043168
H30   H     H_    0.197319 0.543364 0.870550 0.040683
H31   H     H_    0.696235 0.956776 0.369809 0.042811
H32   H     H_    0.696609 0.043395 0.869768 0.041775
H33   H     H_    0.172230 0.433746 0.156665 0.108709
H34   H     H_    0.171706 0.566104 0.657468 0.109369
H35   H     H_    0.672210 0.933729 0.156818 0.108830
H36   H     H_    0.671956 0.066178 0.656654 0.109149
C17   C     C_3   0.285474 0.399956 0.280944 -0.437374
C18   C     C_3   0.285504 0.600050 0.777664 -0.436122
C19   C     C_3   0.785509 0.899970 0.280821 -0.437164
C20   C     C_3   0.785445 0.099965 0.779037 -0.436589
H37   H     H_    0.336224 0.421109 0.238026 0.149536
H38   H     H_    0.336856 0.577849 0.738332 0.149168
H39   H     H_    0.836295 0.921171 0.238114 0.149598
H40   H     H_    0.836315 0.078357 0.737093 0.149457
H41   H     H_    0.304727 0.385990 0.409845 0.067658
H42   H     H_    0.303868 0.616295 0.905493 0.067421
H43   H     H_    0.804702 0.885883 0.409652 0.067594
H44   H     H_    0.804545 0.114707 0.907505 0.067419
H45   H     H_    0.267287 0.350685 0.212495 0.125391
H46   H     H_    0.267478 0.648182 0.704284 0.126575
H47   H     H_    0.767341 0.850763 0.212126 0.125461
H48   H     H_    0.767238 0.148859 0.708968 0.125678
Ba1   Ba    Ba6+2 0.000000 0.447380 0.844850 1.773372
Ba2   Ba    Ba6+2 0.000000 0.552620 0.344850 1.773559
Ba3   Ba    Ba6+2 0.500000 0.947380 0.844850 1.773330
Ba4   Ba    Ba6+2 0.500000 0.052620 0.344850 1.773473
C21   C     C_3   0.769758 0.545272 0.952357 0.268298
C22   C     C_3   0.769657 0.454840 0.452721 0.268524
C23   C     C_3   0.269772 0.045263 0.952249 0.268352
C24   C     C_3   0.269668 0.954837 0.452688 0.268520
H49   H     H_    0.760253 0.561224 0.824463 -0.025481
H50   H     H_    0.760329 0.438893 0.324859 -0.025683
H51   H     H_    0.260277 0.061165 0.824324 -0.025468
H52   H     H_    0.260347 0.938906 0.324819 -0.025606
H53   H     H_    0.829650 0.560187 0.014508 0.058258
H54   H     H_    0.829480 0.439809 0.515288 0.058480
H55   H     H_    0.329661 0.060185 0.014401 0.058193
H56   H     H_    0.329491 0.939809 0.515260 0.058466
C25   C     C_3   0.713345 0.585505 0.031308 -0.344393
C26   C     C_3   0.713004 0.414761 0.531217 -0.344703
C27   C     C_3   0.213360 0.085542 0.031108 -0.344466
C28   C     C_3   0.213018 0.914736 0.531154 -0.344681
H57   H     H_    0.653608 0.569660 0.974421 0.117419
H58   H     H_    0.653316 0.430912 0.474312 0.117241
H59   H     H_    0.153632 0.069659 0.974273 0.117417
H60   H     H_    0.153330 0.930875 0.474235 0.117239
H61   H     H_    0.721248 0.643607 0.020206 0.104478
H62   H     H_    0.720712 0.356638 0.519747 0.104246
H63   H     H_    0.221242 0.143640 0.019850 0.104503
H64   H     H_    0.220744 0.856617 0.519669 0.104107
H65   H     H_    0.720976 0.569827 0.158543 0.141660
H66   H     H_    0.720653 0.430231 0.658581 0.141628
H67   H     H_    0.221001 0.069928 0.158386 0.141611
H68   H     H_    0.220652 0.930195 0.658524 0.141599
O45   O     O_3   0.092100 0.536880 0.086720 -0.412436
O46   O     O_3   0.092100 0.463120 0.586720 -0.412526
O47   O     O_3   0.592100 0.036880 0.086720 -0.412449
O48   O     O_3   0.592100 0.963120 0.586720 -0.412681
P13   P     P_3+3 0.898024 0.733278 0.080595 0.981894
P14   P     P_3+3 0.898037 0.266777 0.580542 0.981827
P15   P     P_3+3 0.397996 0.233253 0.080602 0.981998
P16   P     P_3+3 0.398073 0.766746 0.580529 0.981512
C29   C     C_3   0.025113 0.193539 0.651555 0.334404
C30   C     C_3   0.025059 0.806370 0.151540 0.334631
C31   C     C_3   0.525245 0.693651 0.651619 0.334537
C32   C     C_3   0.524999 0.306387 0.151772 0.334585
H69   H     H_    0.040366 0.208055 0.535932 0.016183
H70   H     H_    0.040167 0.791950 0.035698 0.015548
H71   H     H_    0.540586 0.708321 0.536156 0.016259
H72   H     H_    0.540182 0.291968 0.036006 0.015840
H73   H     H_    0.558053 0.583675 0.620299 0.088874
H74   H     H_    0.557047 0.416551 0.121290 0.089179
H75   H     H_    0.057437 0.083371 0.620938 0.089002
H76   H     H_    0.057155 0.916503 0.120983 0.089283
C33   C     C_R   0.141204 0.677735 0.925297 0.097299
C34   C     C_R   0.140904 0.322127 0.425496 0.097735
C35   C     C_R   0.641067 0.177831 0.925409 0.097549
C36   C     C_R   0.640932 0.822145 0.425471 0.097700
C37   C     C_R   0.849690 0.329958 0.273496 -0.193946
C38   C     C_R   0.849879 0.670061 0.773529 -0.194008
C39   C     C_R   0.349684 0.829965 0.273502 -0.193917
C40   C     C_R   0.349859 0.170047 0.773527 -0.193898
C41   C     C_R   0.785645 0.218837 0.305543 -0.122266
C42   C     C_R   0.785720 0.781229 0.805438 -0.122728
C43   C     C_R   0.285632 0.718854 0.305549 -0.122196
C44   C     C_R   0.285683 0.281199 0.805455 -0.122809
C45   C     C_R   0.839193 0.272149 0.369734 0.006133
C46   C     C_R   0.839325 0.727910 0.869695 0.005639
C47   C     C_R   0.339184 0.772159 0.369750 0.005985
C48   C     C_R   0.339296 0.227887 0.869703 0.005883
C49   C     C_R   0.813271 0.334539 0.111172 0.043862
C50   C     C_R   0.813356 0.665449 0.611258 0.044261
C51   C     C_R   0.313288 0.834529 0.111156 0.043921
C52   C     C_R   0.313343 0.165441 0.611255 0.044217
C53   C     C_R   0.758445 0.279231 0.045129 -0.043075
C54   C     C_R   0.758433 0.720727 0.545237 -0.043049
C55   C     C_R   0.258508 0.779190 0.045071 -0.043175
C56   C     C_R   0.258414 0.220716 0.545240 -0.043125
C57   C     C_R   0.244023 0.720364 0.144380 -0.084399
C58   C     C_R   0.243957 0.279608 0.644399 -0.084500
C59   C     C_R   0.743990 0.220377 0.144401 -0.084293
C60   C     C_R   0.743984 0.779625 0.644387 -0.084473
C61   C     C_R   0.185723 0.667121 0.080543 -0.055518
C62   C     C_R   0.185561 0.332831 0.580579 -0.055262
C63   C     C_R   0.685664 0.167150 0.080573 -0.055420
C64   C     C_R   0.685589 0.832846 0.580562 -0.055416
C65   C     C_R   0.161211 0.729078 0.823385 -0.052795
C66   C     C_R   0.160897 0.270691 0.323731 -0.052666
C67   C     C_R   0.661038 0.229212 0.823548 -0.052810
C68   C     C_R   0.660908 0.770695 0.323714 -0.052724
C69   C     C_R   0.217329 0.780660 0.883922 -0.140773
C70   C     C_R   0.217087 0.219121 0.384249 -0.141620
C71   C     C_R   0.717194 0.280761 0.884046 -0.141216
C72   C     C_R   0.717101 0.719126 0.384245 -0.141584
H77   H     H_    0.276268 0.677039 0.384135 0.111970
H78   H     H_    0.276344 0.323062 0.883977 0.112389
H79   H     H_    0.776309 0.177009 0.384140 0.112198
H80   H     H_    0.776403 0.823114 0.883939 0.112339
H81   H     H_    0.725451 0.323207 0.805181 0.117014
H82   H     H_    0.725379 0.676665 0.305419 0.117071
H83   H     H_    0.225573 0.823108 0.805053 0.116946
H84   H     H_    0.225369 0.176665 0.305410 0.117127
H85   H     H_    0.886452 0.373359 0.327103 0.102271
H86   H     H_    0.886715 0.626652 0.827150 0.102604
H87   H     H_    0.386437 0.873370 0.327111 0.102258
H88   H     H_    0.386712 0.126646 0.827134 0.102612
C73   C     C_3   0.479983 0.552770 0.275020 -0.274341
C74   C     C_3   0.406819 0.588885 0.307015 -0.183257
C75   C     C_3   0.381298 0.555289 0.449309 -0.321437
H89   H     H_    0.373765 0.497999 0.434707 0.129584
H90   H     H_    0.425939 0.565022 0.556840 0.146956
H91   H     H_    0.325628 0.577483 0.467245 0.138115
H92   H     H_    0.419260 0.645425 0.335929 0.108637
H93   H     H_    0.359710 0.585834 0.197802 0.140536
H94   H     H_    0.469194 0.495649 0.258456 0.117467
H95   H     H_    0.528964 0.556683 0.379099 0.118525
C76   C     C_3   0.479503 0.447521 0.776249 -0.274264
C77   C     C_3   0.406597 0.411213 0.808702 -0.182712
C78   C     C_3   0.380609 0.444883 0.950542 -0.321496
H96   H     H_    0.424733 0.434749 0.058611 0.147099
H97   H     H_    0.373318 0.502251 0.936579 0.128390
H98   H     H_    0.324691 0.422912 0.967336 0.137819
H99   H     H_    0.359554 0.413855 0.699361 0.140929
H100  H     H_    0.419419 0.354767 0.838163 0.108417
H101  H     H_    0.528564 0.443957 0.880278 0.118546
H102  H     H_    0.468210 0.504578 0.759017 0.117408
C79   C     C_3   0.980194 0.052752 0.275420 -0.274130
C80   C     C_3   0.906902 0.088794 0.307005 -0.183160
C81   C     C_3   0.881217 0.055213 0.449130 -0.322445
H103  H     H_    0.874071 0.997888 0.434944 0.129348
H104  H     H_    0.925494 0.065267 0.556952 0.147126
H105  H     H_    0.825337 0.077172 0.466302 0.138379
H106  H     H_    0.919220 0.145363 0.335835 0.108416
H107  H     H_    0.859896 0.085642 0.197651 0.140640
H108  H     H_    0.969538 0.995594 0.259026 0.117476
H109  H     H_    0.029111 0.056837 0.379572 0.118610
C82   C     C_3   0.979483 0.947512 0.775997 -0.274405
C83   C     C_3   0.906681 0.911144 0.808804 -0.182837
C84   C     C_3   0.880732 0.944936 0.950522 -0.321557
H110  H     H_    0.924883 0.934944 0.058654 0.146901
H111  H     H_    0.873438 0.002274 0.936055 0.128984
H112  H     H_    0.824828 0.922988 0.967472 0.138061
H113  H     H_    0.859567 0.913662 0.699550 0.140748
H114  H     H_    0.919597 0.854739 0.838531 0.108572
H115  H     H_    0.028590 0.944151 0.879997 0.118556
H116  H     H_    0.968051 0.004528 0.758387 0.117559
N1    N     N_R   0.066836 0.645214 0.878107 0.052146
O49   O     O_R   0.007410 0.687677 0.853131 -0.484257
O50   O     O_R   0.060417 0.585195 0.801565 -0.364477
N2    N     N_R   0.066503 0.354696 0.378247 0.052306
O51   O     O_R   0.007166 0.312218 0.352887 -0.484250
O52   O     O_R   0.060057 0.414694 0.301584 -0.364270
N3    N     N_R   0.566674 0.145349 0.878246 0.052143
O53   O     O_R   0.507302 0.187876 0.853068 -0.484454
O54   O     O_R   0.560215 0.085327 0.801707 -0.364420
N4    N     N_R   0.566550 0.854748 0.378199 0.052335
O55   O     O_R   0.507180 0.812307 0.352873 -0.484126
O56   O     O_R   0.560139 0.914742 0.301524 -0.364274

loop_
_geom_bond_atom_site_label_1
_geom_bond_atom_site_label_2
_geom_bond_distance
_ccdc_geom_bond_type
C24   C28   1.509817 S    
P6    C61   1.913415 S    
C15   H31   1.106549 S    
C12   H28   1.108279 S    
P1    O17   1.745540 S    
P5    C62   1.912696 S    
C14   C18   1.531691 S    
C26   H58   1.098301 S    
C13   H33   1.109046 S    
C67   C71   1.400944 A    
C76   C77   1.524029 S    
C2    H10   1.103603 S    
C4    C32   1.509570 S    
C79   H109  1.098703 S    
C28   H60   1.098270 S    
O24   P15   1.750155 S    
C7    H19   1.110536 S    
C3    H11   1.103997 S    
C18   H42   1.111160 S    
C9    H23   1.104448 S    
C54   C60   1.447384 A    
C25   H61   1.109009 S    
O9    P14   1.749001 S    
O8    Ba3   2.877617 S    
C22   H50   1.107872 S    
C77   H99   1.107076 S    
C20   H44   1.109896 S    
C9    C79   1.524946 S    
O26   Ba2   2.926513 S    
C79   C80   1.524092 S    
C1    H7    1.109062 S    
C7    H15   1.113135 S    
P7    C64   1.912669 S    
P1    O1    1.557270 D    
C4    H74   1.093515 S    
O38   C13   1.402054 S    
C76   H101  1.098816 S    
C3    H5    1.109250 S    
P1    Ba1   3.493002 S    
O37   C14   1.402041 S    
C20   H48   1.106427 S    
P3    O3    1.557270 D    
O29   Ba1   2.850438 S    
C84   H110  1.086994 S    
P4    O20   1.745681 S    
O14   P13   1.542366 D    
P3    Ba3   3.493002 S    
C81   H104  1.086774 S    
C20   H40   1.104208 S    
C21   C25   1.509498 S    
O31   Ba3   2.850438 S    
C35   C67   1.392031 A    
C16   H32   1.106555 S    
P9    O29   1.774380 S    
C34   C66   1.391926 A    
C19   H43   1.109749 S    
C78   H96   1.086834 S    
C14   H34   1.109067 S    
C33   C65   1.392076 A    
C57   C61   1.452804 A    
C36   C68   1.391952 A    
C77   C78   1.515731 S    
C40   C52   1.398012 A    
C82   H116  1.096064 S    
C10   H26   1.108312 S    
C9    H25   1.108097 S    
P11   C68   1.864748 S    
O4    Ba4   2.921402 S    
N4    O55   1.293322 A    
C60   C64   1.452325 A    
P10   C65   1.865313 S    
P5    Ba1   3.494526 S    
N2    O51   1.293296 A    
C11   H27   1.108117 S    
P9    C66   1.864634 S    
P2    O18   1.745664 S    
P12   C67   1.865231 S    
C39   C51   1.397934 A    
C40   C48   1.397608 A    
O41   C5    1.392930 S    
P15   C48   1.875174 S    
C38   C50   1.398049 A    
P4    O8    1.612719 S    
O6    Ba1   2.877617 S    
P12   O32   1.774924 S    
C18   H38   1.105015 S    
C84   H111  1.090619 S    
C53   C71   1.409826 A    
P4    O4    1.557349 D    
O9    Ba1   2.851737 S    
C27   H63   1.109016 S    
C54   C72   1.409642 A    
P9    O41   1.733804 S    
N1    O49   1.293207 A    
O18   C22   1.398504 S    
C77   H100  1.103692 S    
C8    H20   1.110408 S    
P2    O2    1.557349 D    
P11   O43   1.733880 S    
C6    H18   1.110498 S    
C1    H75   1.093403 S    
C71   H81   1.072899 S    
C5    H17   1.110554 S    
C34   N2    1.418921 S    
C51   C55   1.448023 A    
P7    O48   1.617819 S    
Ba2   O46   2.877586 S    
O12   P15   1.748307 S    
C29   H69   1.107106 S    
P8    O47   1.618976 S    
C35   C63   1.400758 A    
C16   H36   1.108957 S    
P9    O33   1.537043 D    
P4    Ba4   3.492233 S    
C19   H47   1.106138 S    
P10   O30   1.774943 S    
C68   C72   1.400472 A    
O11   P16   1.748957 S    
O32   Ba4   2.851062 S    
O13   P14   1.542354 D    
P11   O35   1.537062 D    
O2    Ba2   2.921402 S    
C36   N4    1.418936 S    
P12   O36   1.537226 D    
C39   H87   1.080535 S    
C52   C56   1.447314 A    
C37   C45   1.397453 A    
C26   H62   1.109027 S    
C80   H107  1.107327 S    
Ba1   O46   3.001312 S    
C38   H86   1.080505 S    
C81   H105  1.099500 S    
C31   H71   1.107215 S    
C37   H85   1.080545 S    
P3    O19   1.745491 S    
C11   C73   1.524995 S    
O16   P15   1.542335 D    
C42   H80   1.067927 S    
P3    C51   1.911945 S    
O19   C23   1.398579 S    
C39   C47   1.397454 A    
C76   H102  1.096133 S    
C78   H97   1.090798 S    
C3    H73   1.093950 S    
C28   H68   1.103552 S    
C27   H59   1.097877 S    
C36   C64   1.400868 A    
C2    H76   1.093592 S    
O42   C6    1.393009 S    
C73   C74   1.523972 S    
P12   O44   1.734268 S    
C14   H30   1.106814 S    
O23   P16   1.750347 S    
P8    Ba4   3.495313 S    
C13   C17   1.530997 S    
O20   C24   1.398503 S    
C13   H29   1.106515 S    
C3    C31   1.509556 S    
C73   H95   1.098752 S    
C37   C49   1.397879 A    
C35   N3    1.419010 S    
O21   P14   1.750169 S    
C24   H52   1.107866 S    
C15   C19   1.530985 S    
P6    O26   1.556578 D    
C81   H103  1.090157 S    
P1    O5    1.613863 S    
O44   C8    1.393172 S    
C75   H90   1.087445 S    
C26   H66   1.103539 S    
P14   C45   1.875309 S    
C41   C45   1.404012 A    
O12   Ba4   2.851111 S    
O17   C21   1.398585 S    
O25   Ba1   2.924859 S    
O39   C16   1.401985 S    
C21   H49   1.107912 S    
P2    Ba2   3.492233 S    
C56   C58   1.447379 A    
C7    C11   1.520060 S    
N3    O53   1.293226 A    
H3    C31   1.109951 S    
O30   Ba2   2.851062 S    
C44   H78   1.067839 S    
N1    O50   1.297348 A    
P5    O37   1.754481 S    
Ba1   Ba2   4.695515 S    
P10   O34   1.537120 D    
N4    O56   1.297317 A    
C4    H12   1.103595 S    
P11   O31   1.774441 S    
C40   H88   1.080517 S    
C83   H114  1.103625 S    
C82   C83   1.524013 S    
P2    O6    1.612719 S    
Ba3   O47   2.879214 S    
C41   C59   1.412461 A    
C42   C60   1.412284 A    
C23   C27   1.509460 S    
Ba4   O48   2.877586 S    
P7    O27   1.556655 D    
C43   H77   1.067898 S    
H2    C30   1.109825 S    
C58   C62   1.452356 A    
C80   H106  1.103954 S    
P4    C52   1.911108 S    
C8    C12   1.520258 S    
O22   C30   1.410227 S    
C12   H22   1.104503 S    
C41   H79   1.067997 S    
P16   C47   1.875421 S    
N3    O54   1.297366 A    
C23   H55   1.107288 S    
C55   C69   1.409911 A    
Ba1   O45   2.879214 S    
C43   C47   1.403984 A    
C56   C70   1.409615 A    
P6    Ba2   3.495313 S    
C1    C29   1.509577 S    
P5    O46   1.617819 S    
C8    H16   1.113046 S    
H4    C32   1.109819 S    
C79   H108  1.095992 S    
P13   C46   1.875177 S    
P8    O40   1.754433 S    
C33   N1    1.418967 S    
C6    C10   1.520003 S    
O27   Ba3   2.924859 S    
C84   H112  1.099861 S    
C19   H39   1.103907 S    
C17   H41   1.109867 S    
P6    O38   1.754457 S    
C16   C20   1.531133 S    
Ba3   Ba4   4.695515 S    
C17   H37   1.103943 S    
C24   H56   1.107357 S    
C15   H35   1.109036 S    
C43   C57   1.412402 A    
O22   P13   1.750216 S    
C23   H51   1.107913 S    
O5    Ba2   2.879246 S    
O10   Ba2   2.851111 S    
C27   H67   1.103506 S    
C44   C48   1.403657 A    
C78   H98   1.099826 S    
O21   C29   1.410151 S    
C74   H93   1.107433 S    
Ba2   O45   3.001032 S    
O10   P13   1.748276 S    
C4    H6    1.109069 S    
O7    Ba4   2.879246 S    
C80   C81   1.514984 S    
O40   C15   1.402034 S    
C1    H9    1.103592 S    
C5    C9    1.520154 S    
C28   H64   1.109028 S    
C10   H24   1.104567 S    
C83   C84   1.515479 S    
O43   C7    1.392900 S    
C74   H92   1.103883 S    
C69   H83   1.072886 S    
C25   H65   1.103489 S    
C50   C54   1.447318 A    
C59   C63   1.452864 A    
P7    Ba3   3.494526 S    
C82   H115  1.098935 S    
C49   C53   1.447975 A    
C34   C62   1.400818 A    
P8    C63   1.913448 S    
C44   C58   1.412263 A    
C25   H57   1.097923 S    
C30   H70   1.107215 S    
C33   C61   1.400667 A    
C53   C59   1.447773 A    
C17   H45   1.106237 S    
H1    C29   1.109907 S    
O15   P16   1.542407 D    
O28   Ba4   2.926513 S    
P1    C49   1.911961 S    
P10   O42   1.734120 S    
C74   C75   1.515016 S    
C22   C26   1.509806 S    
C65   C69   1.401016 A    
C10   C82   1.525564 S    
C72   H82   1.072792 S    
P3    O7    1.613863 S    
C75   H91   1.099917 S    
O24   C32   1.410182 S    
P5    O25   1.556655 D    
O3    Ba3   2.923041 S    
C83   H113  1.107172 S    
C32   H72   1.107160 S    
C21   H53   1.107283 S    
P8    O28   1.556578 D    
N2    O52   1.297326 A    
C6    H14   1.113095 S    
O1    Ba1   2.923041 S    
C75   H89   1.090453 S    
C55   C57   1.447723 A    
C11   H21   1.104576 S    
C5    H13   1.113225 S    
C12   C76   1.525737 S    
C2    H8    1.109096 S    
O11   Ba3   2.851737 S    
C42   C46   1.403683 A    
C38   C46   1.397637 A    
P2    C50   1.911169 S    
C66   C70   1.400452 A    
C2    C30   1.509512 S    
C73   H94   1.095785 S    
Ba3   O48   3.001312 S    
P7    O39   1.754374 S    
C18   H46   1.107923 S    
C70   H84   1.072805 S    
Ba4   O47   3.001032 S    
O23   C31   1.410206 S    
P6    O45   1.618976 S    
C22   H54   1.107362 S    
