data_mof_unit_48340.cif
_audit_creation_date              2012-12-10T20:37:31-0500
_audit_creation_method            fapswitch 2.2
_symmetry_space_group_name_H-M    P1
_symmetry_Int_Tables_number       1
_space_group_crystal_system       triclinic
_cell_length_a                    15.713454
_cell_length_b                    10.659494
_cell_length_c                    9.92835
_cell_angle_alpha                 89.7228
_cell_angle_beta                  91.430932
_cell_angle_gamma                 90.774096
_cell_volume                      1662.28632648

loop_
_atom_site_label
_atom_site_type_symbol
_atom_type_description
_atom_site_fract_x
_atom_site_fract_y
_atom_site_fract_z
_atom_type_partial_charge
C1    C     C_R   0.498504 0.260361 0.500231 0.890394
C2    C     C_3   0.083428 0.491585 0.501104 -0.012335
C3    C     C_3   0.976145 0.608722 0.548683 0.146081
C4    C     C_3   0.916720 0.499186 0.503998 0.044600
C5    C     C_3   0.028083 0.585109 0.422229 0.247994
C6    C     C_3   0.968158 0.477066 0.375560 -0.251062
C7    C     C_1   0.174172 0.491867 0.498049 -0.058280
C8    C     C_1   0.825943 0.500559 0.505100 -0.036799
C9    C     C_R   0.515420 0.063223 0.616049 0.116720
C10   C     C_R   0.488791 0.128592 0.502015 -0.137032
C11   C     C_R   0.446912 0.066284 0.395060 -0.301720
C12   C     C_R   0.338144 0.498607 0.498717 0.887733
C13   C     C_R   0.443535 0.935711 0.394782 0.201667
C14   C     C_R   0.485023 0.871146 0.501758 -0.144318
C15   C     C_R   0.513441 0.935711 0.616109 0.107620
C16   C     C_3   0.596333 0.927532 0.692873 -0.491204
C17   C     C_3   0.598760 0.069665 0.691639 -0.462937
C18   C     C_R   0.426875 0.473501 0.068371 0.125224
C19   C     C_R   0.567782 0.544360 0.075836 -0.126206
C20   C     C_R   0.567760 0.547385 0.932473 0.212201
C21   C     C_R   0.428294 0.468350 0.927227 0.059872
C22   C     C_3   0.373094 0.351886 0.921457 0.351735
C23   C     C_R   0.496835 0.739571 0.499722 0.882801
C24   C     C_3   0.368976 0.360589 0.076819 -0.111175
C25   C     C_R   0.661876 0.500519 0.501483 0.898981
C26   C     C_3   0.971947 0.405169 0.582824 0.233152
C27   C     C_3   0.024309 0.381671 0.456078 -0.236758
C28   C     C_1   0.249358 0.494730 0.496802 -0.191698
C29   C     C_1   0.750706 0.500841 0.504499 -0.196903
C30   C     C_3   0.031097 0.513311 0.627363 0.185843
H1    H     H_    0.045860 0.289279 0.419891 0.159391
H2    H     H_    0.647463 0.884766 0.633454 0.194460
H3    H     H_    0.593023 0.111021 0.793413 0.204698
H4    H     H_    0.650852 0.110096 0.630462 0.199140
H5    H     H_    0.622812 0.577631 0.133536 0.159399
H6    H     H_    0.400269 0.281730 0.131663 0.168363
H7    H     H_    0.940406 0.463724 0.272625 0.157948
H8    H     H_    0.419143 0.118222 0.311211 0.156888
H9    H     H_    0.588289 0.887561 0.795446 0.209784
N1    N     N_R   0.499430 0.499140 0.142800 -0.123458
N2    N     N_R   0.499430 0.499180 0.857150 -0.109941
O1    O     O_R   0.500010 0.316790 0.614690 -0.617090
O2    O     O_R   0.500000 0.316760 0.385350 -0.621012
O3    O     O_R   0.376780 0.500010 0.614650 -0.593979
O4    O     O_R   0.376770 0.499970 0.385310 -0.611733
O5    O     O_R   0.500000 0.683240 0.614650 -0.627983
O6    O     O_R   0.499990 0.683210 0.385310 -0.583234
O7    O     O_R   0.623230 0.500030 0.614690 -0.620909
O8    O     O_R   0.623220 0.499990 0.385350 -0.619569
Zn1   Zn    Zn3+2 0.500010 0.500020 0.653130 0.945207
Zn2   Zn    Zn3+2 0.499990 0.499980 0.346870 0.954490
C31   C     C_3   0.644554 0.603809 0.867909 -0.842892
H10   H     H_    0.625300 0.665719 0.783188 0.268694
H11   H     H_    0.681975 0.663370 0.940013 0.192951
H12   H     H_    0.687113 0.528226 0.835238 0.248099
N3    N     N_2   0.293742 0.376714 0.846275 -0.251310
H13   H     H_    0.262938 0.458233 0.870229 0.224513
C32   C     C_3   0.237707 0.272588 0.809617 -0.764106
H14   H     H_    0.177148 0.309303 0.766701 0.245763
H15   H     H_    0.223942 0.212811 0.898365 0.232591
H16   H     H_    0.266528 0.214947 0.730501 0.241456
C33   C     C_3   0.418869 0.232383 0.877948 -0.847982
H17   H     H_    0.487696 0.236896 0.906058 0.213672
H18   H     H_    0.390388 0.149042 0.928151 0.212783
H19   H     H_    0.410752 0.217552 0.768691 0.270852
C34   C     C_3   0.281314 0.390089 0.133442 -0.867448
H20   H     H_    0.282428 0.375168 0.243608 0.260475
H21   H     H_    0.261963 0.487974 0.110603 0.235852
H22   H     H_    0.232109 0.324342 0.092819 0.241486
N4    N     N_2   0.935869 0.307389 0.666508 -0.296973
H23   H     H_    0.889014 0.338016 0.728769 0.218483
C35   C     C_3   0.996331 0.225225 0.732563 -0.790316
H24   H     H_    0.961923 0.143305 0.775537 0.238357
H25   H     H_    0.030348 0.275404 0.815916 0.252930
H26   H     H_    0.042814 0.190114 0.659655 0.244654
N5    N     N_2   0.063376 0.680958 0.334994 -0.295294
H27   H     H_    0.117304 0.652555 0.287222 0.226571
C36   C     C_3   0.003064 0.740050 0.243418 -0.800120
H28   H     H_    0.034659 0.820061 0.191903 0.238486
H29   H     H_    0.948147 0.776406 0.298469 0.253217
H30   H     H_    0.979920 0.672012 0.165958 0.230448
C37   C     C_3   0.946473 0.735013 0.599373 -0.895383
H31   H     H_    0.002510 0.794943 0.626608 0.247899
H32   H     H_    0.907404 0.782426 0.520424 0.241297
H33   H     H_    0.906582 0.720801 0.688881 0.237647
N6    N     N_2   0.071075 0.529035 0.759537 -0.302666
H34   H     H_    0.124095 0.587044 0.759387 0.229953
C38   C     C_3   0.015263 0.554212 0.869440 -0.826395
H35   H     H_    0.049354 0.534404 0.966341 0.241935
H36   H     H_    0.957257 0.493935 0.863730 0.247935
H37   H     H_    0.996956 0.654352 0.868450 0.242847
N7    N     N_2   0.402564 0.871129 0.285342 -0.279487
H38   H     H_    0.402098 0.920504 0.195672 0.216287
C39   C     C_3   0.319378 0.820109 0.315590 -0.743219
H39   H     H_    0.274086 0.897355 0.332392 0.224672
H40   H     H_    0.322672 0.759501 0.406748 0.233737
H41   H     H_    0.295284 0.762275 0.229697 0.231999

loop_
_geom_bond_atom_site_label_1
_geom_bond_atom_site_label_2
_ccdc_geom_bond_type
C34   H21   S    
C11   H8    S    
C18   C21   A    
C19   C20   A    
C4    C8    S    
C20   N2    A    
C26   C27   S    
C24   H6    S    
C12   C28   S    
C18   C24   S    
C8    C29   T    
N5    C36   S    
C5    C6    S    
C36   H29   S    
C34   H22   S    
O4    Zn2   S    
C32   H15   S    
C15   C16   S    
N3    H13   S    
C18   N1    A    
C33   H18   S    
C1    O2    A    
O6    Zn2   S    
C2    C7    S    
C16   C17   S    
O8    Zn2   S    
N4    H23   S    
C30   N6    S    
C9    C10   A    
C31   H12   S    
C24   C34   S    
C32   H16   S    
O7    Zn1   S    
C34   H20   S    
C23   O5    A    
C21   C22   S    
C17   H3    S    
C35   H26   S    
C31   H11   S    
C25   C29   S    
C23   O6    A    
C27   H1    S    
N5    H27   S    
C4    C6    S    
C10   C11   A    
N6    H34   S    
C35   H24   S    
C22   N3    S    
C39   H41   S    
C32   H14   S    
C7    C28   T    
C14   C23   S    
C3    C30   S    
C33   H17   S    
C22   C33   S    
C6    C27   S    
C38   H37   S    
C3    C37   S    
N7    C39   S    
C6    H7    S    
C9    C17   S    
C39   H40   S    
C25   O7    A    
C2    C27   S    
O1    Zn1   S    
C21   N2    A    
C35   H25   S    
C38   H36   S    
C26   C30   S    
C37   H32   S    
C13   N7    S    
C26   N4    S    
C22   C24   S    
C2    C5    S    
C17   H4    S    
C3    C4    S    
N1    Zn2   S    
N2    Zn1   S    
C31   H10   S    
O3    Zn1   S    
C33   H19   S    
C36   H28   S    
C1    C10   S    
C12   O4    A    
C3    C5    S    
C4    C26   S    
C16   H2    S    
C37   H33   S    
O5    Zn1   S    
C2    C30   S    
C5    N5    S    
C9    C15   A    
C12   O3    A    
C19   H5    S    
C11   C13   A    
C36   H30   S    
O2    Zn2   S    
N7    H38   S    
N3    C32   S    
N6    C38   S    
C39   H39   S    
C25   O8    A    
C19   N1    A    
C16   H9    S    
C1    O1    A    
C38   H35   S    
C20   C31   S    
C37   H31   S    
C14   C15   A    
N4    C35   S    
C13   C14   A    
