data_mof_unit_60247.cif
_audit_creation_date              2012-12-10T18:28:41-0500
_audit_creation_method            fapswitch 2.2
_symmetry_space_group_name_H-M    P1
_symmetry_Int_Tables_number       1
_space_group_crystal_system       triclinic
_cell_length_a                    21.73992
_cell_length_b                    21.750642
_cell_length_c                    21.242288
_cell_angle_alpha                 120.604914
_cell_angle_beta                  120.66934
_cell_angle_gamma                 90.31426
_cell_volume                      6942.66846598

loop_
_atom_site_label
_atom_site_type_symbol
_atom_type_description
_atom_site_fract_x
_atom_site_fract_y
_atom_site_fract_z
_atom_type_partial_charge
C1    C     C_R   0.084625 0.584611 0.669220 0.794894
C2    C     C_R   0.977666 0.232460 0.207625 -0.100412
C3    C     C_R   0.246198 0.433680 0.429569 0.100725
C4    C     C_R   0.312491 0.500619 0.499160 -0.102917
C5    C     C_R   0.313689 0.566589 0.567400 0.001710
C6    C     C_R   0.248300 0.564680 0.564424 -0.200707
C7    C     C_R   0.183069 0.498505 0.496344 -0.106199
C8    C     C_R   0.180990 0.432659 0.428036 -0.050568
C9    C     C_R   0.418802 0.669776 0.733634 0.177998
C10   C     C_R   0.482262 0.739365 0.802446 0.169031
C11   C     C_R   0.507167 0.777625 0.778011 -0.182608
C12   C     C_R   0.117745 0.499352 0.498448 0.818718
C13   C     C_R   0.469974 0.747073 0.686613 -0.154208
C14   C     C_R   0.407489 0.678365 0.618708 -0.175778
C15   C     C_R   0.381252 0.639158 0.641183 0.089467
C16   C     C_1   0.135895 0.635870 0.771746 -0.194220
C17   C     C_1   0.178313 0.678301 0.856699 -0.021255
C18   C     C_1   0.228588 0.728604 0.957465 -0.007574
C19   C     C_1   0.271032 0.771059 0.042434 0.000667
C20   C     C_1   0.321436 0.821468 0.143223 -0.002393
C21   C     C_1   0.363965 0.863995 0.228195 -0.182408
C22   C     C_R   0.932667 0.407327 0.673893 -0.134840
C23   C     C_R   0.915256 0.415380 0.330766 0.810045
C24   C     C_R   0.872595 0.415297 0.611961 -0.229275
C25   C     C_R   0.876959 0.487439 0.630084 0.107087
C26   C     C_R   0.941915 0.552556 0.712080 0.152684
C27   C     C_R   0.001854 0.543956 0.774369 -0.194125
C28   C     C_R   0.997733 0.471331 0.755155 0.218500
C29   C     C_R   0.748246 0.495768 0.561899 -0.221260
C30   C     C_R   0.687001 0.503727 0.500727 -0.086359
C31   C     C_R   0.690319 0.511898 0.440657 0.000565
C32   C     C_R   0.754825 0.509912 0.441681 -0.213864
C33   C     C_R   0.815456 0.500681 0.501753 -0.077994
C34   C     C_R   0.881632 0.500184 0.500694 0.785836
C35   C     C_R   0.812653 0.494002 0.562874 0.033846
C36   C     C_R   0.592470 0.477977 0.285841 -0.141076
C37   C     C_R   0.537939 0.494098 0.229222 -0.132914
C38   C     C_R   0.521358 0.559950 0.266620 -0.132316
C39   C     C_R   0.558953 0.609563 0.360632 -0.103925
C40   C     C_R   0.612941 0.593258 0.417458 -0.101913
C41   C     C_R   0.630058 0.527203 0.380345 0.106621
C42   C     C_1   0.863675 0.364135 0.228217 -0.171843
C43   C     C_1   0.821127 0.321665 0.143246 -0.009843
C44   C     C_1   0.770944 0.271258 0.042465 -0.010044
C45   C     C_R   0.029444 0.241012 0.288558 -0.133039
C46   C     C_1   0.728664 0.228794 0.957498 -0.014773
C47   C     C_1   0.678463 0.178440 0.856728 -0.033460
C48   C     C_1   0.636033 0.135895 0.771764 -0.187302
C49   C     C_R   0.496672 0.619841 0.499724 0.831755
C50   C     C_R   0.379830 0.500428 0.499892 0.858509
C51   C     C_R   0.501632 0.380158 0.499923 0.850307
C52   C     C_R   0.620044 0.502024 0.500125 0.827798
C53   C     C_R   0.500366 0.118981 0.500363 0.822356
C54   C     C_R   0.415339 0.915340 0.330755 0.815702
C55   C     C_R   0.500058 0.881626 0.500477 0.842592
C56   C     C_R   0.095812 0.306397 0.360783 -0.106630
C57   C     C_R   0.584664 0.084544 0.669235 0.796182
C58   C     C_R   0.278832 0.490301 0.213854 -0.134065
C59   C     C_R   0.345702 0.555136 0.278943 -0.101541
C60   C     C_R   0.357010 0.616599 0.358351 0.116141
C61   C     C_R   0.299345 0.613705 0.370033 -0.186247
C62   C     C_R   0.232702 0.548671 0.305059 -0.123439
C63   C     C_R   0.222609 0.486841 0.227215 -0.101460
C64   C     C_R   0.431567 0.749148 0.430096 0.093871
C65   C     C_R   0.498801 0.814559 0.499596 -0.066375
C66   C     C_R   0.563485 0.816003 0.568641 -0.045252
C67   C     C_R   0.110146 0.363963 0.352570 0.103691
C68   C     C_R   0.560744 0.751832 0.567724 -0.259237
C69   C     C_R   0.494758 0.686096 0.498650 -0.130270
C70   C     C_R   0.429081 0.684246 0.429327 -0.053944
C71   C     C_R   0.695762 0.896007 0.641377 0.049426
C72   C     C_R   0.761977 0.961574 0.715793 -0.169471
C73   C     C_R   0.767186 0.015337 0.793641 -0.118802
C74   C     C_R   0.706361 0.003980 0.797649 -0.131159
C75   C     C_R   0.639757 0.939337 0.723460 -0.184152
C76   C     C_R   0.633863 0.884996 0.644927 0.064463
C77   C     C_R   0.499480 0.233008 0.247151 -0.175479
C78   C     C_R   0.057967 0.355194 0.271290 -0.183568
C79   C     C_R   0.480096 0.227147 0.297862 -0.137297
C80   C     C_R   0.536615 0.260009 0.390085 0.112343
C81   C     C_R   0.612620 0.298865 0.431163 -0.195922
C82   C     C_R   0.632024 0.304063 0.380169 -0.171846
C83   C     C_R   0.575531 0.271320 0.288175 0.083950
C84   C     C_R   0.515274 0.189271 0.444199 0.104882
C85   C     C_R   0.501372 0.186163 0.500784 -0.079915
C86   C     C_R   0.488313 0.247170 0.556796 -0.044410
C87   C     C_R   0.489007 0.310213 0.555236 -0.242910
C88   C     C_R   0.502677 0.313553 0.499533 -0.106039
C89   C     C_R   0.992154 0.289328 0.198854 -0.136201
C90   C     C_R   0.516535 0.253706 0.444069 -0.045432
C91   C     C_R   0.406612 0.250644 0.608179 -0.133505
C92   C     C_R   0.395402 0.253531 0.668715 -0.142949
C93   C     C_R   0.453559 0.254882 0.741598 -0.108201
C94   C     C_R   0.523010 0.253359 0.754058 -0.117353
C95   C     C_R   0.534290 0.249880 0.693283 -0.129894
C96   C     C_R   0.475979 0.248276 0.619733 0.135728
Cu1   Cu    Cu3+1 0.000010 0.438210 0.500020 0.956553
Cu2   Cu    Cu3+1 0.999990 0.561790 0.499980 0.954960
Cu3   Cu    Cu3+1 0.457530 0.457560 0.415050 0.979396
Cu4   Cu    Cu3+1 0.542470 0.542480 0.584950 0.954365
Cu5   Cu    Cu3+1 0.561810 0.000000 0.500000 0.978074
Cu6   Cu    Cu3+1 0.438190 0.000000 0.500000 0.971066
H1    H     H_    0.926432 0.181724 0.151650 0.124589
H2    H     H_    0.555644 0.831008 0.829750 0.133308
H3    H     H_    0.489677 0.776710 0.668320 0.152278
H4    H     H_    0.379762 0.655163 0.548312 0.116017
H5    H     H_    0.928623 0.351154 0.658665 0.142399
H6    H     H_    0.822767 0.365065 0.549421 0.138367
H7    H     H_    0.051741 0.593696 0.837620 0.131278
H8    H     H_    0.745409 0.489917 0.608210 0.150638
H9    H     H_    0.758223 0.516405 0.396053 0.153807
H10   H     H_    0.018309 0.196832 0.295172 0.122572
H11   H     H_    0.605523 0.427323 0.256153 0.149016
H12   H     H_    0.508968 0.455835 0.156410 0.132305
H13   H     H_    0.479556 0.572682 0.222794 0.123964
H14   H     H_    0.546575 0.660919 0.389408 0.149116
H15   H     H_    0.642228 0.632634 0.490321 0.111129
H16   H     H_    0.171026 0.436494 0.176992 0.119114
H17   H     H_    0.270731 0.442637 0.153234 0.120795
H18   H     H_    0.389051 0.557055 0.268241 0.121856
H19   H     H_    0.305870 0.661863 0.429113 0.122381
H20   H     H_    0.188819 0.546284 0.314940 0.128899
H21   H     H_    0.135939 0.312302 0.422977 0.122490
H22   H     H_    0.610829 0.752961 0.620823 0.166390
H23   H     H_    0.809762 0.970938 0.713797 0.131158
H24   H     H_    0.818541 0.065721 0.851063 0.130977
H25   H     H_    0.710772 0.045387 0.858279 0.140127
H26   H     H_    0.592909 0.931274 0.727357 0.132241
H27   H     H_    0.455325 0.207384 0.175973 0.130112
H28   H     H_    0.421211 0.197174 0.265491 0.128997
H29   H     H_    0.068670 0.399007 0.263921 0.124946
H30   H     H_    0.656783 0.324600 0.502365 0.129910
H31   H     H_    0.690995 0.333396 0.412249 0.139602
H32   H     H_    0.478916 0.357244 0.597937 0.154639
H33   H     H_    0.361260 0.249991 0.552182 0.123060
H34   H     H_    0.341741 0.255023 0.659327 0.127685
H35   H     H_    0.444942 0.257454 0.788650 0.126064
H36   H     H_    0.568184 0.255250 0.811110 0.137087
H37   H     H_    0.588501 0.249100 0.703889 0.105253
H38   H     H_    0.952262 0.282458 0.135998 0.135178
H39   H     H_    0.248315 0.615069 0.615972 0.154840
O1    O     O_R   0.061970 0.509790 0.623960 -0.562895
O2    O     O_R   0.535870 0.626050 0.571740 -0.590237
O3    O     O_R   0.373960 0.464160 0.428260 -0.554993
O4    O     O_R   0.445680 0.535880 0.571730 -0.592864
O5    O     O_R   0.464130 0.373990 0.428260 -0.577035
O6    O     O_R   0.535860 0.445700 0.571730 -0.593965
O7    O     O_R   0.554320 0.464170 0.428270 -0.573697
O8    O     O_R   0.626040 0.535880 0.571740 -0.592399
O9    O     O_R   0.552180 0.090160 0.499970 -0.557250
O10   O     O_R   0.447790 0.090160 0.499970 -0.581099
O11   O     O_R   0.490230 0.938030 0.376060 -0.558701
O12   O     O_R   0.061960 0.614160 0.623930 -0.566920
O13   O     O_R   0.385840 0.938030 0.376050 -0.562141
O14   O     O_R   0.552210 0.909840 0.500030 -0.583414
O15   O     O_R   0.447820 0.909840 0.500030 -0.565655
O16   O     O_R   0.614160 0.061970 0.623950 -0.564981
O17   O     O_R   0.509770 0.061970 0.623940 -0.565715
O18   O     O_R   0.090190 0.447820 0.500020 -0.577308
O19   O     O_R   0.090170 0.552190 0.499990 -0.584323
O20   O     O_R   0.938040 0.385840 0.376070 -0.557424
O21   O     O_R   0.938030 0.490210 0.376040 -0.568461
O22   O     O_R   0.909830 0.447810 0.500010 -0.575627
O23   O     O_R   0.909810 0.552180 0.499980 -0.580523
O24   O     O_R   0.464140 0.554340 0.428270 -0.580581
N1    N     N_3   0.058636 0.461692 0.817824 -0.595420
H40   H     H_    0.082591 0.429576 0.786217 0.212643
H41   H     H_    0.102112 0.514653 0.875876 0.215109
N2    N     N_3   0.945911 0.626974 0.732246 -0.583149
H42   H     H_    0.953091 0.629107 0.688278 0.213892
H43   H     H_    0.994478 0.669305 0.798271 0.217471
N3    N     N_3   0.366820 0.748936 0.359639 -0.586556
H44   H     H_    0.353354 0.704069 0.296754 0.216072
H45   H     H_    0.320117 0.739266 0.360366 0.231559
C97   C     C_1   0.692302 0.840862 0.562318 0.217692
N4    N     N_1   0.689485 0.796636 0.498915 -0.287016
C98   C     C_1   0.595852 0.276255 0.235726 0.188921
N5    N     N_1   0.612298 0.280101 0.193573 -0.303250
N6    N     N_3   0.526781 0.126137 0.386072 -0.572854
H46   H     H_    0.484603 0.105010 0.318525 0.215742
H47   H     H_    0.580390 0.145980 0.402475 0.231090
N7    N     N_3   0.246356 0.366333 0.362120 -0.572982
H48   H     H_    0.203332 0.351611 0.297761 0.226208
H49   H     H_    0.234268 0.321489 0.364812 0.215085
N8    N     N_3   0.392735 0.629463 0.756915 -0.598995
H50   H     H_    0.379136 0.665967 0.799962 0.236028
H51   H     H_    0.437577 0.615799 0.792627 0.222294
N9    N     N_3   0.520446 0.770726 0.896557 -0.602206
H52   H     H_    0.561915 0.824887 0.938642 0.217036
H53   H     H_    0.549800 0.735644 0.908610 0.211082

loop_
_geom_bond_atom_site_label_1
_geom_bond_atom_site_label_2
_ccdc_geom_bond_type
C66   C68   A    
Cu3   O7    S    
C59   H18   S    
C32   H9    S    
C2    C89   A    
C73   C74   A    
C95   C96   A    
C80   C90   S    
C57   O17   A    
Cu6   O17   S    
Cu1   Cu2   S    
C45   H10   S    
C7    C8    A    
C31   C32   A    
C85   C86   A    
C55   O14   A    
C26   C27   A    
C37   C38   A    
C23   C42   S    
Cu1   O18   S    
N9    H53   S    
C36   C37   A    
C18   C19   T    
C9    N8    S    
C5    C6    A    
N8    H51   S    
C77   C83   A    
Cu4   O6    S    
C73   H24   S    
Cu5   O9    S    
C61   H19   S    
C75   H26   S    
N2    H42   S    
N7    H48   S    
C92   C93   A    
C57   O16   A    
C1    O1    A    
Cu2   O21   S    
C91   C96   A    
C68   C69   A    
C97   N4    T    
C45   C56   A    
C44   C46   T    
C52   O8    A    
Cu1   O22   S    
C17   C18   S    
C47   C48   T    
C10   N9    S    
C11   H2    S    
C24   H6    S    
C64   C70   A    
C9    C10   A    
Cu6   O13   S    
C21   C54   S    
C61   C62   A    
C28   N1    S    
Cu6   O10   S    
C72   C73   A    
C23   O21   A    
C40   H15   S    
Cu2   O12   S    
Cu5   O16   S    
C59   C60   A    
C52   O7    A    
C49   C69   S    
C13   C14   A    
N6    H47   S    
N1    H41   S    
N2    H43   S    
C87   H32   S    
C68   H22   S    
C36   C41   A    
C92   H34   S    
C67   C78   A    
C84   C90   A    
C82   H31   S    
C36   H11   S    
C55   C65   S    
N3    H45   S    
C81   C82   A    
C77   C79   A    
C78   C89   A    
C55   O15   A    
C74   C75   A    
C83   C98   S    
Cu5   Cu6   S    
C29   H8    S    
C48   C57   S    
C38   C39   A    
C24   C25   A    
C26   N2    S    
C13   H3    S    
C34   O22   A    
C10   C11   A    
C91   C92   A    
C63   H16   S    
C86   C87   A    
C16   C17   T    
C81   H30   S    
C54   O11   A    
C37   H12   S    
C51   O5    A    
C25   C26   A    
C79   H28   S    
C12   O19   A    
C79   C80   A    
C4    C50   S    
N9    H52   S    
C50   O3    A    
C64   N3    S    
C84   N6    S    
C75   C76   A    
C56   H21   S    
C49   O24   A    
C29   C30   A    
Cu3   O3    S    
C74   H25   S    
C60   C70   S    
Cu4   O4    S    
C89   H38   S    
C66   C76   S    
C62   C63   A    
C33   C34   S    
C94   C95   A    
C1    C16   S    
C77   H27   S    
C84   C85   A    
C6    H39   S    
C1    O12   A    
C51   O6    A    
C86   C96   S    
C25   C35   S    
C50   O4    A    
C40   C41   A    
Cu3   O5    S    
C88   C90   A    
C3    C8    A    
Cu1   O20   S    
C43   C44   S    
C53   O9    A    
C94   H36   S    
C22   C24   A    
C7    C12   S    
C42   C43   T    
C3    C4    A    
Cu6   O15   S    
C62   H20   S    
N3    H44   S    
C58   C63   A    
C30   C52   S    
C46   C47   S    
C31   C41   S    
C95   H37   S    
C78   H29   S    
C8    C67   S    
Cu2   O19   S    
C80   C81   A    
Cu4   O2    S    
C51   C88   S    
C54   O13   A    
Cu2   O23   S    
C6    C7    A    
Cu4   O8    S    
C56   C67   A    
C93   C94   A    
C29   C35   A    
Cu5   O11   S    
C34   O23   A    
Cu3   Cu4   S    
C72   H23   S    
C64   C65   A    
C19   C20   S    
C53   C85   S    
C58   C59   A    
C71   C72   A    
C32   C33   A    
C38   H13   S    
C11   C13   A    
C30   C31   A    
N8    H50   S    
C71   C76   A    
N1    H40   S    
C2    H1    S    
C39   H14   S    
C49   O2    A    
C58   H17   S    
C33   C35   A    
C71   C97   S    
C65   C66   A    
C12   O18   A    
C9    C15   A    
C69   C70   A    
C3    N7    S    
N7    H49   S    
Cu1   O1    S    
C5    C15   S    
C93   H35   S    
C2    C45   A    
C98   N5    T    
N6    H46   S    
C39   C40   A    
C4    C5    A    
C91   H33   S    
C20   C21   T    
C27   H7    S    
C87   C88   A    
C82   C83   A    
C14   H4    S    
C27   C28   A    
C53   O10   A    
Cu5   O14   S    
C14   C15   A    
C60   C61   A    
C22   C28   A    
C23   O20   A    
C22   H5    S    
Cu3   O24   S    
