data_mof_unit_63825.cif
_audit_creation_date              2012-12-10T20:49:09-0500
_audit_creation_method            fapswitch 2.2
_symmetry_space_group_name_H-M    P1
_symmetry_Int_Tables_number       1
_space_group_crystal_system       triclinic
_cell_length_a                    19.213024
_cell_length_b                    19.20154
_cell_length_c                    19.494431
_cell_angle_alpha                 89.943665
_cell_angle_beta                  94.698303
_cell_angle_gamma                 85.229173
_cell_volume                      7142.65883255

loop_
_atom_site_label
_atom_site_type_symbol
_atom_type_description
_atom_site_fract_x
_atom_site_fract_y
_atom_site_fract_z
_atom_type_partial_charge
Br1   Br    Br    0.513608 0.640390 0.766211 -0.452524
Br2   Br    Br    0.068030 0.660644 0.427549 -0.376736
C1    C     C_R   0.492707 0.689160 0.507269 0.897577
C2    C     C_2   0.481568 0.512959 0.017285 -0.184323
C3    C     C_2   0.520543 0.467778 0.980858 -0.104719
C4    C     C_R   0.507055 0.310851 0.492635 0.796424
C5    C     C_R   0.512456 0.487560 0.762934 -0.157145
C6    C     C_R   0.508062 0.234369 0.488768 -0.009812
C7    C     C_R   0.474546 0.197669 0.536983 -0.185955
C8    C     C_R   0.473640 0.125469 0.532952 -0.154800
C9    C     C_R   0.506386 0.088407 0.480268 0.325158
C10   C     C_R   0.539262 0.125152 0.431888 -0.157879
C11   C     C_R   0.540657 0.197572 0.436261 -0.204321
C12   C     C_R   0.481824 0.509503 0.092672 0.090282
C13   C     C_R   0.463807 0.880459 0.458233 0.576107
C14   C     C_R   0.463661 0.807895 0.454148 0.542578
C15   C     C_R   0.490130 0.911560 0.519494 0.102304
C16   C     C_R   0.689739 0.492181 0.507046 0.850141
C17   C     C_R   0.489908 0.765698 0.511008 -0.253304
C18   C     C_R   0.514591 0.797178 0.572215 -0.243513
C19   C     C_R   0.513781 0.869543 0.576533 -0.245726
C20   C     C_R   0.233259 0.513350 0.493288 -0.302737
C21   C     C_R   0.199653 0.461475 0.525655 0.543764
C22   C     C_R   0.127392 0.468421 0.528930 0.528700
C23   C     C_R   0.458001 0.569537 0.127506 -0.235162
C24   C     C_R   0.086928 0.527048 0.498947 0.030265
C25   C     C_R   0.120484 0.579249 0.467485 0.243896
C26   C     C_R   0.193055 0.572049 0.464142 -0.318133
C27   C     C_R   0.875999 0.543000 0.529593 -0.230519
C28   C     C_R   0.310109 0.508014 0.492950 0.901440
C29   C     C_R   0.803644 0.545291 0.533380 0.624583
C30   C     C_R   0.912054 0.484703 0.500567 0.248613
C31   C     C_R   0.766399 0.489512 0.507791 -0.148185
C32   C     C_R   0.802829 0.431179 0.479977 -0.286300
C33   C     C_R   0.875053 0.428699 0.477055 -0.155739
C34   C     C_R   0.460173 0.569656 0.199090 0.658979
C35   C     C_R   0.507965 0.492137 0.688116 0.867442
C36   C     C_R   0.491518 0.508220 0.311705 0.857295
C37   C     C_R   0.486620 0.509321 0.236560 -0.155290
C38   C     C_R   0.508617 0.448749 0.201649 -0.270616
C39   C     C_R   0.505525 0.448451 0.130322 -0.123432
C40   C     C_R   0.520384 0.540715 0.875302 -0.259457
C41   C     C_R   0.516821 0.547584 0.804041 0.285785
C42   C     C_R   0.512660 0.421583 0.793887 -0.307942
C43   C     C_R   0.517081 0.415017 0.865161 0.684381
C44   C     C_R   0.519569 0.474731 0.906045 -0.023550
F1    F     F_    0.516764 0.350736 0.894165 -0.644612
F2    F     F_    0.439282 0.779084 0.394245 -0.558722
F3    F     F_    0.437204 0.920148 0.403028 -0.583253
F4    F     F_    0.770152 0.602743 0.560213 -0.619364
F5    F     F_    0.097279 0.418611 0.563029 -0.581869
F6    F     F_    0.236454 0.403832 0.554505 -0.577638
F7    F     F_    0.438550 0.629187 0.231475 -0.598130
H1    H     H_    0.527630 0.401196 0.229555 0.193194
H2    H     H_    0.775442 0.387298 0.460431 0.201474
H3    H     H_    0.902337 0.383237 0.455534 0.182862
H4    H     H_    0.509910 0.375022 0.762738 0.197235
H5    H     H_    0.552660 0.424055 0.005022 0.184389
H6    H     H_    0.438919 0.616870 0.099254 0.179379
H7    H     H_    0.523671 0.587031 0.906686 0.199001
H8    H     H_    0.449534 0.555703 0.990785 0.169341
H9    H     H_    0.521302 0.400074 0.105522 0.163140
H10   H     H_    0.564166 0.097446 0.390854 0.168538
H11   H     H_    0.566423 0.224769 0.398130 0.176118
H12   H     H_    0.534206 0.765809 0.616981 0.236904
H13   H     H_    0.446710 0.098969 0.570655 0.171820
H14   H     H_    0.532903 0.893039 0.624168 0.205926
H15   H     H_    0.448809 0.224736 0.577890 0.189615
H16   H     H_    0.903583 0.586589 0.549465 0.201857
H17   H     H_    0.218004 0.612961 0.439705 0.245943
N1    N     N_2   0.506081 0.014830 0.473511 -0.093792
N2    N     N_2   0.491433 0.984759 0.526535 -0.152414
N3    N     N_2   0.013157 0.535398 0.501448 -0.099236
N4    N     N_2   0.985501 0.478981 0.496060 -0.073352
O1    O     O_3   0.500000 0.500000 0.500000 -0.533208
O2    O     O_R   0.546320 0.532340 0.658770 -0.602284
O3    O     O_R   0.450550 0.549430 0.344370 -0.567470
O4    O     O_R   0.467400 0.453980 0.652500 -0.639217
O5    O     O_R   0.535730 0.464240 0.344360 -0.656049
O6    O     O_R   0.656240 0.454400 0.463600 -0.654319
O7    O     O_R   0.340160 0.549180 0.454800 -0.647331
O8    O     O_R   0.536860 0.652450 0.548350 -0.626563
O9    O     O_R   0.466740 0.343960 0.533260 -0.631696
O10   O     O_R   0.451210 0.659450 0.463610 -0.572118
O11   O     O_R   0.545190 0.344140 0.454780 -0.650179
O12   O     O_R   0.656710 0.532590 0.548340 -0.573151
O13   O     O_R   0.346890 0.463830 0.533270 -0.572160
Zn1   Zn    Zn3+2 0.558280 0.441710 0.441700 0.973547
Zn2   Zn    Zn3+2 0.558950 0.553420 0.562770 1.057452
Zn3   Zn    Zn3+2 0.446190 0.441460 0.553820 1.028753
Zn4   Zn    Zn3+2 0.436580 0.563410 0.441710 1.073743

loop_
_geom_bond_atom_site_label_1
_geom_bond_atom_site_label_2
_ccdc_geom_bond_type
C6    C11   A    
N3    N4    D    
C17   C18   A    
C14   F2    S    
C43   C44   A    
O4    Zn3   S    
C24   C25   A    
C16   O12   A    
C4    O11   A    
C3    H5    S    
C22   C24   A    
C27   C30   A    
C30   N4    S    
C36   C37   S    
C9    N1    S    
C36   O5    A    
C13   C14   A    
C24   N3    S    
C32   C33   A    
C40   C44   A    
C34   F7    S    
O1    Zn3   S    
Br1   C41   S    
C6    C7    A    
C21   C22   A    
C29   C31   A    
C1    C17   S    
Br2   C25   S    
O10   Zn4   S    
C5    C41   A    
C7    C8    A    
O1    Zn4   S    
O2    Zn2   S    
C22   F5    S    
C43   F1    S    
C32   H2    S    
C20   C26   A    
C19   H14   S    
C39   H9    S    
O5    Zn1   S    
C27   H16   S    
C8    H13   S    
C30   C33   A    
C18   H12   S    
C40   H7    S    
C37   C38   A    
C10   H10   S    
C4    C6    S    
C2    H8    S    
C15   C19   A    
C42   H4    S    
C27   C29   A    
C1    O8    A    
C31   C32   A    
C5    C35   S    
C5    C42   A    
C10   C11   A    
O8    Zn2   S    
C12   C39   A    
C38   C39   A    
C35   O2    A    
C38   H1    S    
C40   C41   A    
C29   F4    S    
C25   C26   A    
C42   C43   A    
C3    C44   S    
O11   Zn1   S    
C13   C15   A    
O9    Zn3   S    
O3    Zn4   S    
C4    O9    A    
C20   C28   S    
C33   H3    S    
C34   C37   A    
C26   H17   S    
C2    C3    D    
O12   Zn2   S    
C9    C10   A    
C36   O3    A    
C35   O4    A    
C28   O7    A    
C7    H15   S    
N1    N2    D    
O6    Zn1   S    
C21   F6    S    
C11   H11   S    
C14   C17   A    
C13   F3    S    
C12   C23   A    
C2    C12   S    
C16   C31   S    
C8    C9    A    
O1    Zn2   S    
C23   C34   A    
O7    Zn4   S    
O1    Zn1   S    
C18   C19   A    
C15   N2    S    
C16   O6    A    
O13   Zn3   S    
C1    O10   A    
C20   C21   A    
C23   H6    S    
C28   O13   A    
