data_mof_unit_31093.cif
_audit_creation_date              2012-12-11T14:44:31-0500
_audit_creation_method            fapswitch 2.2
_symmetry_space_group_name_H-M    P1
_symmetry_Int_Tables_number       1
_space_group_crystal_system       triclinic
_cell_length_a                    24.816038
_cell_length_b                    16.786372
_cell_length_c                    15.781017
_cell_angle_alpha                 89.999833
_cell_angle_beta                  50.232349
_cell_angle_gamma                 89.999822
_cell_volume                      5053.0078459

loop_
_atom_site_label
_atom_site_type_symbol
_atom_type_description
_atom_site_fract_x
_atom_site_fract_y
_atom_site_fract_z
_atom_type_partial_charge
C1    C     C_R   0.333107 0.107720 0.803024 -0.009160
C2    C     C_R   0.644936 0.850856 0.248872 0.000132
C3    C     C_R   0.666893 0.107720 0.196976 -0.009153
C4    C     C_R   0.355064 0.850856 0.751127 0.000126
C5    C     C_R   0.833107 0.607720 0.803024 -0.009152
C6    C     C_R   0.144937 0.350856 0.248870 0.000136
C7    C     C_R   0.166893 0.607719 0.196976 -0.009142
C8    C     C_R   0.855064 0.350856 0.751129 0.000131
C9    C     C_3   0.306219 0.312142 0.395602 -0.241157
C10   C     C_3   0.751493 0.786388 0.605757 -0.271149
C11   C     C_3   0.693769 0.312167 0.604401 -0.241148
C12   C     C_3   0.248523 0.786365 0.394240 -0.271149
C13   C     C_3   0.806234 0.812175 0.395598 -0.241152
C14   C     C_3   0.251509 0.286415 0.605755 -0.271144
C15   C     C_3   0.193753 0.812202 0.604405 -0.241142
C16   C     C_3   0.748504 0.286393 0.394243 -0.271146
C17   C     C_2   0.689774 0.160133 0.024828 -0.182223
C18   C     C_2   0.366455 0.731236 0.835008 -0.118067
C19   C     C_2   0.310226 0.160134 0.975171 -0.182225
C20   C     C_2   0.633545 0.731237 0.164992 -0.118071
C21   C     C_2   0.189774 0.660132 0.024828 -0.182228
C22   C     C_2   0.866455 0.231237 0.835010 -0.118050
C23   C     C_2   0.810226 0.660134 0.975171 -0.182230
C24   C     C_2   0.133545 0.231237 0.164990 -0.118055
C25   C     C_2   0.759202 0.152791 0.958180 -0.059401
C26   C     C_2   0.298334 0.726805 0.919688 -0.127887
C27   C     C_2   0.240799 0.152792 0.041820 -0.059398
C28   C     C_2   0.701666 0.726806 0.080311 -0.127888
C29   C     C_2   0.259202 0.652791 0.958179 -0.059397
C30   C     C_2   0.798334 0.226805 0.919690 -0.127885
C31   C     C_2   0.740799 0.652792 0.041820 -0.059392
C32   C     C_2   0.201666 0.226806 0.080309 -0.127884
C33   C     C_R   0.587208 0.149071 0.592334 -0.133031
C34   C     C_R   0.384279 0.895374 0.407846 -0.093823
C35   C     C_R   0.412794 0.149072 0.407665 -0.133028
C36   C     C_R   0.615721 0.895372 0.592155 -0.093826
C37   C     C_R   0.087210 0.649070 0.592334 -0.133035
C38   C     C_R   0.884279 0.395372 0.407845 -0.093828
C39   C     C_R   0.912792 0.649071 0.407666 -0.133031
C40   C     C_R   0.115720 0.395370 0.592155 -0.093831
C41   C     C_R   0.661345 0.148727 0.408543 -0.047744
C42   C     C_R   0.309171 0.900491 0.589868 -0.029038
C43   C     C_R   0.338657 0.148728 0.591457 -0.047751
C44   C     C_R   0.690828 0.900487 0.410132 -0.029055
C45   C     C_R   0.161347 0.648725 0.408542 -0.047733
C46   C     C_R   0.809172 0.400486 0.589868 -0.029060
C47   C     C_R   0.838655 0.648727 0.591457 -0.047742
C48   C     C_R   0.190827 0.400483 0.410132 -0.029074
C49   C     C_R   0.576682 0.108361 0.198784 -0.103897
C50   C     C_R   0.445880 0.853489 0.748589 -0.136464
C51   C     C_R   0.423318 0.108361 0.801216 -0.103903
C52   C     C_R   0.554120 0.853489 0.251411 -0.136461
C53   C     C_R   0.076682 0.608361 0.198784 -0.103907
C54   C     C_R   0.945880 0.353489 0.748590 -0.136465
C55   C     C_R   0.923318 0.608361 0.801216 -0.103913
C56   C     C_R   0.054120 0.353489 0.251410 -0.136462
C57   C     C_R   0.353140 0.126639 0.864882 0.016668
C58   C     C_R   0.609595 0.807170 0.223217 0.093952
C59   C     C_R   0.646860 0.126639 0.135118 0.016669
C60   C     C_R   0.390404 0.807169 0.776783 0.093951
C61   C     C_R   0.853141 0.626639 0.864881 0.016669
C62   C     C_R   0.109596 0.307170 0.223215 0.093942
C63   C     C_R   0.146860 0.626639 0.135118 0.016670
C64   C     C_R   0.890404 0.307170 0.776784 0.093941
C65   C     C_R   0.636890 0.193222 0.500105 0.093569
C66   C     C_R   0.316448 0.882057 0.498893 0.077976
C67   C     C_R   0.363113 0.193224 0.499895 0.093563
C68   C     C_R   0.683551 0.882051 0.501108 0.077988
C69   C     C_R   0.136894 0.693219 0.500104 0.093579
C70   C     C_R   0.816450 0.382049 0.498892 0.077992
C71   C     C_R   0.863110 0.693222 0.499895 0.093574
C72   C     C_R   0.183549 0.382044 0.501108 0.078001
C73   C     C_3   0.340489 0.336328 0.445887 0.423924
C74   C     C_3   0.717973 0.761704 0.555109 0.425319
C75   C     C_3   0.659518 0.336339 0.554079 0.423935
C76   C     C_3   0.282022 0.761696 0.444927 0.425333
C77   C     C_3   0.840480 0.836344 0.445930 0.423939
C78   C     C_3   0.217964 0.261713 0.555152 0.425300
C79   C     C_3   0.159527 0.836355 0.554035 0.423949
C80   C     C_3   0.782030 0.261705 0.444882 0.425315
C81   C     C_3   0.769540 0.869514 0.550250 -0.226134
C82   C     C_3   0.287627 0.229966 0.451411 -0.217677
C83   C     C_3   0.230480 0.869503 0.449713 -0.226163
C84   C     C_3   0.712356 0.229978 0.548624 -0.217693
C85   C     C_3   0.269563 0.369526 0.550206 -0.226097
C86   C     C_3   0.787649 0.729983 0.451366 -0.217695
C87   C     C_3   0.730456 0.369515 0.449759 -0.226127
C88   C     C_3   0.212334 0.729997 0.548671 -0.217711
C89   C     C_3   0.735883 0.843379 0.500213 0.012526
C90   C     C_3   0.321746 0.254852 0.501274 0.016955
C91   C     C_3   0.264115 0.843383 0.499788 0.012531
C92   C     C_3   0.678257 0.254850 0.498726 0.016953
C93   C     C_3   0.235882 0.343372 0.500215 0.012516
C94   C     C_3   0.821743 0.754851 0.501274 0.016954
C95   C     C_3   0.764117 0.343376 0.499786 0.012522
C96   C     C_3   0.178260 0.754849 0.498724 0.016953
H1    H     H_    0.560467 0.164452 0.677311 0.123994
H2    H     H_    0.405465 0.895495 0.322956 0.111383
H3    H     H_    0.439535 0.164453 0.322689 0.124007
H4    H     H_    0.594535 0.895494 0.677045 0.111399
H5    H     H_    0.060469 0.664451 0.677311 0.123976
H6    H     H_    0.905465 0.395494 0.322955 0.111406
H7    H     H_    0.939533 0.664452 0.322689 0.123989
H8    H     H_    0.094534 0.395493 0.677045 0.111421
H9    H     H_    0.702398 0.165987 0.324601 0.108083
H10   H     H_    0.259773 0.910216 0.671002 0.119998
H11   H     H_    0.297603 0.165988 0.675399 0.108091
H12   H     H_    0.740226 0.910212 0.328999 0.120003
H13   H     H_    0.202399 0.665985 0.324600 0.108072
H14   H     H_    0.759774 0.410211 0.671001 0.120004
H15   H     H_    0.797602 0.665987 0.675399 0.108079
H16   H     H_    0.240226 0.410207 0.328999 0.120009
H17   H     H_    0.546803 0.106740 0.170618 0.106463
H18   H     H_    0.483531 0.837822 0.758988 0.144459
H19   H     H_    0.453197 0.106741 0.829382 0.106463
H20   H     H_    0.516469 0.837822 0.241012 0.144448
H21   H     H_    0.046802 0.606740 0.170618 0.106463
H22   H     H_    0.983530 0.337822 0.758990 0.144476
H23   H     H_    0.953198 0.606741 0.829382 0.106462
H24   H     H_    0.016469 0.337822 0.241011 0.144465
H25   H     H_    0.761292 0.927999 0.589805 0.171457
H26   H     H_    0.294720 0.171981 0.411434 0.168464
H27   H     H_    0.238743 0.927980 0.410128 0.171442
H28   H     H_    0.705249 0.172003 0.588630 0.168459
H29   H     H_    0.261333 0.428022 0.589725 0.171474
H30   H     H_    0.794760 0.672011 0.411353 0.168458
H31   H     H_    0.738699 0.428003 0.410211 0.171461
H32   H     H_    0.205207 0.672033 0.588714 0.168452
H33   H     H_    0.328504 0.323096 0.309265 0.171712
H34   H     H_    0.728934 0.775903 0.692306 0.158468
H35   H     H_    0.671474 0.323142 0.690739 0.171704
H36   H     H_    0.271095 0.775860 0.307687 0.158471
H37   H     H_    0.828533 0.823156 0.309260 0.171699
H38   H     H_    0.228967 0.275954 0.692301 0.158468
H39   H     H_    0.171441 0.823204 0.690746 0.171690
H40   H     H_    0.771059 0.275913 0.307695 0.158470
H41   H     H_    0.268255 0.781854 0.955404 0.124611
H42   H     H_    0.784225 0.098528 0.955062 0.127795
H43   H     H_    0.731744 0.781855 0.044595 0.124610
H44   H     H_    0.215775 0.098529 0.044938 0.127796
H45   H     H_    0.768255 0.281855 0.955406 0.124614
H46   H     H_    0.284226 0.598528 0.955062 0.127796
H47   H     H_    0.231745 0.281855 0.044592 0.124613
H48   H     H_    0.715775 0.598529 0.044938 0.127796
H49   H     H_    0.399649 0.678763 0.798541 0.172880
H50   H     H_    0.666521 0.210939 0.015899 0.166668
H51   H     H_    0.600352 0.678763 0.201460 0.172881
H52   H     H_    0.333479 0.210940 0.984099 0.166664
H53   H     H_    0.899649 0.178763 0.798541 0.172879
H54   H     H_    0.166520 0.710938 0.015898 0.166659
H55   H     H_    0.100352 0.178763 0.201459 0.172879
H56   H     H_    0.833480 0.710940 0.984099 0.166656
N1    N     N_R   0.389620 0.081040 0.705440 -0.047961
N2    N     N_R   0.610380 0.918960 0.294560 -0.071219
N3    N     N_R   0.610380 0.081040 0.294560 -0.047961
N4    N     N_R   0.389620 0.918960 0.705440 -0.071219
N5    N     N_R   0.889620 0.581040 0.705440 -0.047961
N6    N     N_R   0.110380 0.418960 0.294560 -0.071219
N7    N     N_R   0.110380 0.581040 0.294560 -0.047961
N8    N     N_R   0.889620 0.418960 0.705440 -0.071218
N9    N     N_R   0.582320 0.079840 0.556630 -0.058453
N10   N     N_R   0.417680 0.920160 0.443370 -0.049584
N11   N     N_R   0.417680 0.079840 0.443370 -0.058456
N12   N     N_R   0.582320 0.920160 0.556630 -0.049587
N13   N     N_R   0.082320 0.579840 0.556630 -0.058450
N14   N     N_R   0.917680 0.420160 0.443370 -0.049589
N15   N     N_R   0.917680 0.579840 0.443370 -0.058452
N16   N     N_R   0.082320 0.420160 0.556630 -0.049592
N17   N     N_R   0.627920 0.078930 0.443400 -0.036630
N18   N     N_R   0.372080 0.921070 0.556600 -0.050116
N19   N     N_R   0.372080 0.078930 0.556600 -0.036630
N20   N     N_R   0.627920 0.921070 0.443400 -0.050116
N21   N     N_R   0.127920 0.578930 0.443400 -0.036630
N22   N     N_R   0.872080 0.421070 0.556600 -0.050117
N23   N     N_R   0.872080 0.578930 0.556600 -0.036630
N24   N     N_R   0.127920 0.421070 0.443400 -0.050118
N25   N     N_R   0.555090 0.077730 0.294590 -0.053851
N26   N     N_R   0.444910 0.922270 0.705410 -0.059318
N27   N     N_R   0.444910 0.077730 0.705410 -0.053850
N28   N     N_R   0.555090 0.922270 0.294590 -0.059319
N29   N     N_R   0.055090 0.577730 0.294590 -0.053849
N30   N     N_R   0.944910 0.422270 0.705410 -0.059319
N31   N     N_R   0.944910 0.577730 0.705410 -0.053848
N32   N     N_R   0.055090 0.422270 0.294590 -0.059319
Ni1   Ni    Ni4+2 0.382970 0.000000 0.629840 0.278261
Ni2   Ni    Ni4+2 0.617030 0.000000 0.370160 0.278261
Ni3   Ni    Ni4+2 0.882970 0.500000 0.629840 0.278261
Ni4   Ni    Ni4+2 0.117030 0.500000 0.370160 0.278261
Ni5   Ni    Ni4+2 0.514540 0.000000 0.629840 0.211530
Ni6   Ni    Ni4+2 0.485460 0.000000 0.370160 0.211529
Ni7   Ni    Ni4+2 0.014540 0.500000 0.629840 0.211533
Ni8   Ni    Ni4+2 0.985460 0.500000 0.370160 0.211531
C97   C     C_2   0.261210 0.095603 0.843130 0.410050
H57   H     H_    0.219274 0.136108 0.902062 0.043348
O1    O     O_2   0.248521 0.040695 0.807593 -0.602337
C98   C     C_2   0.712778 0.831541 0.219623 0.448047
H58   H     H_    0.753376 0.876596 0.181404 0.054909
O2    O     O_2   0.724082 0.765209 0.236895 -0.554198
C99   C     C_2   0.738790 0.095603 0.156870 0.410040
H59   H     H_    0.780725 0.136109 0.097938 0.043347
O3    O     O_2   0.751479 0.040694 0.192406 -0.602339
C100  C     C_2   0.287223 0.831540 0.780374 0.448063
H60   H     H_    0.246624 0.876595 0.818594 0.054903
O4    O     O_2   0.275919 0.765208 0.763101 -0.554187
C101  C     C_2   0.761210 0.595603 0.843130 0.410045
H61   H     H_    0.719275 0.636109 0.902062 0.043340
O5    O     O_2   0.748521 0.540695 0.807594 -0.602337
C102  C     C_2   0.212779 0.331543 0.219619 0.448030
H62   H     H_    0.253377 0.376598 0.181401 0.054924
O6    O     O_2   0.224085 0.265210 0.236888 -0.554213
C103  C     C_2   0.238790 0.595602 0.156870 0.410033
H63   H     H_    0.280725 0.636108 0.097937 0.043340
O7    O     O_2   0.251479 0.540694 0.192406 -0.602340
C104  C     C_2   0.787222 0.331542 0.780378 0.448045
H64   H     H_    0.746623 0.376597 0.818597 0.054918
O8    O     O_2   0.775917 0.265209 0.763107 -0.554202
Br1   Br    Br    0.430526 0.388095 0.367564 -0.486949
Br2   Br    Br    0.630872 0.702595 0.633405 -0.516142
Br3   Br    Br    0.569490 0.388119 0.632354 -0.486939
Br4   Br    Br    0.369113 0.702575 0.366681 -0.516108
Br5   Br    Br    0.930505 0.888127 0.367667 -0.486920
Br6   Br    Br    0.130852 0.202620 0.633511 -0.516177
Br7   Br    Br    0.069511 0.888151 0.632248 -0.486910
Br8   Br    Br    0.869133 0.202600 0.366573 -0.516142

loop_
_geom_bond_atom_site_label_1
_geom_bond_atom_site_label_2
_ccdc_geom_bond_type
C65   C92   S    
C49   H17   S    
C23   H56   S    
C88   C96   S    
N21   Ni4   S    
C21   C29   D    
C102  O6    D    
N2    N28   A    
C86   H30   S    
C53   C63   A    
C85   H29   S    
C52   N28   A    
C18   C26   D    
C80   C84   S    
C69   C96   S    
C34   C66   A    
C87   H31   S    
C100  O4    D    
C33   C65   A    
C71   C94   S    
C55   H23   S    
C101  H61   S    
C19   C57   S    
N15   Ni8   S    
N2    Ni2   S    
C30   H45   S    
C41   H9    S    
C37   H5    S    
C48   H16   S    
C74   C89   S    
C7    C103  S    
C50   N26   A    
N17   Ni2   S    
C8    C104  S    
N29   Ni8   S    
C45   H13   S    
C7    N7    A    
C22   C64   S    
C10   C94   S    
C78   C93   S    
N13   N21   A    
C12   H36   S    
C77   C94   S    
N13   Ni7   S    
C38   N14   A    
C46   N22   A    
C31   H48   S    
C1    C57   A    
C14   C90   S    
C32   H47   S    
C86   C94   S    
C17   C25   D    
C85   C93   S    
C80   Br8   S    
C15   C79   S    
C15   H39   S    
N20   Ni2   S    
C102  H62   S    
C97   O1    D    
C87   C95   S    
C13   C86   S    
C16   C87   S    
C3    C99   S    
C54   N30   A    
C51   C57   A    
C35   C67   A    
C19   C27   D    
C76   C88   S    
C6    C102  S    
C9    C82   S    
C81   C89   S    
C26   H41   S    
C52   H20   S    
C22   H53   S    
C99   H59   S    
C2    N2    A    
C56   H24   S    
C74   Br2   S    
C28   H43   S    
C9    C73   S    
C48   C72   A    
C51   N27   A    
N8    N30   A    
C6    N6    A    
C5    C101  S    
N24   Ni4   S    
C49   N25   A    
C44   H12   S    
C13   C77   S    
N14   N22   A    
C40   N16   A    
C100  H60   S    
N19   Ni1   S    
C45   C69   A    
C16   H40   S    
C47   N23   A    
C42   C66   A    
N9    Ni5   S    
N26   Ni5   S    
C43   N19   A    
C104  H64   S    
C98   H58   S    
C41   C65   A    
C14   H38   S    
N4    Ni1   S    
C41   N17   A    
C67   C90   S    
C35   N11   A    
C12   C83   S    
N31   Ni7   S    
C16   C80   S    
C2    C98   S    
C23   C31   D    
N7    Ni4   S    
C33   N9    A    
C44   N20   A    
C24   H55   S    
C53   N29   A    
N22   Ni3   S    
C40   H8    S    
C42   N18   A    
C42   H10   S    
C37   C69   A    
C78   C82   S    
C4    C100  S    
C103  H63   S    
N27   Ni5   S    
C75   Br3   S    
C47   C71   A    
C4    C60   A    
N32   Ni8   S    
C68   C89   S    
C20   H51   S    
C73   Br1   S    
C36   H4    S    
C43   H11   S    
C21   H54   S    
C74   C86   S    
C80   C95   S    
C1    N1    A    
C35   H3    S    
C7    C63   A    
C55   N31   A    
C52   C58   A    
C75   C92   S    
C78   Br6   S    
C72   C93   S    
C11   H35   S    
C75   C87   S    
C38   C70   A    
C103  O7    D    
C8    C64   A    
C16   C92   S    
N8    Ni3   S    
C5    N5    A    
C54   H22   S    
N16   Ni7   S    
C56   C62   A    
C44   C68   A    
C84   H28   S    
C3    N3    A    
C55   C61   A    
C17   H50   S    
C20   C58   S    
N12   Ni5   S    
C8    N8    A    
C9    C93   S    
C99   O3    D    
N10   Ni6   S    
C46   C70   A    
N11   N19   A    
N15   N23   A    
C73   C85   S    
C23   C61   S    
C18   C60   S    
C25   C30   S    
N16   N24   A    
C24   C62   S    
N25   Ni6   S    
C40   C72   A    
N4    N26   A    
C4    N4    A    
C27   C32   S    
C18   H49   S    
C13   H37   S    
C98   O2    D    
C28   C31   S    
C12   C96   S    
N5    Ni3   S    
C14   C85   S    
N1    N27   A    
C34   N10   A    
N3    Ni2   S    
N6    Ni4   S    
C73   C90   S    
C37   N13   A    
C36   C68   A    
C79   Br7   S    
C66   C91   S    
C9    H33   S    
C11   C84   S    
C13   C89   S    
C20   C28   D    
C10   C81   S    
C19   H52   S    
C82   C90   S    
C50   C60   A    
C6    C62   A    
N23   Ni3   S    
C12   C76   S    
C25   H42   S    
C17   C59   S    
C104  O8    D    
N9    N17   A    
N10   N18   A    
C38   H6    S    
C46   H14   S    
N28   Ni6   S    
C49   C59   A    
C79   C83   S    
C10   C74   S    
C24   C32   D    
N1    Ni1   S    
C76   Br4   S    
C47   H15   S    
C29   H46   S    
C83   C91   S    
N18   Ni1   S    
C34   H2    S    
C70   C95   S    
N11   Ni6   S    
C53   H21   S    
C14   C78   S    
C56   N32   A    
C39   N15   A    
C2    C58   A    
C22   C30   D    
C77   C81   S    
C51   H19   S    
C21   C63   S    
N14   Ni8   S    
N12   N20   A    
C76   C91   S    
C15   C91   S    
N7    N29   A    
N3    N25   A    
C45   N21   A    
C79   C96   S    
C27   H44   S    
C11   C95   S    
C54   C64   A    
C26   C29   S    
C43   C67   A    
C97   H57   S    
N30   Ni7   S    
C81   H25   S    
C36   N12   A    
C39   H7    S    
C39   C71   A    
C1    C97   S    
C77   Br5   S    
C11   C75   S    
C84   C92   S    
C33   H1    S    
C50   H18   S    
C88   H32   S    
C101  O5    D    
N6    N32   A    
C10   H34   S    
C82   H26   S    
C83   H27   S    
C5    C61   A    
N5    N31   A    
C15   C88   S    
C48   N24   A    
C3    C59   A    
