data_mof_unit_29155.cif
_audit_creation_date              2012-12-10T18:50:49-0500
_audit_creation_method            fapswitch 2.2
_symmetry_space_group_name_H-M    P1
_symmetry_Int_Tables_number       1
_space_group_crystal_system       triclinic
_cell_length_a                    10.628104
_cell_length_b                    9.857601
_cell_length_c                    15.735868
_cell_angle_alpha                 89.999526
_cell_angle_beta                  89.718221
_cell_angle_gamma                 89.999415
_cell_volume                      1648.5893228

loop_
_atom_site_label
_atom_site_type_symbol
_atom_type_description
_atom_site_fract_x
_atom_site_fract_y
_atom_site_fract_z
_atom_type_partial_charge
C1    C     C_R   0.260561 0.500000 0.500811 0.920570
C2    C     C_3   0.661202 0.487739 0.950346 0.238919
C3    C     C_3   0.656056 0.473658 0.051740 0.804995
C4    C     C_1   0.512908 0.500287 0.825449 -0.001640
C5    C     C_1   0.510490 0.499859 0.174323 0.084611
C6    C     C_1   0.504652 0.499969 0.249518 -0.170346
C7    C     C_R   0.067222 0.497853 0.421723 0.144724
C8    C     C_R   0.063817 0.502148 0.579626 0.155525
C9    C     C_R   0.936052 0.497865 0.420716 0.120864
C10   C     C_R   0.932627 0.502152 0.578643 0.149166
C11   C     C_R   0.871911 0.500010 0.499341 -0.120919
C12   C     C_R   0.127970 0.499997 0.501000 -0.119568
C13   C     C_R   0.579318 0.071890 0.551665 -0.052906
C14   C     C_R   0.579317 0.928103 0.551666 -0.058357
C15   C     C_R   0.499390 0.499999 0.338288 0.872549
C16   C     C_R   0.420601 0.928110 0.448313 -0.058611
C17   C     C_R   0.420600 0.071896 0.448313 -0.058345
C18   C     C_R   0.739364 0.500001 0.499458 0.920300
C19   C     C_R   0.501267 0.500002 0.661682 0.881969
C20   C     C_3   0.471424 0.639497 0.049157 -0.437143
C21   C     C_3   0.426145 0.389134 0.048968 -0.605415
C22   C     C_3   0.433393 0.383012 0.950971 0.179527
C23   C     C_3   0.455763 0.633841 0.951643 0.163019
C24   C     C_1   0.506944 0.500052 0.750329 -0.191410
C25   C     C_3   0.517059 0.499638 0.082814 0.091862
C26   C     C_3   0.519280 0.500678 0.917077 0.163186
H1    H     H_    0.352450 0.630088 0.938612 0.096367
H2    H     H_    0.336203 0.398683 0.925856 0.106431
H3    H     H_    0.357096 0.873730 0.406974 0.130625
H4    H     H_    0.357095 0.126283 0.406975 0.130447
H5    H     H_    0.379486 0.667080 0.078763 0.157800
H6    H     H_    0.328039 0.415238 0.068179 0.176066
H7    H     H_    0.444586 0.288244 0.077899 0.220339
H8    H     H_    0.539126 0.720518 0.067158 0.250503
H9    H     H_    0.642797 0.126271 0.593024 0.134058
H10   H     H_    0.642793 0.873715 0.593027 0.132546
N1    N     N_R   0.499970 0.857200 0.499980 -0.082798
N2    N     N_R   0.499970 0.142800 0.499980 -0.083184
O1    O     O_R   0.316750 0.614620 0.499990 -0.618315
O2    O     O_R   0.316750 0.385380 0.499990 -0.617941
O3    O     O_R   0.499990 0.614720 0.377140 -0.612541
O4    O     O_R   0.499990 0.385280 0.377140 -0.611494
O5    O     O_R   0.683220 0.614710 0.500000 -0.616305
O6    O     O_R   0.683220 0.385290 0.500000 -0.616869
O7    O     O_R   0.499980 0.614620 0.622860 -0.619144
O8    O     O_R   0.499980 0.385380 0.622860 -0.606070
Zn1   Zn    Zn3+2 0.499980 0.653120 0.500000 0.953270
Zn2   Zn    Zn3+2 0.499980 0.346880 0.500000 0.958770
O9    O     O_3   0.474396 0.255072 0.923191 -0.761496
H11   H     H_    0.404907 0.190191 0.934745 0.350118
O10   O     O_3   0.503957 0.752582 0.914019 -0.751848
H12   H     H_    0.460387 0.764813 0.858885 0.342974
O11   O     O_3   0.733528 0.571950 0.090542 -0.785662
H13   H     H_    0.822196 0.541767 0.083854 0.352851
O12   O     O_3   0.698258 0.345194 0.080343 -0.781823
H14   H     H_    0.645706 0.272804 0.055578 0.343640
C27   C     C_3   0.739313 0.615365 0.923301 -0.774425
H15   H     H_    0.841364 0.599936 0.935097 0.210875
H16   H     H_    0.728736 0.636950 0.854414 0.243334
H17   H     H_    0.712841 0.707485 0.959485 0.298679
C28   C     C_3   0.733511 0.367082 0.908076 -0.792083
H18   H     H_    0.691355 0.266523 0.919185 0.288830
H19   H     H_    0.740825 0.381034 0.838159 0.234276
H20   H     H_    0.830958 0.361406 0.933179 0.228798
C29   C     C_3   0.145140 0.495745 0.340084 -0.897195
H21   H     H_    0.205712 0.403967 0.339072 0.234504
H22   H     H_    0.089612 0.494376 0.280885 0.248043
H23   H     H_    0.205939 0.587269 0.337324 0.232229
C30   C     C_3   0.133769 0.504284 0.663727 -0.881669
H24   H     H_    0.237325 0.504032 0.657226 0.223817
H25   H     H_    0.108678 0.597422 0.699696 0.240404
H26   H     H_    0.108577 0.413088 0.701573 0.242401
C31   C     C_3   0.866106 0.495727 0.336588 -0.803282
H27   H     H_    0.891260 0.586910 0.298719 0.246438
H28   H     H_    0.891141 0.402584 0.300607 0.249496
H29   H     H_    0.762576 0.495993 0.343086 0.225323
C32   C     C_3   0.854689 0.504209 0.660315 -0.905178
H30   H     H_    0.910179 0.505594 0.719541 0.247299
H31   H     H_    0.794054 0.595936 0.661373 0.236076
H32   H     H_    0.793925 0.412661 0.663082 0.234567

loop_
_geom_bond_atom_site_label_1
_geom_bond_atom_site_label_2
_ccdc_geom_bond_type
O12   H14   S    
C11   C18   S    
C30   H26   S    
C31   H27   S    
C19   O8    A    
C32   H30   S    
C8    C30   S    
C13   H9    S    
C14   H10   S    
C5    C6    T    
C4    C24   T    
C27   H16   S    
C21   H7    S    
C20   C25   S    
O2    Zn2   S    
C23   C26   S    
C30   H25   S    
C1    O2    A    
C6    C15   S    
C3    O12   S    
C16   C17   A    
C29   H22   S    
C23   H1    S    
N1    Zn1   S    
N2    Zn2   S    
C2    C28   S    
C16   N1    A    
C20   H8    S    
C32   H31   S    
C22   H2    S    
C21   C22   S    
C17   H4    S    
C31   H28   S    
C30   H24   S    
C1    C12   S    
C9    C31   S    
C10   C32   S    
O7    Zn1   S    
C7    C12   A    
C21   H6    S    
O8    Zn2   S    
C2    C27   S    
O10   H12   S    
C3    C25   S    
C15   O3    A    
C27   H17   S    
C16   H3    S    
O11   H13   S    
C28   H20   S    
C18   O6    A    
C7    C29   S    
C23   O10   S    
C20   C23   S    
C8    C12   A    
C29   H23   S    
C28   H19   S    
O3    Zn1   S    
C2    C26   S    
O4    Zn2   S    
C9    C11   A    
C13   N2    A    
C22   O9    S    
C5    C25   S    
C29   H21   S    
C31   H29   S    
O1    Zn1   S    
C32   H32   S    
C7    C9    A    
C21   C25   S    
C15   O4    A    
C4    C26   S    
C19   O7    A    
C2    C3    S    
C18   O5    A    
C14   N1    A    
C3    O11   S    
C27   H15   S    
C19   C24   S    
C17   N2    A    
C28   H18   S    
C10   C11   A    
C1    O1    A    
C8    C10   A    
O9    H11   S    
C22   C26   S    
C13   C14   A    
O5    Zn1   S    
O6    Zn2   S    
C20   H5    S    
