data_mof_unit_66153.cif
_audit_creation_date              2012-12-10T18:04:26-0500
_audit_creation_method            fapswitch 2.2
_symmetry_space_group_name_H-M    P1
_symmetry_Int_Tables_number       1
_space_group_crystal_system       triclinic
_cell_length_a                    31.544391
_cell_length_b                    18.334703
_cell_length_c                    25.69816
_cell_angle_alpha                 89.970079
_cell_angle_beta                  144.50854
_cell_angle_gamma                 90.02212
_cell_volume                      8629.01584291

loop_
_atom_site_label
_atom_site_type_symbol
_atom_type_description
_atom_site_fract_x
_atom_site_fract_y
_atom_site_fract_z
_atom_type_partial_charge
C1    C     C_R   0.859083 0.639258 0.108488 0.521527
C2    C     C_R   0.196245 0.303735 0.446303 0.041116
C3    C     C_R   0.309914 0.743602 0.593288 -0.128166
C4    C     C_R   0.196267 0.696249 0.446292 0.040073
C5    C     C_R   0.803732 0.303752 0.553707 0.040259
C6    C     C_R   0.303755 0.196264 0.553697 0.041116
C7    C     C_R   0.696245 0.803735 0.446304 0.041050
C8    C     C_R   0.696268 0.196248 0.446292 0.040258
C9    C     C_R   0.303733 0.803751 0.553708 0.040073
C10   C     C_R   0.728235 0.676841 0.984128 0.078945
C11   C     C_R   0.230170 0.281586 0.932297 0.084932
C12   C     C_R   0.271777 0.676841 0.015936 0.077910
C13   C     C_R   0.139462 0.359290 0.888588 0.528547
C14   C     C_R   0.770105 0.281276 0.067998 0.084719
C15   C     C_R   0.269830 0.218414 0.067703 0.084932
C16   C     C_R   0.771765 0.823159 0.015872 0.078945
C17   C     C_R   0.729895 0.218723 0.932002 0.084719
C18   C     C_R   0.228223 0.823159 0.984064 0.077911
C19   C     C_R   0.215288 0.270987 0.011264 -0.118522
C20   C     C_R   0.823475 0.767748 0.066586 -0.125893
C21   C     C_R   0.784420 0.271321 0.988396 -0.120527
C22   C     C_R   0.176513 0.767749 0.933326 -0.124789
C23   C     C_R   0.676525 0.732252 0.933414 -0.125893
C24   C     C_R   0.140914 0.639252 0.891497 0.523992
C25   C     C_R   0.284712 0.229013 0.988736 -0.118522
C26   C     C_R   0.323487 0.732251 0.066674 -0.124790
C27   C     C_R   0.715580 0.228679 0.011604 -0.120528
C28   C     C_R   0.195438 0.303056 0.944058 0.029829
C29   C     C_R   0.802466 0.694852 0.051713 0.025487
C30   C     C_R   0.804536 0.303084 0.055894 0.029676
C31   C     C_R   0.197532 0.694849 0.948261 0.024819
C32   C     C_R   0.697534 0.805148 0.948287 0.025487
C33   C     C_R   0.304562 0.196944 0.055942 0.029829
C34   C     C_R   0.302468 0.805151 0.051738 0.024819
C35   C     C_R   0.860520 0.359314 0.111379 0.530720
C36   C     C_R   0.695464 0.196916 0.944106 0.029676
C37   C     C_R   0.048021 0.452002 0.522221 0.082560
C38   C     C_R   0.951840 0.547690 0.477641 0.078502
C39   C     C_R   0.548170 0.952318 0.522369 0.078503
C40   C     C_R   0.451970 0.047990 0.477769 0.082560
C41   C     C_R   0.047683 0.455007 0.575476 -0.116468
C42   C     C_R   0.952183 0.544693 0.424393 -0.117898
C43   C     C_R   0.547826 0.955316 0.575616 -0.117897
C44   C     C_R   0.452308 0.044984 0.424515 -0.116469
C45   C     C_R   0.999792 0.502160 0.553169 0.030643
C46   C     C_R   0.360538 0.140710 0.111412 0.528548
C47   C     C_R   0.000136 0.497602 0.446758 0.034227
C48   C     C_R   0.499864 0.002398 0.553241 0.034223
C49   C     C_R   0.500208 0.997840 0.446831 0.030638
C50   C     C_R   0.140111 0.359887 0.390174 0.516493
C51   C     C_R   0.859889 0.640113 0.609826 0.513950
C52   C     C_R   0.859871 0.359894 0.609833 0.508693
C53   C     C_R   0.140129 0.640107 0.390167 0.505495
C54   C     C_R   0.640111 0.859887 0.390174 0.513948
C55   C     C_R   0.359889 0.140113 0.609826 0.516492
C56   C     C_R   0.359871 0.859893 0.609833 0.505496
C57   C     C_R   0.640917 0.860742 0.891512 0.521527
C58   C     C_R   0.640129 0.140106 0.390167 0.508693
C59   C     C_R   0.000045 0.498297 0.391266 0.531332
C60   C     C_R   0.999946 0.501587 0.608723 0.531630
C61   C     C_R   0.500054 0.998412 0.391277 0.531628
C62   C     C_R   0.499955 0.001703 0.608734 0.531332
C63   C     C_R   0.999984 0.500072 0.108321 0.509056
C64   C     C_R   0.000016 0.499925 0.891678 0.509099
C65   C     C_R   0.499984 0.000075 0.108322 0.509099
C66   C     C_R   0.500016 0.999928 0.891679 0.509057
C67   C     C_3   0.000002 0.569259 0.016954 -0.104644
C68   C     C_R   0.639480 0.140685 0.888621 0.530719
C69   C     C_3   0.999996 0.430719 0.983043 -0.103905
C70   C     C_3   0.940061 0.534445 0.922672 -0.120387
C71   C     C_3   0.059935 0.465532 0.077326 -0.120660
C72   C     C_3   0.500002 0.069281 0.016955 -0.103906
C73   C     C_3   0.500000 0.930741 0.983048 -0.104644
C74   C     C_3   0.440064 0.034466 0.922673 -0.120660
C75   C     C_3   0.559939 0.965557 0.077329 -0.120387
C76   C     C_3   0.059947 0.534427 0.042497 -0.121022
C77   C     C_3   0.940051 0.465550 0.957501 -0.120178
C78   C     C_3   0.559948 0.034452 0.042498 -0.120178
C79   C     C_R   0.359086 0.860748 0.108502 0.523992
C80   C     C_3   0.440054 0.965571 0.957503 -0.121021
C81   C     C_3   0.000007 0.499678 0.949056 0.059647
C82   C     C_3   0.999991 0.500304 0.050942 0.059493
C83   C     C_3   0.500009 0.999696 0.949058 0.059493
C84   C     C_3   0.499993 0.000322 0.050944 0.059647
C85   C     C_R   0.254696 0.308094 0.539777 -0.116809
C86   C     C_R   0.745138 0.691742 0.460208 -0.117434
C87   C     C_R   0.743712 0.309725 0.460154 -0.125213
C88   C     C_R   0.256447 0.690118 0.539846 -0.127331
C89   C     C_R   0.754862 0.808258 0.539791 -0.117434
C90   C     C_R   0.803755 0.696265 0.553696 0.041051
C91   C     C_R   0.245304 0.191906 0.460223 -0.116808
C92   C     C_R   0.243553 0.809882 0.460154 -0.127331
C93   C     C_R   0.756288 0.190275 0.539846 -0.125213
C94   C     C_R   0.808365 0.754800 0.593224 -0.125133
C95   C     C_R   0.191802 0.245366 0.406790 -0.123126
C96   C     C_R   0.190086 0.756398 0.406712 -0.128166
C97   C     C_R   0.809754 0.243760 0.593288 -0.125488
C98   C     C_R   0.308198 0.254634 0.593210 -0.123126
C99   C     C_R   0.691635 0.745200 0.406776 -0.125133
C100  C     C_R   0.690246 0.256240 0.406712 -0.125488
H1    H     H_    0.109129 0.562682 0.076441 0.128585
H2    H     H_    0.499999 0.873794 0.968393 0.141333
H3    H     H_    0.390891 0.062741 0.858314 0.129006
H4    H     H_    0.609112 0.937284 0.141690 0.127739
H5    H     H_    0.259101 0.352641 0.571671 0.159836
H6    H     H_    0.740596 0.647059 0.428301 0.160198
H7    H     H_    0.737987 0.355615 0.428187 0.151281
H8    H     H_    0.262300 0.644099 0.571812 0.149711
H9    H     H_    0.759404 0.852941 0.571699 0.160201
H10   H     H_    0.240899 0.147359 0.428329 0.159839
H11   H     H_    0.237700 0.855901 0.428188 0.149712
H12   H     H_    0.890872 0.437289 0.923564 0.129105
H13   H     H_    0.762013 0.144384 0.571812 0.151282
H14   H     H_    0.853148 0.759309 0.665321 0.149886
H15   H     H_    0.147155 0.240994 0.334705 0.151366
H16   H     H_    0.144037 0.762218 0.334566 0.147704
H17   H     H_    0.855673 0.238070 0.665434 0.149766
H18   H     H_    0.352845 0.259006 0.665295 0.151365
H19   H     H_    0.646852 0.740691 0.334679 0.149885
H20   H     H_    0.644327 0.261929 0.334566 0.149765
H21   H     H_    0.355963 0.737782 0.665434 0.147704
H22   H     H_    0.189395 0.288133 0.021273 0.157315
H23   H     H_    0.609126 0.062714 0.076435 0.129105
H24   H     H_    0.880621 0.781829 0.119345 0.155960
H25   H     H_    0.810090 0.288724 0.978134 0.154612
H26   H     H_    0.119359 0.781831 0.880504 0.157732
H27   H     H_    0.619379 0.718171 0.880655 0.155960
H28   H     H_    0.310605 0.211867 0.978727 0.157315
H29   H     H_    0.380641 0.718169 0.119496 0.157732
H30   H     H_    0.689910 0.211276 0.021866 0.154612
H31   H     H_    0.083629 0.419352 0.633226 0.177661
H32   H     H_    0.916201 0.580333 0.366606 0.158384
H33   H     H_    0.583814 0.919682 0.633410 0.158393
H34   H     H_    0.390872 0.937315 0.923560 0.128585
H35   H     H_    0.416355 0.080632 0.366757 0.177670
H36   H     H_    0.000004 0.626206 0.031610 0.141333
H37   H     H_    0.999998 0.373772 0.968389 0.142783
H38   H     H_    0.890890 0.562719 0.858312 0.127740
H39   H     H_    0.109107 0.437256 0.141684 0.129006
H40   H     H_    0.499999 0.126227 0.031608 0.142783
I1    I     I_    0.688127 0.568075 0.948666 -0.296528
I2    I     I_    0.881672 0.625763 0.442986 -0.328435
I3    I     I_    0.618351 0.874256 0.557040 -0.328432
I4    I     I_    0.381908 0.126150 0.443205 -0.291166
I5    I     I_    0.200565 0.320547 0.827582 -0.298495
I6    I     I_    0.311887 0.568072 0.051489 -0.295153
I7    I     I_    0.800255 0.319788 0.173231 -0.277594
I8    I     I_    0.299435 0.179453 0.172418 -0.298495
I9    I     I_    0.811873 0.931925 0.051334 -0.296526
I10   I     I_    0.699745 0.180211 0.826769 -0.277598
I11   I     I_    0.188113 0.931928 0.948511 -0.295150
I12   I     I_    0.118067 0.373830 0.556769 -0.291165
O1    O     O_3   0.999990 0.500000 0.250040 -0.458107
O2    O     O_R   0.585480 0.853830 0.866170 -0.548149
O3    O     O_R   0.585480 0.146170 0.866170 -0.546882
O4    O     O_R   0.414520 0.853830 0.133830 -0.547444
O5    O     O_R   0.085470 0.353820 0.304740 -0.545287
O6    O     O_R   0.914530 0.646180 0.695260 -0.548958
O7    O     O_R   0.914530 0.353820 0.695260 -0.546018
O8    O     O_R   0.085470 0.646180 0.304740 -0.549444
O9    O     O_R   0.585470 0.853820 0.304740 -0.548958
O10   O     O_R   0.414530 0.146180 0.695260 -0.545288
O11   O     O_R   0.414530 0.853820 0.695260 -0.549444
O12   O     O_3   0.000010 0.500000 0.749960 -0.458398
O13   O     O_R   0.585470 0.146180 0.304740 -0.546018
O14   O     O_R   0.853810 0.414550 0.134600 -0.491844
O15   O     O_R   0.146190 0.585450 0.865400 -0.502700
O16   O     O_R   0.146190 0.414550 0.865400 -0.494484
O17   O     O_R   0.853810 0.585450 0.134600 -0.506783
O18   O     O_R   0.353810 0.914550 0.134600 -0.502701
O19   O     O_R   0.646190 0.085450 0.865400 -0.491844
O20   O     O_R   0.646190 0.914550 0.865400 -0.506784
O21   O     O_R   0.353810 0.085450 0.134600 -0.494483
O22   O     O_R   0.146170 0.585430 0.426970 -0.546463
O23   O     O_3   0.499990 1.000000 0.250040 -0.458397
O24   O     O_R   0.853830 0.414570 0.573030 -0.544726
O25   O     O_R   0.853830 0.585430 0.573030 -0.533674
O26   O     O_R   0.146170 0.414570 0.426970 -0.533780
O27   O     O_R   0.646170 0.085430 0.426970 -0.544724
O28   O     O_R   0.353830 0.914570 0.573030 -0.546461
O29   O     O_R   0.353830 0.085430 0.573030 -0.533779
O30   O     O_R   0.646170 0.914570 0.426970 -0.533673
O31   O     O_R   0.939250 0.500000 0.306600 -0.528019
O32   O     O_R   0.060750 0.500000 0.693400 -0.530724
O33   O     O_R   0.439250 0.000000 0.306600 -0.530729
O34   O     O_3   0.500010 1.000000 0.749960 -0.458107
O35   O     O_R   0.560750 0.000000 0.693400 -0.528024
O36   O     O_R   0.999990 0.560720 0.132740 -0.543485
O37   O     O_R   0.000010 0.439280 0.867260 -0.545623
O38   O     O_R   0.000010 0.560720 0.867260 -0.539613
O39   O     O_R   0.999990 0.439280 0.132740 -0.541599
O40   O     O_R   0.499990 0.060720 0.132740 -0.545624
O41   O     O_R   0.500010 0.939280 0.867260 -0.543485
O42   O     O_R   0.500010 0.060720 0.867260 -0.541599
O43   O     O_R   0.499990 0.939280 0.132740 -0.539613
O44   O     O_R   0.060720 0.500000 0.428060 -0.516642
O45   O     O_R   0.914520 0.646170 0.133830 -0.548149
O46   O     O_R   0.939280 0.500000 0.571940 -0.510996
O47   O     O_R   0.560720 0.000000 0.428060 -0.510993
O48   O     O_R   0.439280 1.000000 0.571940 -0.516640
O49   O     O_R   0.085480 0.353830 0.866170 -0.548117
O50   O     O_R   0.085480 0.646170 0.866170 -0.547443
O51   O     O_R   0.914520 0.353830 0.133830 -0.546881
O52   O     O_R   0.414520 0.146170 0.133830 -0.548117
Zn1   Zn    Zn3+2 0.000000 0.413230 0.206100 0.954735
Zn2   Zn    Zn3+2 0.086780 0.500000 0.792790 1.006660
Zn3   Zn    Zn3+2 0.413220 1.000000 0.207210 1.006658
Zn4   Zn    Zn3+2 0.586780 0.000000 0.792790 1.006985
Zn5   Zn    Zn3+2 0.086760 0.500000 0.380740 0.967502
Zn6   Zn    Zn3+2 0.913240 0.500000 0.619260 0.971074
Zn7   Zn    Zn3+2 0.586760 1.000000 0.380740 0.971075
Zn8   Zn    Zn3+2 0.413240 1.000000 0.619260 0.967504
Zn9   Zn    Zn3+2 0.000000 0.586770 0.793900 0.948706
Zn10  Zn    Zn3+2 0.000000 0.413230 0.793900 0.947594
Zn11  Zn    Zn3+2 0.000000 0.586770 0.206100 0.941271
Zn12  Zn    Zn3+2 0.500000 0.913230 0.206100 0.948704
Zn13  Zn    Zn3+2 0.500000 0.086770 0.793900 0.954733
Zn14  Zn    Zn3+2 0.500000 0.913230 0.793900 0.941271
Zn15  Zn    Zn3+2 0.500000 0.086770 0.206100 0.947594
Zn16  Zn    Zn3+2 0.913220 0.500000 0.207210 1.006988

loop_
_geom_bond_atom_site_label_1
_geom_bond_atom_site_label_2
_ccdc_geom_bond_type
C44   C49   A    
C60   O32   A    
C45   C60   S    
O31   Zn16  S    
O34   Zn8   S    
C4    C53   S    
O22   Zn5   S    
C38   I2    S    
O33   Zn3   S    
C69   C77   S    
C17   I10   S    
O23   Zn3   S    
C74   C83   S    
C80   C84   S    
C68   O3    A    
C61   O47   A    
C64   O37   A    
C94   H14   S    
O32   Zn2   S    
C19   H22   S    
O6    Zn9   S    
C15   C19   A    
O51   Zn1   S    
C56   O11   A    
C24   O50   A    
O48   Zn8   S    
C7    C99   A    
C30   C35   S    
O29   Zn8   S    
C6    C98   A    
C79   O18   A    
C2    C95   A    
C50   O26   A    
C25   H28   S    
C38   C42   A    
C51   C90   S    
C15   I8    S    
C88   H8    S    
C68   O19   A    
C73   C83   S    
C75   C84   S    
C22   H26   S    
C11   C25   A    
C6    C91   A    
C7    C89   A    
O27   Zn7   S    
C92   C96   A    
C35   O14   A    
C80   H34   S    
C2    C85   A    
C43   H33   S    
O39   Zn1   S    
C12   I6    S    
C89   C94   A    
O28   Zn8   S    
C58   O13   A    
C38   C45   A    
C72   C78   S    
C85   C98   A    
C2    C50   S    
C8    C58   S    
C79   O4    A    
C4    C96   A    
C78   C83   S    
C26   C34   A    
C95   H15   S    
O1    Zn16  S    
C77   C82   S    
O35   Zn4   S    
O4    Zn12  S    
C54   O30   A    
C13   C28   S    
C98   H18   S    
C58   O27   A    
C100  H20   S    
C17   C36   A    
O23   Zn7   S    
C14   C27   A    
O2    Zn14  S    
C43   C48   A    
C6    C55   S    
C21   C30   A    
O45   Zn11  S    
C60   O46   A    
C71   C82   S    
C52   O7    A    
C46   O52   A    
C66   C83   S    
O10   Zn13  S    
C66   O42   A    
O50   Zn9   S    
O7    Zn10  S    
C74   C80   S    
C70   C77   S    
C37   C41   A    
C33   C46   S    
C73   C75   S    
C86   H6    S    
C32   C57   S    
C14   C30   A    
C85   H5    S    
C9    C92   A    
C61   O33   A    
C75   C78   S    
O36   Zn11  S    
C53   O22   A    
C90   C94   A    
O42   Zn13  S    
C20   C29   A    
C50   O5    A    
C69   H37   S    
O41   Zn14  S    
C64   C81   S    
O34   Zn13  S    
C16   I9    S    
C69   C71   S    
C22   C31   A    
O52   Zn15  S    
O15   Zn2   S    
O20   Zn4   S    
C24   O15   A    
C49   C61   S    
O37   Zn10  S    
C78   H23   S    
C72   C74   S    
C86   C90   A    
O12   Zn6   S    
C41   H31   S    
C11   I5    S    
C65   C84   S    
C39   C43   A    
C63   C82   S    
O12   Zn10  S    
O8    Zn11  S    
C47   C59   S    
C14   I7    S    
C17   C21   A    
C89   H9    S    
O26   Zn5   S    
C12   C26   A    
C10   I1    S    
O25   Zn6   S    
C91   C95   A    
C77   H12   S    
C3    C9    A    
C34   C79   S    
C74   H3    S    
O34   Zn14  S    
C48   C62   S    
C65   O40   A    
C40   C44   A    
C16   C20   A    
C1    C29   S    
C55   O29   A    
C46   O21   A    
O5    Zn1   S    
O21   Zn3   S    
C9    C56   S    
C93   H13   S    
C59   O31   A    
C86   C99   A    
C18   C34   A    
O43   Zn12  S    
C72   C84   S    
C26   H29   S    
O1    Zn1   S    
O44   Zn5   S    
C73   H2    S    
C39   C49   A    
O9    Zn12  S    
C39   I3    S    
C70   H38   S    
C40   I4    S    
C12   C31   A    
C19   C28   A    
C75   H4    S    
C27   C36   A    
O16   Zn2   S    
C37   C47   A    
C37   I12   S    
C21   H25   S    
C18   I11   S    
C93   C97   A    
O1    Zn11  S    
C66   O41   A    
C91   H10   S    
C23   H27   S    
C87   C100  A    
C56   O28   A    
C76   H1    S    
C40   C48   A    
C52   O24   A    
C53   O8    A    
C5    C52   S    
C3    C88   A    
C18   C22   A    
O23   Zn15  S    
C1    O45   A    
C8    C93   A    
C55   O10   A    
C5    C97   A    
C13   O16   A    
C76   C81   S    
C64   O38   A    
C36   C68   S    
C92   H11   S    
C71   H39   S    
C4    C88   A    
O12   Zn9   S    
C16   C32   A    
C57   O2    A    
C51   O6    A    
C7    C54   S    
O34   Zn4   S    
C67   C70   S    
O23   Zn12  S    
C57   O20   A    
C67   H36   S    
C8    C100  A    
C24   C31   S    
C62   O48   A    
O18   Zn3   S    
O12   Zn2   S    
C23   C32   A    
O1    Zn5   S    
C10   C29   A    
C35   O51   A    
C71   C76   S    
C11   C28   A    
C44   H35   S    
C63   O39   A    
C1    O17   A    
O30   Zn7   S    
C73   C80   S    
C13   O49   A    
O3    Zn13  S    
C59   O44   A    
O47   Zn7   S    
C42   C47   A    
C54   O9    A    
C97   H17   S    
O46   Zn6   S    
O38   Zn9   S    
O49   Zn10  S    
C20   H24   S    
C69   C81   S    
C10   C23   A    
O13   Zn15  S    
C99   H19   S    
C5    C87   A    
O11   Zn14  S    
C72   H40   S    
O17   Zn16  S    
C87   H7    S    
C67   C82   S    
C63   O36   A    
O14   Zn16  S    
O24   Zn6   S    
C27   H30   S    
C41   C45   A    
C96   H16   S    
C42   H32   S    
C67   C76   S    
C70   C81   S    
O40   Zn15  S    
O19   Zn4   S    
C51   O25   A    
C15   C33   A    
C3    H21   S    
C25   C33   A    
C62   O35   A    
C65   O43   A    
