data_mof_unit_22036.cif
_audit_creation_date              2012-12-10T16:47:51-0500
_audit_creation_method            fapswitch 2.2
_symmetry_space_group_name_H-M    P1
_symmetry_Int_Tables_number       1
_space_group_crystal_system       triclinic
_cell_length_a                    7.837338
_cell_length_b                    8.606358
_cell_length_c                    10.572015
_cell_angle_alpha                 91.30564
_cell_angle_beta                  86.47024
_cell_angle_gamma                 92.367277
_cell_volume                      710.985615638

loop_
_atom_site_label
_atom_site_type_symbol
_atom_type_description
_atom_site_fract_x
_atom_site_fract_y
_atom_site_fract_z
_atom_type_partial_charge
C1    C     C_R   0.543592 0.793608 0.495047 0.920139
C2    C     C_2   0.558865 0.953496 0.471745 -0.242279
C3    C     C_2   0.814491 0.637024 0.100689 0.464353
C4    C     C_1   0.429262 0.354864 0.932808 0.149504
C5    C     C_1   0.677357 0.000226 0.366517 0.295039
C6    C     C_1   0.327899 0.001529 0.637536 0.257639
C7    C     C_1   0.026486 0.368190 0.370294 0.440486
C8    C     C_2   0.973975 0.621667 0.639134 0.707710
C9    C     C_2   0.442154 0.046724 0.529572 -0.246852
C10   C     C_R   0.502482 0.495519 0.737374 0.884550
C11   C     C_R   0.456575 0.206448 0.505368 0.906489
C12   C     C_R   0.500744 0.521206 0.264522 0.946178
C13   C     C_2   0.639307 0.599263 0.059731 0.012669
C14   C     C_2   0.498733 0.570999 0.136276 -0.313937
C15   C     C_2   0.616947 0.594518 0.924598 -0.316652
C16   C     C_2   0.512438 0.488562 0.870203 -0.121175
H1    H     H_    0.372585 0.573618 0.098853 0.159415
H2    H     H_    0.689713 0.680525 0.867080 0.170069
H3    H     H_    0.924024 0.613230 0.036292 0.050262
H4    H     H_    0.941813 0.560302 0.726378 -0.018743
N1    N     N_2   0.950320 0.457950 0.466680 -0.167583
N2    N     N_2   0.049680 0.542050 0.533320 -0.154495
N3    N     N_1   0.362930 0.248018 0.982415 -0.177698
N4    N     N_1   0.771054 0.037495 0.282776 -0.144463
N5    N     N_1   0.238044 0.966605 0.724082 -0.144417
N6    N     N_1   0.088016 0.292253 0.289440 -0.211284
O1    O     O_R   0.389250 0.738570 0.508180 -0.612540
O2    O     O_2   0.954764 0.761310 0.635374 -0.589371
O3    O     O_R   0.678390 0.711630 0.486820 -0.565229
O4    O     O_R   0.355470 0.513470 0.691600 -0.635919
O5    O     O_R   0.644610 0.486520 0.670240 -0.654429
O6    O     O_R   0.321610 0.288370 0.513180 -0.631306
O7    O     O_R   0.610750 0.261430 0.491820 -0.627753
O8    O     O_R   0.355390 0.513480 0.329760 -0.633319
O9    O     O_R   0.644530 0.486530 0.308400 -0.586092
O10   O     O_2   0.838455 0.703125 0.201768 -0.549756
Zn1   Zn    Zn3+2 0.306940 0.517990 0.514260 0.980862
Zn2   Zn    Zn3+2 0.693060 0.482010 0.485740 0.999927

loop_
_geom_bond_atom_site_label_1
_geom_bond_atom_site_label_2
_ccdc_geom_bond_type
O3    Zn2   S    
C4    C16   S    
C15   H2    S    
C8    N2    S    
C3    H3    S    
N2    Zn1   S    
O8    Zn1   S    
C10   O4    A    
O7    Zn2   S    
C3    C13   S    
O5    Zn2   S    
C6    C9    S    
C1    O3    A    
C10   C16   S    
C13   C14   D    
C12   O9    A    
C7    N1    S    
C9    C11   S    
C14   H1    S    
C8    H4    S    
C5    N4    T    
C7    N6    T    
C3    O10   D    
O1    Zn1   S    
C12   C14   S    
C11   O6    A    
C13   C15   S    
C8    O2    D    
C6    N5    T    
O6    Zn1   S    
C12   O8    A    
C15   C16   D    
C2    C5    S    
C11   O7    A    
O9    Zn2   S    
C1    C2    S    
C1    O1    A    
C4    N3    T    
N1    N2    D    
C2    C9    D    
C10   O5    A    
N1    Zn2   S    
O4    Zn1   S    
