data_mof_unit_54115.cif
_audit_creation_date              2012-10-26T18:29:32-0400
_audit_creation_method            fapswitch 2.2
_symmetry_space_group_name_H-M    P1
_symmetry_Int_Tables_number       1
_space_group_crystal_system       triclinic
_cell_length_a                    11.684807
_cell_length_b                    12.970228
_cell_length_c                    11.806711
_cell_angle_alpha                 99.065077
_cell_angle_beta                  93.593306
_cell_angle_gamma                 91.84838
_cell_volume                      1761.92662114

loop_
_atom_site_label
_atom_site_type_symbol
_atom_type_description
_atom_site_fract_x
_atom_site_fract_y
_atom_site_fract_z
_atom_type_partial_charge
C1    C     C_R   0.501111 0.299947 0.479292 0.560274
C2    C     C_R   0.453633 0.470354 0.967734 -0.136394
C3    C     C_R   0.284239 0.499797 0.500258 0.549599
C4    C     C_R   0.715765 0.500258 0.499741 0.557236
C5    C     C_1   0.162532 0.499916 0.500678 -0.003280
C6    C     C_1   0.837481 0.500217 0.499323 0.016359
C7    C     C_1   0.059957 0.500029 0.500375 -0.035320
C8    C     C_1   0.940065 0.500150 0.499680 -0.024805
C9    C     C_R   0.486706 0.813448 0.532086 -0.039461
C10   C     C_R   0.508155 0.187443 0.467694 -0.046924
C11   C     C_R   0.582006 0.025031 0.375993 0.301254
C12   C     C_R   0.497989 0.700469 0.520942 0.553653
C13   C     C_R   0.399596 0.973920 0.613004 0.283298
C14   C     C_R   0.578001 0.134336 0.386991 0.284394
C15   C     C_R   0.418514 0.867096 0.614358 0.277101
C16   C     C_R   0.446738 0.134303 0.539726 -0.190905
C17   C     C_R   0.541642 0.866718 0.455971 -0.192349
C18   C     C_R   0.456651 0.027078 0.535905 -0.043640
C19   C     C_R   0.526254 0.972457 0.454896 -0.045851
C20   C     C_3   0.397724 0.851176 0.803478 -0.091253
C21   C     C_3   0.632150 0.182123 0.217054 -0.066218
C22   C     C_3   0.575830 0.925402 0.199163 -0.165518
C23   C     C_R   0.373145 0.418633 0.026725 0.237957
C24   C     C_3   0.215123 0.013987 0.641030 -0.132427
C25   C     C_3   0.255433 0.536127 0.820843 -0.058225
C26   C     C_3   0.657051 0.673066 0.231085 -0.046569
C27   C     C_3   0.702432 0.715119 0.828218 -0.100109
C28   C     C_3   0.292971 0.284679 0.199223 -0.066636
C29   C     C_3   0.315858 0.264024 0.914414 -0.076515
C30   C     C_3   0.816412 0.479237 0.999346 -0.063487
C31   C     C_R   0.643940 0.547578 0.966202 0.221218
C32   C     C_R   0.385355 0.428103 0.148058 0.387752
C33   C     C_R   0.621252 0.558885 0.850007 0.378173
C34   C     C_R   0.565998 0.518563 0.151719 0.361850
C35   C     C_R   0.435165 0.480259 0.848703 0.355611
C36   C     C_R   0.555674 0.512225 0.029179 -0.134654
Cu1   Cu    Cu3+1 0.508350 0.507730 0.615930 1.042807
Cu2   Cu    Cu3+1 0.491650 0.492270 0.384070 1.032669
H1    H     H_    0.599247 0.825679 0.399241 0.149060
H2    H     H_    0.513294 0.867063 0.222005 0.101545
H3    H     H_    0.629255 0.884636 0.133126 0.121085
H4    H     H_    0.184725 0.930473 0.627442 0.156347
H5    H     H_    0.206142 0.045718 0.558758 0.115245
H6    H     H_    0.158616 0.058217 0.701565 0.131113
H7    H     H_    0.171158 0.515896 0.772459 0.143775
H8    H     H_    0.289710 0.609804 0.795879 0.129643
H9    H     H_    0.239922 0.549398 0.913854 0.126382
H10   H     H_    0.713007 0.705360 0.308675 0.137409
H11   H     H_    0.568266 0.698972 0.243343 0.095232
H12   H     H_    0.393767 0.177879 0.601028 0.176782
H13   H     H_    0.689874 0.707025 0.158474 0.147365
H14   H     H_    0.733818 0.739275 0.919719 0.129383
H15   H     H_    0.615240 0.744209 0.813203 0.107120
H16   H     H_    0.760648 0.753024 0.774899 0.130852
H17   H     H_    0.228535 0.247881 0.130561 0.137143
H18   H     H_    0.264980 0.265405 0.281781 0.127902
H19   H     H_    0.377503 0.249831 0.185628 0.075866
H20   H     H_    0.365112 0.222105 0.975446 0.062259
H21   H     H_    0.368602 0.272724 0.841196 0.169542
H22   H     H_    0.238942 0.213999 0.879537 0.149611
H23   H     H_    0.335777 0.907967 0.840626 0.161096
H24   H     H_    0.824175 0.450512 0.906301 0.129200
H25   H     H_    0.777116 0.416814 0.041142 0.119573
H26   H     H_    0.904422 0.497504 0.039973 0.156204
H27   H     H_    0.486243 0.887840 0.815798 0.088775
H28   H     H_    0.396910 0.785400 0.853189 0.097359
H29   H     H_    0.539967 0.164490 0.189892 0.061062
H30   H     H_    0.685386 0.121663 0.171575 0.153638
H31   H     H_    0.655902 0.257490 0.189581 0.136387
H32   H     H_    0.527674 0.984329 0.159199 0.091660
N1    N     N_R   0.520920 0.519350 0.790130 -0.253013
N2    N     N_R   0.479080 0.480650 0.209870 -0.256454
O1    O     O_R   0.505930 0.354460 0.582000 -0.499397
O2    O     O_3   0.657228 0.191871 0.336762 -0.534969
O3    O     O_3   0.648666 0.971782 0.295117 -0.556853
O4    O     O_3   0.328921 0.027102 0.689823 -0.600299
O5    O     O_3   0.328997 0.452815 0.792334 -0.507893
O6    O     O_3   0.664094 0.563481 0.213356 -0.497009
O7    O     O_3   0.704641 0.605906 0.795346 -0.514223
O8    O     O_3   0.295277 0.394207 0.205279 -0.508123
O9    O     O_3   0.279242 0.361465 0.968519 -0.536024
O10   O     O_3   0.753914 0.570970 0.015859 -0.546697
O11   O     O_R   0.494070 0.645540 0.418000 -0.523816
O12   O     O_R   0.491820 0.341410 0.386200 -0.486927
O13   O     O_R   0.508180 0.658590 0.613800 -0.465917
O14   O     O_R   0.344250 0.506540 0.597900 -0.461453
O15   O     O_R   0.655750 0.493460 0.402100 -0.445188
O16   O     O_R   0.330140 0.493480 0.402100 -0.447704
O17   O     O_R   0.669860 0.506520 0.597900 -0.452793
O18   O     O_3   0.362496 0.811769 0.687549 -0.561527

loop_
_geom_bond_atom_site_label_1
_geom_bond_atom_site_label_2
_ccdc_geom_bond_type
C2    C35   A    
C30   H26   S    
Cu2   O11   S    
C24   H4    S    
C28   H18   S    
C27   H16   S    
C7    C8    S    
C32   N2    A    
C4    O15   A    
C28   H19   S    
C1    O12   A    
C11   C19   A    
C26   O6    S    
C31   O10   S    
C12   O13   A    
C25   O5    S    
C14   O2    S    
Cu1   O13   S    
C16   H12   S    
C27   O7    S    
C11   C14   A    
C22   H3    S    
C2    C36   A    
C18   C19   A    
C17   H1    S    
C20   H23   S    
C29   H22   S    
C29   H21   S    
C31   C33   A    
C25   H9    S    
C26   H10   S    
C35   N1    A    
C30   H25   S    
C21   H29   S    
C3    O14   A    
C22   O3    S    
C28   H17   S    
Cu2   N2    S    
C20   H27   S    
C4    C6    S    
C10   C14   A    
C26   H11   S    
C5    C7    T    
C24   O4    S    
C6    C8    T    
C20   O18   S    
C21   O2    S    
C35   O5    S    
C12   O11   A    
Cu2   O16   S    
C30   O10   S    
C29   O9    S    
Cu1   Cu2   S    
C32   O8    S    
Cu1   O14   S    
C13   O4    S    
C22   H2    S    
C13   C15   A    
C13   C18   A    
C9    C17   A    
C30   H24   S    
C21   H30   S    
C24   H6    S    
C25   H7    S    
C27   H14   S    
C4    O17   A    
C20   H28   S    
Cu1   O1    S    
C23   O9    S    
Cu2   O12   S    
C3    O16   A    
C33   O7    S    
C1    C10   S    
C3    C5    S    
C27   H15   S    
Cu1   O17   S    
Cu2   O15   S    
C1    O1    A    
C23   C32   A    
Cu1   N1    S    
C9    C15   A    
C10   C16   A    
C26   H13   S    
C34   O6    S    
C15   O18   S    
C17   C19   A    
C34   C36   A    
C28   O8    S    
C9    C12   S    
C33   N1    A    
C34   N2    A    
C29   H20   S    
C16   C18   A    
C21   H31   S    
C2    C23   A    
C24   H5    S    
C31   C36   A    
C11   O3    S    
C25   H8    S    
C22   H32   S    
