data_mof_unit_51238.cif
_audit_creation_date              2012-12-10T18:09:54-0500
_audit_creation_method            fapswitch 2.2
_symmetry_space_group_name_H-M    P1
_symmetry_Int_Tables_number       1
_space_group_crystal_system       triclinic
_cell_length_a                    10.645956
_cell_length_b                    12.62113
_cell_length_c                    13.104457
_cell_angle_alpha                 82.114586
_cell_angle_beta                  90.457064
_cell_angle_gamma                 102.624031
_cell_volume                      1701.51322938

loop_
_atom_site_label
_atom_site_type_symbol
_atom_type_description
_atom_site_fract_x
_atom_site_fract_y
_atom_site_fract_z
_atom_type_partial_charge
C1    C     C_R   0.478723 0.438534 0.691201 0.884809
C2    C     C_R   0.448499 0.442862 0.974064 0.104527
C3    C     C_R   0.424353 0.466066 0.868761 0.034293
C4    C     C_R   0.741896 0.500604 0.499534 0.916101
C5    C     C_R   0.455845 0.527582 0.035563 0.005317
C6    C     C_R   0.419298 0.626507 0.995854 0.057397
C7    C     C_R   0.369947 0.638599 0.896374 0.429960
C8    C     C_R   0.372224 0.557759 0.833776 -0.316543
C9    C     C_R   0.505425 0.518268 0.133856 -0.278953
C10   C     C_R   0.486448 0.702387 0.155042 0.204121
C11   C     C_R   0.455884 0.397965 0.800788 -0.090044
C12   C     C_3   0.121971 0.499730 0.499110 0.108851
C13   C     C_R   0.316245 0.083626 0.352672 -0.333357
C14   C     C_R   0.654228 0.799696 0.628658 0.023370
C15   C     C_R   0.685410 0.903821 0.657994 -0.238668
C16   C     C_R   0.515023 0.561738 0.307935 0.867874
C17   C     C_R   0.625740 0.984971 0.610904 -0.191511
C18   C     C_R   0.534196 0.961781 0.533861 0.036047
C19   C     C_R   0.505755 0.853977 0.507160 0.208231
C20   C     C_R   0.470575 0.040666 0.481667 -0.009425
C21   C     C_R   0.378474 0.008513 0.406747 0.132262
C22   C     C_R   0.350763 0.901822 0.383881 -0.271188
C23   C     C_3   0.041943 0.388973 0.472115 -0.399426
C24   C     C_R   0.415796 0.826540 0.431782 -0.188812
C25   C     C_R   0.495263 0.150756 0.499166 -0.116499
C26   C     C_R   0.343946 0.191858 0.372427 0.366489
C27   C     C_R   0.258312 0.499527 0.499672 0.874639
C28   C     C_3   0.935222 0.519379 0.607486 0.297273
C29   C     C_3   0.077898 0.510297 0.609397 -0.550980
C30   C     C_3   0.899938 0.390016 0.470271 -0.419720
C31   C     C_3   0.949853 0.593323 0.416114 -0.553199
C32   C     C_3   0.878651 0.500560 0.499248 0.057332
C33   C     C_3   0.154726 0.542768 0.257977 -0.769732
C34   C     C_3   0.095899 0.601466 0.424889 0.082178
C35   C     C_3   0.505956 0.901472 0.164030 -0.830779
C36   C     C_3   0.156944 0.235674 0.276987 -0.877781
C37   C     C_R   0.436752 0.713210 0.055034 -0.180513
C38   C     C_R   0.508835 0.598713 0.197008 -0.143669
C39   C     C_R   0.479943 0.295206 0.839665 -0.166823
C40   C     C_R   0.480924 0.263489 0.945307 -0.145703
C41   C     C_R   0.468503 0.337208 0.012391 -0.171336
H1    H     H_    0.863508 0.378604 0.391665 0.186100
H2    H     H_    0.281298 0.877309 0.325939 0.154522
H3    H     H_    0.248826 0.057600 0.294063 0.158006
H4    H     H_    0.563442 0.182371 0.554665 0.139168
H5    H     H_    0.699993 0.736212 0.665182 0.147190
H6    H     H_    0.652693 0.064320 0.636409 0.131685
H7    H     H_    0.755444 0.921545 0.717127 0.151200
H8    H     H_    0.395797 0.747936 0.406520 0.237073
H9    H     H_    0.137397 0.584410 0.637237 0.158824
H10   H     H_    0.091495 0.438635 0.664713 0.188918
H11   H     H_    0.846228 0.318800 0.523982 0.179647
H12   H     H_    0.071820 0.370534 0.397476 0.211172
H13   H     H_    0.056858 0.320241 0.530652 0.181119
H14   H     H_    0.916046 0.576707 0.338170 0.196714
H15   H     H_    0.928258 0.673524 0.427089 0.163910
H16   H     H_    0.133302 0.674539 0.464423 0.124576
H17   H     H_    0.871218 0.372174 0.682763 0.336155
H18   H     H_    0.154926 0.701061 0.285044 0.225452
H19   H     H_    0.191726 0.581508 0.179598 0.241607
H20   H     H_    0.053779 0.497809 0.251291 0.233709
H21   H     H_    0.217421 0.486368 0.286779 0.256870
H22   H     H_    0.601462 0.796533 0.252819 0.245833
H23   H     H_    0.413677 0.789602 0.021722 0.203531
H24   H     H_    0.537221 0.961883 0.218353 0.252646
H25   H     H_    0.403960 0.901163 0.145340 0.245664
H26   H     H_    0.568462 0.927934 0.093581 0.240489
H27   H     H_    0.295734 0.727331 0.788737 0.335012
H28   H     H_    0.346316 0.319284 0.256753 0.235551
H29   H     H_    0.158499 0.187205 0.212608 0.238734
H30   H     H_    0.118184 0.307835 0.245703 0.243615
H31   H     H_    0.091958 0.186898 0.340600 0.255355
H32   H     H_    0.541695 0.447253 0.164116 0.159621
H33   H     H_    0.501144 0.240545 0.788506 0.154118
H34   H     H_    0.472823 0.308721 0.093518 0.119051
H35   H     H_    0.497465 0.183486 0.975263 0.143218
H36   H     H_    0.932075 0.604265 0.620050 0.141329
H37   H     H_    0.333682 0.567453 0.757266 0.160445
N1    N     N_R   0.433240 0.222190 0.444680 -0.127577
N2    N     N_R   0.566070 0.776970 0.554790 -0.138437
N3    N     N_2   0.162797 0.626317 0.324493 -0.308907
N4    N     N_2   0.517980 0.793688 0.211884 -0.291571
N5    N     N_2   0.285785 0.271760 0.314237 -0.265332
O1    O     O_R   0.468120 0.366740 0.627160 -0.617537
O2    O     O_3   0.324785 0.731309 0.860491 -0.785609
O3    O     O_R   0.510770 0.544830 0.662520 -0.607950
O4    O     O_R   0.663880 0.410950 0.482330 -0.628699
O5    O     O_R   0.706530 0.589040 0.517700 -0.630938
O6    O     O_R   0.489230 0.455170 0.337480 -0.624847
O7    O     O_R   0.531880 0.633260 0.372840 -0.633367
O8    O     O_R   0.293470 0.410960 0.482300 -0.603608
O9    O     O_R   0.336120 0.589050 0.517670 -0.656110
O10   O     O_3   0.862211 0.447726 0.688263 -0.769235
Zn1   Zn    Zn3+2 0.471520 0.381090 0.476390 0.939916
Zn2   Zn    Zn3+2 0.528480 0.618910 0.523610 0.925569

loop_
_geom_bond_atom_site_label_1
_geom_bond_atom_site_label_2
_ccdc_geom_bond_type
C16   O7    A    
C26   N5    S    
C12   C29   S    
C1    C11   S    
C7    C8    A    
C14   H5    S    
C4    O4    A    
C1    O1    A    
C12   C23   S    
C10   C37   A    
C28   C29   S    
H17   O10   S    
C5    C6    A    
C20   C25   A    
C35   H24   S    
C36   N5    S    
O4    Zn1   S    
C1    O3    A    
C18   C19   A    
C39   H33   S    
O6    Zn1   S    
C22   H2    S    
C33   H21   S    
C34   H16   S    
C27   O8    A    
C34   N3    S    
C14   N2    A    
C31   H15   S    
C36   H30   S    
O5    Zn2   S    
C16   O6    A    
C21   C22   A    
C8    H37   S    
H27   O2    S    
C9    H32   S    
C15   H7    S    
C35   N4    S    
C36   H29   S    
C23   H12   S    
C29   H9    S    
C31   C34   S    
C12   C27   S    
C23   C30   S    
C17   H6    S    
C28   C32   S    
N1    Zn1   S    
C3    C8    A    
C39   C40   A    
H22   N4    S    
C35   H25   S    
C10   N4    S    
O9    Zn2   S    
C40   H35   S    
C28   O10   S    
C5    C9    A    
H28   N5    S    
C41   H34   S    
C31   C32   S    
C35   H26   S    
C17   C18   A    
C6    C37   A    
C13   C21   A    
C27   O9    A    
O1    Zn1   S    
N2    Zn2   S    
C11   C39   A    
C28   H36   S    
C4    C32   S    
C40   C41   A    
C33   H19   S    
C22   C24   A    
C13   C26   A    
C2    C5    A    
C12   C34   S    
C25   H4    S    
C37   H23   S    
C23   H13   S    
C29   H10   S    
C24   H8    S    
C15   C17   A    
C30   H11   S    
C25   N1    A    
H18   N3    S    
O7    Zn2   S    
C6    C7    A    
C4    O5    A    
C26   N1    A    
C10   C38   A    
C2    C3    A    
O8    Zn1   S    
C30   C32   S    
C7    O2    S    
C9    C38   A    
C19   C24   A    
C18   C20   A    
C19   N2    A    
C3    C11   A    
O3    Zn2   S    
C20   C21   A    
C33   H20   S    
C14   C15   A    
C30   H1    S    
C2    C41   A    
C31   H14   S    
C33   N3    S    
C13   H3    S    
C36   H31   S    
C16   C38   S    
