data_mof_unit_39639.cif
_audit_creation_date              2012-12-10T17:34:58-0500
_audit_creation_method            fapswitch 2.2
_symmetry_space_group_name_H-M    P1
_symmetry_Int_Tables_number       1
_space_group_crystal_system       triclinic
_cell_length_a                    12.469414
_cell_length_b                    13.224982
_cell_length_c                    13.833707
_cell_angle_alpha                 107.829758
_cell_angle_beta                  73.391139
_cell_angle_gamma                 117.168824
_cell_volume                      1903.16527331

loop_
_atom_site_label
_atom_site_type_symbol
_atom_type_description
_atom_site_fract_x
_atom_site_fract_y
_atom_site_fract_z
_atom_type_partial_charge
C1    C     C_R   0.144225 0.713371 0.506927 0.805408
C2    C     C_1   0.969726 0.504101 0.792393 -0.172898
C3    C     C_R   0.733491 0.966397 0.369065 -0.189012
C4    C     C_R   0.774557 0.162501 0.465837 -0.044932
C5    C     C_R   0.180711 0.920993 0.567172 -0.162979
C6    C     C_R   0.258879 0.037540 0.586892 -0.142430
C7    C     C_R   0.384447 0.071911 0.554520 -0.182895
C8    C     C_R   0.434674 0.989864 0.497014 0.082642
C9    C     C_R   0.353088 0.872843 0.466763 0.079696
C10   C     C_R   0.563033 0.020405 0.467013 0.071213
C11   C     C_R   0.607192 0.937120 0.399760 0.165139
C12   C     C_R   0.981244 0.501271 0.686183 0.859831
C13   C     C_R   0.524969 0.826624 0.361386 -0.236796
C14   C     C_R   0.400019 0.795590 0.392751 -0.203089
C15   C     C_R   0.649211 0.131346 0.502067 -0.250764
C16   C     C_R   0.816902 0.078976 0.401227 -0.195574
C17   C     C_R   0.226534 0.837046 0.510238 -0.106231
C18   C     C_R   0.660907 0.697814 0.646556 -0.323794
C19   C     C_R   0.246588 0.343251 0.366781 0.081991
C20   C     C_R   0.342317 0.307734 0.337372 -0.253602
C21   C     C_R   0.444255 0.368943 0.385822 -0.182565
C22   C     C_R   0.453015 0.467983 0.464954 -0.009971
C23   C     C_R   0.856313 0.285905 0.485444 0.779026
C24   C     C_R   0.351951 0.502956 0.494590 0.231071
C25   C     C_R   0.557916 0.531974 0.516701 -0.031653
C26   C     C_R   0.565791 0.635126 0.589799 0.143147
C27   C     C_R   0.475503 0.673964 0.612214 -0.293034
C28   C     C_R   0.366264 0.606790 0.575697 -0.045880
C29   C     C_R   0.656657 0.499406 0.500485 0.002866
C30   C     C_R   0.750229 0.658450 0.631527 0.169788
C31   C     C_R   0.016251 0.495189 0.313390 0.798300
C32   C     C_1   0.026214 0.492089 0.207419 -0.174038
C33   C     C_2   0.033254 0.488790 0.014276 -0.224087
C34   C     C_2   0.951358 0.511831 0.989196 0.168027
C35   C     C_1   0.960690 0.507447 0.881941 0.011265
C36   C     C_1   0.031363 0.490125 0.118939 -0.006228
Cu1   Cu    Cu3+1 0.899780 0.525060 0.522890 0.949774
Cu2   Cu    Cu3+1 0.100220 0.474940 0.477110 0.937037
H1    H     H_    0.341176 0.711206 0.355471 0.175728
H2    H     H_    0.486912 0.755104 0.668733 0.153856
H3    H     H_    0.663666 0.775444 0.704712 0.138856
H4    H     H_    0.662270 0.424467 0.443626 0.124944
H5    H     H_    0.167888 0.294857 0.328455 0.122584
H6    H     H_    0.515798 0.337466 0.359034 0.134539
H7    H     H_    0.337531 0.232127 0.276435 0.145245
H8    H     H_    0.103530 0.468287 0.955130 0.146321
H9    H     H_    0.913698 0.101770 0.372329 0.147825
H10   H     H_    0.557341 0.763837 0.306339 0.146218
H11   H     H_    0.767555 0.903133 0.317528 0.135890
H12   H     H_    0.621313 0.196397 0.556845 0.149584
H13   H     H_    0.084335 0.896473 0.598749 0.165863
H14   H     H_    0.439087 0.163772 0.573511 0.129208
H15   H     H_    0.222224 0.101570 0.630435 0.144616
N1    N     N_R   0.748810 0.563010 0.557590 -0.201745
N2    N     N_R   0.250540 0.437620 0.443020 -0.206809
O1    O     O_R   0.025040 0.682470 0.528790 -0.575078
O2    O     O_R   0.194310 0.640150 0.490130 -0.591093
O3    O     O_R   0.903380 0.524130 0.659910 -0.565387
O4    O     O_R   0.072660 0.481800 0.621240 -0.579256
O5    O     O_R   0.805690 0.359850 0.509870 -0.589689
O6    O     O_R   0.974960 0.317530 0.471210 -0.591498
O7    O     O_R   0.927340 0.518200 0.378760 -0.576226
O8    O     O_R   0.096620 0.475870 0.340090 -0.586090
C37   C     C_3   0.851702 0.540397 0.070391 -0.359910
C38   C     C_3   0.770067 0.568614 0.028012 -0.830520
H16   H     H_    0.825694 0.645112 0.991333 0.263753
H17   H     H_    0.721262 0.492913 0.970725 0.255040
H18   H     H_    0.700954 0.589257 0.092121 0.236394
H19   H     H_    0.792763 0.465290 0.108428 0.203241
H20   H     H_    0.895099 0.616485 0.130060 0.206576
C39   C     C_1   0.843070 0.719630 0.695530 0.280873
N3    N     N_1   0.916933 0.769101 0.747810 -0.303809
C40   C     C_1   0.279794 0.653491 0.640760 0.359040
N4    N     N_1   0.218278 0.698725 0.696935 -0.312850

loop_
_geom_bond_atom_site_label_1
_geom_bond_atom_site_label_2
_ccdc_geom_bond_type
C2    C35   T    
C29   H4    S    
C40   N4    T    
C19   C20   A    
C18   C26   A    
C2    C12   S    
C30   C39   S    
C3    H11   S    
C7    C8    A    
C24   N2    A    
C30   N1    A    
C26   C27   A    
C32   C36   T    
C1    O1    A    
C7    H14   S    
C10   C15   A    
C5    C6    A    
C5    C17   A    
C29   N1    A    
C21   H6    S    
C33   C36   S    
C34   C35   S    
C15   H12   S    
C14   H1    S    
C12   O4    A    
Cu2   N2    S    
C8    C9    A    
C38   H17   S    
C22   C25   A    
C18   C30   A    
C37   H20   S    
Cu1   O3    S    
Cu2   O6    S    
C12   O3    A    
C21   C22   A    
C33   H8    S    
Cu1   O1    S    
C31   O7    A    
C28   C40   S    
C16   H9    S    
C19   H5    S    
Cu1   O7    S    
C25   C29   A    
C23   O5    A    
C31   O8    A    
C18   H3    S    
C4    C23   S    
C25   C26   A    
C4    C16   A    
C9    C14   A    
Cu1   Cu2   S    
C1    O2    A    
Cu2   O2    S    
C31   C32   S    
C27   H2    S    
C38   H18   S    
C34   C37   S    
C33   C34   D    
C37   H19   S    
Cu1   N1    S    
C9    C17   A    
C22   C24   A    
C6    H15   S    
C20   H7    S    
Cu2   O8    S    
C19   N2    A    
C24   C28   A    
C13   H10   S    
C6    C7    A    
C1    C17   S    
C37   C38   S    
C4    C15   A    
C39   N3    T    
C11   C13   A    
Cu1   O5    S    
C3    C11   A    
C10   C11   A    
Cu2   O4    S    
C23   O6    A    
C20   C21   A    
C8    C10   A    
C38   H16   S    
C27   C28   A    
C5    H13   S    
C13   C14   A    
C3    C16   A    
