data_mof_unit_7277.cif
_audit_creation_date              2012-12-10T16:57:06-0500
_audit_creation_method            fapswitch 2.2
_symmetry_space_group_name_H-M    P1
_symmetry_Int_Tables_number       1
_space_group_crystal_system       triclinic
_cell_length_a                    7.910839
_cell_length_b                    8.517397
_cell_length_c                    16.565835
_cell_angle_alpha                 94.286882
_cell_angle_beta                  78.459409
_cell_angle_gamma                 93.149537
_cell_volume                      1089.66247044

loop_
_atom_site_label
_atom_site_type_symbol
_atom_type_description
_atom_site_fract_x
_atom_site_fract_y
_atom_site_fract_z
_atom_type_partial_charge
C1    C     C_R   0.543212 0.794516 0.501273 0.928390
C2    C     C_R   0.456787 0.205484 0.498732 0.928341
C3    C     C_2   0.552292 0.958501 0.516769 -0.067888
C4    C     C_2   0.447705 0.041500 0.483241 -0.067861
C5    C     C_R   0.473917 0.504544 0.654127 0.852004
C6    C     C_R   0.526086 0.495447 0.345871 0.852005
C7    C     C_R   0.450896 0.520724 0.742315 0.011030
C8    C     C_R   0.549126 0.479061 0.257681 0.011129
C9    C     C_R   0.353519 0.405622 0.789169 -0.197726
C10   C     C_R   0.646919 0.593837 0.210746 -0.197872
C11   C     C_R   0.329364 0.422288 0.874506 -0.140301
C12   C     C_R   0.671346 0.576839 0.125406 -0.140583
C13   C     C_R   0.402991 0.554095 0.912189 0.150445
C14   C     C_R   0.597537 0.445048 0.087796 0.150526
C15   C     C_R   0.488776 0.675040 0.865404 -0.175577
C16   C     C_R   0.511322 0.324407 0.134676 -0.175452
C17   C     C_R   0.513544 0.657805 0.780056 -0.181263
C18   C     C_R   0.486316 0.341960 0.220025 -0.181076
C19   C     C_2   0.433963 0.542829 0.994833 -0.103534
C20   C     C_2   0.566613 0.456260 0.005136 -0.103477
H1    H     H_    0.301857 0.301127 0.759590 0.140422
H2    H     H_    0.698741 0.698328 0.240260 0.140439
H3    H     H_    0.415633 0.250646 0.256570 0.165759
H4    H     H_    0.583951 0.749333 0.743572 0.165756
H5    H     H_    0.548586 0.775584 0.894388 0.117261
H6    H     H_    0.451355 0.223888 0.105749 0.117197
H7    H     H_    0.735682 0.671368 0.089072 0.133695
H8    H     H_    0.265349 0.327540 0.910768 0.133671
N1    N     N_2   0.953500 0.457650 0.478520 0.040049
N2    N     N_2   0.046500 0.542350 0.521480 0.040046
O1    O     O_R   0.388470 0.738640 0.505270 -0.584010
O2    O     O_R   0.611530 0.261360 0.494730 -0.584000
O3    O     O_R   0.679650 0.711510 0.491500 -0.588895
O4    O     O_R   0.320350 0.288490 0.508500 -0.588900
O5    O     O_R   0.337210 0.515200 0.623500 -0.619464
O6    O     O_R   0.662790 0.484800 0.376500 -0.619437
O7    O     O_R   0.628380 0.488060 0.609730 -0.580087
O8    O     O_R   0.371620 0.511940 0.390270 -0.580101
Zn1   Zn    Zn3+2 0.305580 0.518120 0.509190 1.048646
Zn2   Zn    Zn3+2 0.694420 0.481880 0.490810 1.048674
C21   C     C_R   0.684446 0.375575 0.935159 0.150746
C22   C     C_R   0.807902 0.463530 0.881708 -0.130185
C23   C     C_R   0.911870 0.388679 0.813013 -0.120661
C24   C     C_R   0.896150 0.225331 0.798297 -0.082485
C25   C     C_R   0.775529 0.136683 0.852036 -0.120507
C26   C     C_R   0.669637 0.211407 0.920281 -0.164111
H9    H     H_    0.821842 0.590094 0.892652 0.126462
H10   H     H_    0.004390 0.457443 0.771118 0.164488
H11   H     H_    0.977107 0.167526 0.745160 0.158020
H12   H     H_    0.763075 0.010248 0.840359 0.137367
H13   H     H_    0.574487 0.141766 0.960513 0.110036
C27   C     C_R   0.316139 0.623481 0.064823 0.150984
C28   C     C_R   0.331413 0.787562 0.079940 -0.164022
C29   C     C_R   0.225571 0.862195 0.148231 -0.120363
C30   C     C_R   0.104562 0.773536 0.201786 -0.082473
C31   C     C_R   0.088410 0.610273 0.186837 -0.120898
C32   C     C_R   0.192306 0.535525 0.118086 -0.130388
H14   H     H_    0.426890 0.857187 0.039863 0.109992
H15   H     H_    0.238374 0.988558 0.160095 0.137524
H16   H     H_    0.023654 0.831262 0.254965 0.158094
H17   H     H_    0.995625 0.541489 0.228600 0.164539
H18   H     H_    0.178063 0.409023 0.106970 0.126421
I1    I     I_    0.661066 0.043172 0.621428 -0.353592
I2    I     I_    0.338927 0.956827 0.378585 -0.353852
I3    I     I_    0.058044 0.299212 0.383721 -0.224554
I4    I     I_    0.941940 0.700767 0.616291 -0.224563

loop_
_geom_bond_atom_site_label_1
_geom_bond_atom_site_label_2
_ccdc_geom_bond_type
C24   H11   S    
C2    C4    S    
C30   C31   A    
C6    O8    A    
C15   C17   A    
N1    N2    D    
C28   H14   S    
C3    I1    S    
C11   C13   A    
C23   H10   S    
C4    I2    S    
O5    Zn1   S    
C19   C20   D    
O6    Zn2   S    
C23   C24   A    
C30   H16   S    
C2    O4    A    
O2    Zn2   S    
C20   C21   S    
C3    C4    D    
C1    O3    A    
C32   H18   S    
C31   H17   S    
C25   C26   A    
C10   H2    S    
C9    C11   A    
C9    H1    S    
N2    I4    S    
C21   C26   A    
C10   C12   A    
C25   H12   S    
C26   H13   S    
N1    I3    S    
C11   H8    S    
N1    Zn2   S    
C16   C18   A    
C22   H9    S    
C6    O6    A    
N2    Zn1   S    
O7    Zn2   S    
C7    C9    A    
C29   H15   S    
C13   C15   A    
C16   H6    S    
O8    Zn1   S    
C14   C16   A    
C15   H5    S    
O3    Zn2   S    
C27   C32   A    
C13   C19   S    
C31   C32   A    
O4    Zn1   S    
C17   H4    S    
C5    O5    A    
C12   C14   A    
C1    O1    A    
C27   C28   A    
C14   C20   S    
C2    O2    A    
C21   C22   A    
C5    C7    S    
C29   C30   A    
C5    O7    A    
C6    C8    S    
C12   H7    S    
C1    C3    S    
C28   C29   A    
C19   C27   S    
C8    C10   A    
C8    C18   A    
C24   C25   A    
C18   H3    S    
C22   C23   A    
O1    Zn1   S    
C7    C17   A    
