data_mof_unit_54589.cif
_audit_creation_date              2012-12-10T16:43:26-0500
_audit_creation_method            fapswitch 2.2
_symmetry_space_group_name_H-M    P1
_symmetry_Int_Tables_number       1
_space_group_crystal_system       triclinic
_cell_length_a                    10.848311
_cell_length_b                    8.682273
_cell_length_c                    7.556131
_cell_angle_alpha                 103.035558
_cell_angle_beta                  96.517603
_cell_angle_gamma                 94.131353
_cell_volume                      685.361201808

loop_
_atom_site_label
_atom_site_type_symbol
_atom_type_description
_atom_site_fract_x
_atom_site_fract_y
_atom_site_fract_z
_atom_type_partial_charge
C1    C     C_R   0.497139 0.200007 0.453228 0.883439
C2    C     C_R   0.083201 0.591346 0.662213 0.051968
C3    C     C_R   0.131015 0.524550 0.499453 -0.105572
C4    C     C_R   0.049780 0.450650 0.340438 -0.217783
C5    C     C_R   0.922126 0.440421 0.343208 -0.239484
C6    C     C_R   0.873840 0.489363 0.508617 -0.098140
C7    C     C_2   0.497526 0.031931 0.427722 -0.377684
C8    C     C_2   0.505677 0.968428 0.572734 -0.370939
C9    C     C_R   0.263783 0.510424 0.500184 0.786883
C10   C     C_R   0.504111 0.800129 0.546892 0.858762
C11   C     C_R   0.737932 0.494074 0.501663 0.776885
C12   C     C_R   0.157264 0.694216 0.815881 -0.181456
C13   C     C_R   0.113555 0.730336 0.986443 0.222933
C14   C     C_R   0.998505 0.656980 0.004361 -0.204067
C15   C     C_R   0.923576 0.563276 0.850300 -0.223746
C16   C     C_R   0.957715 0.548748 0.673725 0.106713
Cu1   Cu    Cu3+1 0.513920 0.517380 0.684380 0.932282
Cu2   Cu    Cu3+1 0.486080 0.482620 0.315620 0.920883
H1    H     H_    0.084808 0.400343 0.213407 0.174445
H2    H     H_    0.248336 0.747771 0.804293 0.155757
H3    H     H_    0.966158 0.672971 0.136952 0.150901
H4    H     H_    0.844387 0.492536 0.871714 0.173250
H5    H     H_    0.861294 0.389955 0.216217 0.158732
H6    H     H_    0.490779 0.960178 0.288461 0.176492
H7    H     H_    0.512950 0.040287 0.712152 0.177042
H8    H     H_    0.392450 0.386707 0.950698 0.213293
N1    N     N_2   0.465100 0.456430 0.038520 -0.215034
N2    N     N_2   0.534900 0.543570 0.961480 -0.084007
O1    O     O_R   0.509050 0.286130 0.619770 -0.579538
O2    O     O_R   0.485540 0.256780 0.308360 -0.585090
O3    O     O_R   0.331410 0.514680 0.655740 -0.592477
O4    O     O_R   0.307900 0.485330 0.344330 -0.587087
O5    O     O_R   0.514460 0.743220 0.691640 -0.587795
O6    O     O_R   0.490950 0.713870 0.380230 -0.605648
O7    O     O_R   0.692100 0.514670 0.655670 -0.595085
O8    O     O_R   0.668590 0.485320 0.344260 -0.617663
C17   C     C_3   0.647454 0.636804 0.068296 -0.027134
C18   C     C_3   0.685208 0.787881 0.008032 -0.840626
H9    H     H_    0.718673 0.763246 0.872957 0.283843
H10   H     H_    0.607035 0.863811 0.010060 0.248114
H11   H     H_    0.764305 0.857375 0.107036 0.198214
H12   H     H_    0.636820 0.684415 0.209096 0.216642
H13   H     H_    0.724574 0.561390 0.067594 0.137206
C19   C     C_3   0.192169 0.839292 0.150100 -0.410693
C20   C     C_3   0.194813 0.011760 0.134679 -0.824844
H14   H     H_    0.098348 0.045923 0.114675 0.251253
H15   H     H_    0.244779 0.091096 0.262712 0.247671
H16   H     H_    0.243633 0.028744 0.017932 0.245516
H17   H     H_    0.154751 0.830146 0.278811 0.200877
H18   H     H_    0.288429 0.803453 0.160593 0.221599

loop_
_geom_bond_atom_site_label_1
_geom_bond_atom_site_label_2
_ccdc_geom_bond_type
C19   H17   S    
C17   H13   S    
C17   C18   S    
C3    C9    S    
C7    H6    S    
C4    H1    S    
Cu1   O1    S    
C5    H5    S    
C2    C12   A    
C12   H2    S    
C17   H12   S    
C11   O7    A    
C2    C3    A    
C7    C8    D    
C10   O6    A    
C1    C7    S    
C13   C14   A    
C19   C20   S    
C18   H10   S    
C8    H7    S    
Cu2   O6    S    
H8    N1    S    
C5    C6    A    
Cu1   O5    S    
N2    C17   S    
Cu2   O2    S    
C14   H3    S    
C1    O1    A    
C11   O8    A    
Cu1   Cu2   S    
C10   O5    A    
C20   H15   S    
C18   H9    S    
Cu1   O3    S    
Cu2   O4    S    
C9    O3    A    
C6    C16   A    
C15   C16   A    
N1    N2    D    
C2    C16   A    
C12   C13   A    
C18   H11   S    
C8    C10   S    
C20   H16   S    
C19   H18   S    
C6    C11   S    
C14   C15   A    
C1    O2    A    
Cu1   O7    S    
C9    O4    A    
C13   C19   S    
C20   H14   S    
Cu1   N2    S    
Cu2   O8    S    
C15   H4    S    
Cu2   N1    S    
C3    C4    A    
C4    C5    A    
