data_mof_unit_49550.cif
_audit_creation_date              2012-12-10T17:31:25-0500
_audit_creation_method            fapswitch 2.2
_symmetry_space_group_name_H-M    P1
_symmetry_Int_Tables_number       1
_space_group_crystal_system       triclinic
_cell_length_a                    18.919815
_cell_length_b                    18.376352
_cell_length_c                    12.345561
_cell_angle_alpha                 89.999989
_cell_angle_beta                  128.899694
_cell_angle_gamma                 90.000029
_cell_volume                      3340.44398722

loop_
_atom_site_label
_atom_site_type_symbol
_atom_type_description
_atom_site_fract_x
_atom_site_fract_y
_atom_site_fract_z
_atom_type_partial_charge
C1    C     C_R   0.608419 0.894974 0.647640 0.868141
C2    C     C_R   0.608419 0.105026 0.647640 0.868141
C3    C     C_R   0.108419 0.394974 0.647640 0.868141
C4    C     C_R   0.108419 0.605026 0.647640 0.868141
C5    C     C_R   0.255882 0.759420 0.061860 0.114935
C6    C     C_R   0.255882 0.240580 0.061860 0.114934
C7    C     C_R   0.755882 0.259420 0.061860 0.114934
C8    C     C_R   0.755882 0.740580 0.061860 0.114934
C9    C     C_R   0.685540 0.243301 0.068555 0.080202
C10   C     C_R   0.685540 0.756699 0.068555 0.080202
C11   C     C_R   0.185540 0.743301 0.068555 0.080202
C12   C     C_R   0.185540 0.256699 0.068555 0.080202
C13   C     C_R   0.605172 0.212692 0.953597 -0.236675
C14   C     C_R   0.605171 0.787308 0.953597 -0.236675
C15   C     C_R   0.105171 0.712691 0.953597 -0.236675
C16   C     C_R   0.105171 0.287308 0.953597 -0.236675
C17   C     C_R   0.594227 0.199465 0.832969 0.294429
C18   C     C_R   0.594227 0.800535 0.832969 0.294429
C19   C     C_R   0.094227 0.699465 0.832969 0.294429
C20   C     C_R   0.094227 0.300535 0.832969 0.294429
C21   C     C_R   0.318689 0.812791 0.151513 -0.158797
C22   C     C_R   0.318689 0.187209 0.151513 -0.158797
C23   C     C_R   0.818689 0.312791 0.151513 -0.158796
C24   C     C_R   0.818689 0.687209 0.151513 -0.158797
C25   C     C_R   0.259808 0.815732 0.277707 -0.108494
C26   C     C_R   0.259807 0.184268 0.277707 -0.108494
C27   C     C_R   0.759808 0.315732 0.277707 -0.108494
C28   C     C_R   0.759807 0.684268 0.277707 -0.108494
C29   C     C_R   0.668012 0.168352 0.728061 -0.145592
C30   C     C_R   0.668013 0.831648 0.728061 -0.145592
C31   C     C_R   0.168012 0.668352 0.728061 -0.145592
C32   C     C_R   0.168013 0.331648 0.728061 -0.145591
C33   C     C_R   0.686183 0.000000 0.285998 0.146877
C34   C     C_R   0.186184 0.500000 0.285998 0.146877
C35   C     C_R   0.343448 1.000000 0.628359 0.129118
C36   C     C_R   0.843448 0.500000 0.628359 0.129118
C37   C     C_R   0.309145 1.000000 0.700592 -0.212680
C38   C     C_R   0.809145 0.500000 0.700592 -0.212680
C39   C     C_R   0.385852 0.100560 0.344967 0.824543
C40   C     C_R   0.385852 0.899440 0.344967 0.824543
C41   C     C_R   0.885852 0.600560 0.344967 0.824543
C42   C     C_R   0.885852 0.399440 0.344967 0.824543
C43   C     C_R   0.368058 1.000000 0.845841 -0.176046
C44   C     C_R   0.868058 0.500000 0.845841 -0.176046
C45   C     C_R   0.462866 1.000000 0.921622 0.012409
C46   C     C_R   0.962866 0.500000 0.921622 0.012409
C47   C     C_R   0.494727 0.000000 0.842394 0.305180
C48   C     C_R   0.994727 0.500000 0.842394 0.305180
C49   C     C_R   0.527109 0.000000 0.072283 -0.059712
C50   C     C_R   0.027109 0.500000 0.072283 -0.059712
C51   C     C_R   0.621490 0.000000 0.139426 0.085197
C52   C     C_R   0.121490 0.500000 0.139426 0.085197
C53   C     C_R   0.650180 0.000000 0.059247 -0.215059
C54   C     C_R   0.150180 0.500000 0.059247 -0.215059
C55   C     C_R   0.588764 0.000000 0.915602 -0.193936
C56   C     C_R   0.088764 0.500000 0.915602 -0.193936
C57   C     C_R   0.502114 1.000000 0.159876 0.044681
C58   C     C_R   0.002114 0.500000 0.159876 0.044681
C59   C     C_R   0.656637 0.000000 0.365327 0.107322
C60   C     C_R   0.156637 0.500000 0.365327 0.107322
C61   C     C_R   0.691060 0.267805 0.181262 -0.108758
C62   C     C_R   0.691060 0.732194 0.181262 -0.108758
C63   C     C_R   0.191060 0.767805 0.181262 -0.108757
C64   C     C_R   0.191060 0.232194 0.181262 -0.108758
C65   C     C_R   0.321157 0.841207 0.258653 -0.072205
C66   C     C_R   0.321157 0.158793 0.258653 -0.072205
C67   C     C_R   0.821157 0.341207 0.258653 -0.072205
C68   C     C_R   0.821157 0.658793 0.258653 -0.072205
C69   C     C_R   0.735018 0.189680 0.717028 0.246525
C70   C     C_R   0.735018 0.810320 0.717029 0.246525
C71   C     C_R   0.235018 0.689680 0.717028 0.246525
C72   C     C_R   0.235018 0.310320 0.717029 0.246525
C73   C     C_R   0.316538 0.718202 0.832736 -0.171573
C74   C     C_R   0.316538 0.281799 0.832736 -0.171573
C75   C     C_R   0.816538 0.218202 0.832736 -0.171573
C76   C     C_R   0.816538 0.781799 0.832736 -0.171573
C77   C     C_R   0.329587 0.731331 0.955097 0.203194
C78   C     C_R   0.329588 0.268669 0.955097 0.203194
C79   C     C_R   0.829587 0.231331 0.955097 0.203194
C80   C     C_R   0.829588 0.768669 0.955097 0.203194
C81   C     C_R   0.753664 0.229922 0.953588 -0.015411
C82   C     C_R   0.753664 0.770078 0.953588 -0.015411
C83   C     C_R   0.253664 0.729922 0.953588 -0.015411
C84   C     C_R   0.253664 0.270078 0.953588 -0.015411
C85   C     C_R   0.670978 0.198707 0.836815 -0.061567
C86   C     C_R   0.670978 0.801293 0.836816 -0.061567
C87   C     C_R   0.170978 0.698707 0.836815 -0.061567
C88   C     C_R   0.170978 0.301293 0.836816 -0.061567
Cu1   Cu    Cu3+1 0.526340 0.000000 0.421010 1.010961
Cu2   Cu    Cu3+1 0.026340 0.500000 0.421010 1.010961
Cu3   Cu    Cu3+1 0.473640 0.000000 0.578990 0.985815
Cu4   Cu    Cu3+1 0.973640 0.500000 0.578990 0.985815
H1    H     H_    0.261176 0.836377 0.361178 0.192675
H2    H     H_    0.261175 0.163622 0.361177 0.192675
H3    H     H_    0.761176 0.336377 0.361178 0.192675
H4    H     H_    0.761175 0.663622 0.361177 0.192675
H5    H     H_    0.721338 0.000000 0.106304 0.210775
H6    H     H_    0.221338 0.500000 0.106304 0.210775
H7    H     H_    0.431940 1.000000 0.116910 0.125285
H8    H     H_    0.931940 0.500000 0.116910 0.125285
H9    H     H_    0.296987 1.000000 0.515790 0.127238
H10   H     H_    0.796987 0.500000 0.515790 0.127238
H11   H     H_    0.337634 1.000000 0.895989 0.142207
H12   H     H_    0.837634 0.500000 0.895989 0.142207
H13   H     H_    0.236439 1.000000 0.643634 0.173672
H14   H     H_    0.736439 0.500000 0.643634 0.173672
H15   H     H_    0.618980 0.000000 0.866421 0.205662
H16   H     H_    0.118980 0.500000 0.866421 0.205662
H17   H     H_    0.546756 0.208972 0.950609 0.184840
H18   H     H_    0.546756 0.791028 0.950609 0.184840
H19   H     H_    0.046756 0.708972 0.950609 0.184840
H20   H     H_    0.046756 0.291028 0.950609 0.184840
H21   H     H_    0.639377 0.253438 0.190097 0.201807
H22   H     H_    0.639377 0.746561 0.190096 0.201807
H23   H     H_    0.139377 0.753438 0.190097 0.201807
H24   H     H_    0.139377 0.246561 0.190096 0.201807
H25   H     H_    0.360698 0.837438 0.130585 0.190310
H26   H     H_    0.360699 0.162562 0.130586 0.190310
H27   H     H_    0.860698 0.337438 0.130585 0.190310
H28   H     H_    0.860699 0.662562 0.130586 0.190310
H29   H     H_    0.372045 0.726397 0.829863 0.206927
H30   H     H_    0.372046 0.273604 0.829864 0.206928
H31   H     H_    0.872045 0.226397 0.829863 0.206928
H32   H     H_    0.872046 0.773604 0.829864 0.206928
N1    N     N_R   0.566260 0.000000 0.302220 -0.215448
N2    N     N_R   0.066260 0.500000 0.302220 -0.215448
N3    N     N_R   0.434410 0.000000 0.697680 -0.191638
N4    N     N_R   0.934410 0.500000 0.697680 -0.191638
O1    O     O_R   0.608610 0.924520 0.551740 -0.554830
O2    O     O_R   0.608610 0.075480 0.551740 -0.554830
O3    O     O_R   0.108610 0.424520 0.551740 -0.554830
O4    O     O_R   0.108610 0.575480 0.551740 -0.554830
O5    O     O_R   0.564110 0.924510 0.685150 -0.588852
O6    O     O_R   0.564110 0.075490 0.685150 -0.588853
O7    O     O_R   0.064110 0.424510 0.685150 -0.588852
O8    O     O_R   0.064110 0.575490 0.685150 -0.588852
O9    O     O_R   0.435880 0.075470 0.314850 -0.586141
O10   O     O_R   0.435880 0.924530 0.314850 -0.586141
O11   O     O_R   0.935880 0.575470 0.314850 -0.586141
O12   O     O_R   0.935880 0.424530 0.314850 -0.586141
O13   O     O_R   0.391380 0.075460 0.448260 -0.571467
O14   O     O_R   0.391380 0.924540 0.448260 -0.571467
O15   O     O_R   0.891380 0.575460 0.448260 -0.571467
O16   O     O_R   0.891380 0.424540 0.448260 -0.571467
Br1   Br    Br    0.815618 0.000000 0.381350 -0.424864
Br2   Br    Br    0.315618 0.500000 0.381350 -0.424864
Br3   Br    Br    0.720328 0.182793 0.548519 -0.437227
Br4   Br    Br    0.720328 0.817208 0.548520 -0.437226
Br5   Br    Br    0.220328 0.682793 0.548519 -0.437227
Br6   Br    Br    0.220328 0.317207 0.548520 -0.437226
Br7   Br    Br    0.454747 0.737497 0.120686 -0.526061
Br8   Br    Br    0.454748 0.262503 0.120686 -0.526062
Br9   Br    Br    0.954747 0.237497 0.120686 -0.526062
Br10  Br    Br    0.954748 0.762503 0.120686 -0.526062
Br11  Br    Br    0.471204 0.206101 0.662672 -0.461618
Br12  Br    Br    0.471204 0.793899 0.662672 -0.461619
Br13  Br    Br    0.971204 0.706101 0.662672 -0.461618
Br14  Br    Br    0.971204 0.293899 0.662672 -0.461619
C89   C     C_1   0.722916 0.000000 0.515053 0.499444
N5    N     N_1   0.776816 0.000000 0.635237 -0.228974
C90   C     C_1   0.222916 0.500000 0.515053 0.499444
N6    N     N_1   0.276816 0.500000 0.635237 -0.228974

loop_
_geom_bond_atom_site_label_1
_geom_bond_atom_site_label_2
_ccdc_geom_bond_type
C26   H2    S    
C14   H18   S    
C83   C87   A    
C39   O9    A    
C25   H1    S    
C64   H24   S    
C40   O14   A    
C14   C18   A    
C27   H3    S    
C48   C56   A    
C77   Br7   S    
C90   N6    T    
C44   H12   S    
C78   Br8   S    
C32   C72   A    
C10   C62   A    
C15   C19   A    
C2    O6    A    
Cu3   N3    S    
C2    C29   S    
C75   H31   S    
C28   C68   A    
C41   O15   A    
C19   C87   A    
C57   N1    A    
C12   C64   A    
C48   N4    A    
C77   C83   A    
C21   H25   S    
C57   H7    S    
C49   C57   A    
C36   H10   S    
C25   C63   A    
C45   C47   A    
C23   C67   A    
Cu4   O15   S    
C9    C13   A    
C56   H16   S    
C13   H17   S    
C27   C61   A    
C2    O2    A    
C59   C89   S    
C22   C66   A    
C12   C16   A    
C44   C46   A    
C49   C51   A    
C40   O10   A    
C50   C52   A    
C76   C80   A    
C30   C86   A    
C29   C85   A    
C4    O8    A    
Cu3   O14   S    
C63   H23   S    
C6    C22   A    
C31   C71   A    
C1    O1    A    
C33   C59   A    
C20   Br14  S    
C34   C60   A    
Cu4   O8    S    
C11   C15   A    
C1    O5    A    
Cu4   N4    S    
C6    C12   A    
C21   C65   A    
C30   C70   A    
C52   C54   A    
Cu2   O11   S    
C41   C68   S    
C46   C48   A    
C53   C55   A    
C54   C56   A    
C24   H28   S    
C31   C87   A    
C42   O12   A    
C19   Br13  S    
C15   H19   S    
C6    C84   A    
C4    O4    A    
C10   C14   A    
C79   C81   A    
C73   H29   S    
Cu1   N1    S    
C53   H5    S    
C37   H13   S    
C82   C86   A    
Cu1   O2    S    
C3    O3    A    
C55   H15   S    
C51   C53   A    
C26   C66   A    
C38   H14   S    
C35   N3    A    
C38   C44   A    
C9    C61   A    
C79   Br9   S    
Cu2   Cu4   S    
C89   N5    T    
Cu3   O5    S    
C45   C49   A    
C16   C20   A    
C60   C90   S    
Cu2   N2    S    
C50   C58   A    
C58   H8    S    
C18   C86   A    
C80   Br10  S    
C43   C45   A    
C33   Br1   S    
C39   O13   A    
Cu2   O3    S    
C72   C74   A    
C7    C81   A    
C58   N2    A    
Cu1   O9    S    
C40   C65   S    
C5    C11   A    
C42   O16   A    
C42   C67   S    
C69   Br3   S    
C39   C66   S    
C17   C85   A    
C37   C43   A    
Cu4   O7    S    
Cu1   Cu3   S    
C17   Br11  S    
C36   N4    A    
C18   Br12  S    
C16   H20   S    
C47   C55   A    
C35   C37   A    
C7    C9    A    
C22   H26   S    
C74   H30   S    
C34   C52   A    
C54   H6    S    
C84   C88   A    
C35   H9    S    
Cu2   O12   S    
C5    C83   A    
C62   H22   S    
C26   C64   A    
C33   C51   A    
C46   C50   A    
C70   Br4   S    
C11   C63   A    
C13   C17   A    
C28   H4    S    
C60   N2    A    
Cu2   O4    S    
C59   N1    A    
C70   C76   A    
C34   Br2   S    
C71   Br5   S    
Cu3   O6    S    
C47   N3    A    
C7    C23   A    
C20   C88   A    
C72   Br6   S    
C36   C38   A    
C1    C30   S    
C8    C24   A    
C80   C82   A    
C69   C75   A    
C3    O7    A    
C3    C32   S    
Cu4   O16   S    
C43   H11   S    
C41   O11   A    
C4    C31   S    
C27   C67   A    
C24   C68   A    
C76   H32   S    
C78   C84   A    
C8    C82   A    
C5    C21   A    
C8    C10   A    
Cu1   O10   S    
C74   C78   A    
C71   C73   A    
C25   C65   A    
C73   C77   A    
C29   C69   A    
C23   H27   S    
Cu1   O1    S    
C75   C79   A    
C61   H21   S    
C81   C85   A    
C28   C62   A    
Cu3   O13   S    
C32   C88   A    
