data_mof_unit_67907.cif
_audit_creation_date              2012-12-10T17:49:44-0500
_audit_creation_method            fapswitch 2.2
_symmetry_space_group_name_H-M    P1
_symmetry_Int_Tables_number       1
_space_group_crystal_system       triclinic
_cell_length_a                    10.625163
_cell_length_b                    10.564613
_cell_length_c                    9.938215
_cell_angle_alpha                 89.630952
_cell_angle_beta                  89.870148
_cell_angle_gamma                 90.202992
_cell_volume                      1115.53887446

loop_
_atom_site_label
_atom_site_type_symbol
_atom_type_description
_atom_site_fract_x
_atom_site_fract_y
_atom_site_fract_z
_atom_type_partial_charge
C1    C     C_R   0.521853 0.261972 0.500775 0.855772
C2    C     C_R   0.596561 0.066815 0.623733 0.052787
C3    C     C_R   0.569662 0.132224 0.502365 -0.250677
C4    C     C_R   0.257361 0.503104 0.499598 0.921832
C5    C     C_R   0.587432 0.068441 0.379263 0.435227
C6    C     C_R   0.571332 0.938166 0.378474 -0.326909
C7    C     C_R   0.561052 0.871862 0.500456 -0.197879
C8    C     C_R   0.345938 0.328349 0.140807 -0.281514
C9    C     C_R   0.284981 0.229845 0.072884 0.419040
C10   C     C_R   0.283756 0.230964 0.932783 0.386296
C11   C     C_R   0.344860 0.328894 0.862500 -0.374408
C12   C     C_3   0.952229 0.594291 0.421442 -0.377830
C13   C     C_R   0.421638 0.417446 0.928654 0.108843
C14   C     C_R   0.421991 0.417224 0.072772 0.087234
C15   C     C_R   0.580599 0.572692 0.071107 -0.078968
C16   C     C_R   0.517977 0.739766 0.499840 0.896121
C17   C     C_R   0.582460 0.570221 0.928504 -0.075554
C18   C     C_R   0.742333 0.496225 0.500286 0.854421
C19   C     C_3   0.044558 0.404453 0.576637 -0.285852
C20   C     C_3   0.960252 0.386761 0.451346 -0.173996
C21   C     C_3   0.877000 0.494986 0.501326 -0.081256
C22   C     C_3   0.958354 0.511814 0.627990 -0.209406
C23   C     C_3   0.038247 0.486200 0.374109 0.519010
C24   C     C_3   0.035709 0.609128 0.547060 0.496667
C25   C     C_3   0.762011 0.894495 0.059360 0.049002
C26   C     C_3   0.891255 0.895379 0.990826 -0.459548
C27   C     C_3   0.992878 0.937941 0.087887 -0.848291
C28   C     C_3   0.307431 0.068619 0.225875 0.133230
C29   C     C_3   0.245450 0.950746 0.284425 -0.858651
C30   C     C_3   0.317956 0.058034 0.805370 0.065377
C31   C     C_3   0.260028 0.941236 0.743554 -0.761963
C32   C     C_3   0.977950 0.800475 0.641960 0.090568
C33   C     C_3   0.929641 0.888706 0.529846 -0.376111
C34   C     C_3   0.122043 0.502972 0.497778 -0.154469
C35   C     C_3   0.919600 0.025996 0.576030 -0.899054
C36   C     C_3   0.106523 0.567580 0.166988 0.091406
C37   C     C_3   0.097436 0.536628 0.017229 -0.341187
C38   C     C_3   0.165589 0.634833 0.930888 -0.935719
C39   C     C_3   0.729473 0.192361 0.267323 0.116043
C40   C     C_3   0.757535 0.269571 0.140554 -0.803557
C41   C     C_R   0.625415 0.128092 0.746475 -0.259538
C42   C     C_R   0.640784 0.058786 0.864622 -0.331885
C43   C     C_R   0.649567 0.926705 0.860176 0.552245
C44   C     C_R   0.634506 0.867231 0.736832 -0.226714
C45   C     C_R   0.596466 0.933808 0.620922 0.038066
H1    H     H_    0.932590 0.293359 0.411528 0.132236
H2    H     H_    0.907902 0.670686 0.361038 0.124997
H3    H     H_    0.639236 0.228789 0.754653 0.212387
H4    H     H_    0.646083 0.109191 0.957941 0.183380
H5    H     H_    0.766326 0.828713 0.146852 0.155733
H6    H     H_    0.739258 0.987632 0.101765 0.187963
H7    H     H_    0.912280 0.798640 0.954274 0.218655
H8    H     H_    0.891668 0.961790 0.903962 0.231576
H9    H     H_    0.973271 0.035082 0.124201 0.293386
H10   H     H_    0.084874 0.938875 0.035028 0.305793
H11   H     H_    0.997322 0.872166 0.175213 0.229867
H12   H     H_    0.659935 0.769469 0.730913 0.158518
H13   H     H_    0.335195 0.128394 0.312373 0.157027
H14   H     H_    0.392399 0.038599 0.168517 0.174418
H15   H     H_    0.232058 0.878557 0.205101 0.246853
H16   H     H_    0.305480 0.909354 0.364474 0.230398
H17   H     H_    0.153823 0.976621 0.329504 0.265070
H18   H     H_    0.386921 0.025479 0.882332 0.168216
H19   H     H_    0.366141 0.110685 0.723194 0.167243
H20   H     H_    0.199624 0.968559 0.657549 0.259306
H21   H     H_    0.335093 0.877648 0.706237 0.237888
H22   H     H_    0.204701 0.890147 0.820951 0.255333
H23   H     H_    0.564125 0.889983 0.282941 0.192780
H24   H     H_    0.011824 0.856747 0.727978 0.179454
H25   H     H_    0.898154 0.744403 0.684464 0.093619
H26   H     H_    0.992360 0.884754 0.440865 0.230953
H27   H     H_    0.835385 0.855593 0.496946 0.195945
H28   H     H_    0.867528 0.031619 0.672480 0.268976
H29   H     H_    0.868300 0.082375 0.499891 0.237926
H30   H     H_    0.014479 0.068156 0.589099 0.269713
H31   H     H_    0.203620 0.598712 0.191588 0.185256
H32   H     H_    0.041228 0.647222 0.185906 0.115211
H33   H     H_    0.138876 0.442632 0.997745 0.248924
H34   H     H_    0.647517 0.630940 0.124372 0.160618
H35   H     H_    0.996744 0.532363 0.987308 0.203191
H36   H     H_    0.121087 0.728228 0.944275 0.252309
H37   H     H_    0.159772 0.607679 0.823518 0.306491
H38   H     H_    0.266321 0.641555 0.959481 0.274128
H39   H     H_    0.805626 0.121415 0.280630 0.116030
H40   H     H_    0.732314 0.258617 0.353093 0.147856
H41   H     H_    0.669767 0.309157 0.097840 0.264681
H42   H     H_    0.822388 0.348926 0.164678 0.242441
H43   H     H_    0.804782 0.210080 0.064206 0.219801
H44   H     H_    0.333144 0.331058 0.246517 0.239606
H45   H     H_    0.333556 0.329283 0.756298 0.242327
H46   H     H_    0.654727 0.621910 0.876216 0.153524
H47   H     H_    0.084257 0.326901 0.639271 0.186688
H48   H     H_    0.922731 0.521778 0.732497 0.146898
N1    N     N_R   0.498800 0.498800 0.142780 -0.115895
N2    N     N_R   0.498760 0.498720 0.857170 -0.111435
O1    O     O_R   0.500000 0.316780 0.614690 -0.656335
O2    O     O_3   0.221919 0.134034 0.141719 -0.591125
O3    O     O_3   0.224049 0.134105 0.864534 -0.592643
O4    O     O_3   0.080124 0.725823 0.596600 -0.652759
O5    O     O_3   0.076683 0.457332 0.241640 -0.635732
O6    O     O_3   0.610447 0.131731 0.258687 -0.637269
O7    O     O_R   0.499990 0.316750 0.385360 -0.596768
O8    O     O_R   0.313960 0.499980 0.614650 -0.615898
O9    O     O_R   0.313940 0.499960 0.385310 -0.636288
O10   O     O_R   0.500010 0.683250 0.614640 -0.614301
O11   O     O_R   0.500000 0.683220 0.385310 -0.616808
O12   O     O_R   0.686060 0.500040 0.614690 -0.646157
O13   O     O_R   0.686040 0.500020 0.385350 -0.628779
O14   O     O_3   0.665924 0.850482 0.973229 -0.680035
Zn1   Zn    Zn3+2 0.500010 0.500020 0.653130 0.920867
Zn2   Zn    Zn3+2 0.499990 0.499980 0.346870 0.937522

loop_
_geom_bond_atom_site_label_1
_geom_bond_atom_site_label_2
_ccdc_geom_bond_type
C28   O2    S    
C31   H21   S    
O10   Zn1   S    
C35   H29   S    
C30   H19   S    
C38   H38   S    
C24   O4    S    
C41   C42   A    
C19   C20   S    
C17   H46   S    
C15   N1    A    
C27   H9    S    
C31   H22   S    
C12   C23   S    
C35   H30   S    
C26   C27   S    
C13   N2    A    
O8    Zn1   S    
C7    C45   A    
C40   H42   S    
C36   C37   S    
C39   H39   S    
C36   H32   S    
C30   C31   S    
C27   H10   S    
C2    C41   A    
C18   C21   S    
C4    O8    A    
N1    Zn2   S    
C31   H20   S    
C40   H41   S    
C10   O3    S    
C18   O12   A    
C19   H47   S    
C36   H31   S    
C33   H27   S    
C33   C35   S    
C25   H5    S    
C15   H34   S    
C8    C9    A    
C9    O2    S    
C20   C23   S    
C17   N2    A    
C9    C10   A    
C16   O11   A    
C6    H23   S    
C23   O5    S    
C13   C14   A    
C38   H37   S    
O7    Zn2   S    
C12   H2    S    
C39   O6    S    
C5    O6    S    
O11   Zn2   S    
C2    C45   A    
C37   H35   S    
C29   H16   S    
C19   C22   S    
C39   C40   S    
C27   H11   S    
C32   H25   S    
C25   C26   S    
O1    Zn1   S    
C12   C21   S    
C19   C34   S    
C24   C34   S    
C1    C3    S    
C43   C44   A    
C25   H6    S    
C37   C38   S    
C26   H7    S    
C25   O14   S    
C29   H15   S    
C44   H12   S    
C23   C34   S    
C36   O5    S    
C6    C7    A    
C16   O10   A    
C7    C16   S    
C38   H36   S    
O12   Zn1   S    
C22   C24   S    
C42   C43   A    
C39   H40   S    
C28   C29   S    
C26   H8    S    
C44   C45   A    
C28   H14   S    
C15   C17   A    
C12   C24   S    
C29   H17   S    
C35   H28   S    
C8    C14   A    
C3    C5    A    
N2    Zn1   S    
O9    Zn2   S    
O13   Zn2   S    
C32   H24   S    
C28   H13   S    
C37   H33   S    
C30   O3    S    
C32   O4    S    
C32   C33   S    
C40   H43   S    
C2    C3    A    
C11   C13   A    
C11   H45   S    
C5    C6    A    
C1    O1    A    
C4    O9    A    
C30   H18   S    
C22   H48   S    
C41   H3    S    
C4    C34   S    
C18   O13   A    
C10   C11   A    
C33   H26   S    
C42   H4    S    
C20   C21   S    
C8    H44   S    
C43   O14   S    
C21   C22   S    
C1    O7    A    
C14   N1    A    
C20   H1    S    
