data_mof_unit_41038.cif
_audit_creation_date              2013-03-05T16:19:40-0500
_audit_creation_method            fapswitch 2.2
_symmetry_space_group_name_H-M    P1
_symmetry_Int_Tables_number       1
_space_group_crystal_system       triclinic
_cell_length_a                    10.651954
_cell_length_b                    9.863539
_cell_length_c                    27.59914
_cell_angle_alpha                 91.669081
_cell_angle_beta                  92.670811
_cell_angle_gamma                 90.624423
_cell_volume                      2895.13334505

loop_
_atom_site_label
_atom_site_type_symbol
_atom_site_description
_atom_site_fract_x
_atom_site_fract_y
_atom_site_fract_z
_atom_type_partial_charge
O1    O     O_R   0.314910 0.616040 0.499990 -0.643320
O2    O     O_R   0.314910 0.383960 0.499990 -0.623817
C1    C     C_R   0.257730 0.499306 0.499054 0.824996
O3    O     O_R   0.500140 0.616020 0.428740 -0.600707
O4    O     O_R   0.500140 0.383980 0.428740 -0.594717
C2    C     C_R   0.502112 0.497985 0.406297 0.836244
Zn1   Zn    Zn3+2 0.500150 0.654960 0.499980 0.962333
Zn2   Zn    Zn3+2 0.500150 0.345040 0.499980 0.992797
O5    O     O_R   0.685320 0.616040 0.499970 -0.575238
O6    O     O_R   0.685320 0.383960 0.499970 -0.565226
O7    O     O_R   0.500090 0.616050 0.571230 -0.618808
O8    O     O_R   0.500090 0.383950 0.571230 -0.548650
C3    C     C_R   0.741893 0.501152 0.501201 0.834525
C4    C     C_R   0.496155 0.501383 0.593705 0.944467
C5    C     C_R   0.393041 0.417341 0.177352 0.506476
O9    O     O_2   0.288847 0.403874 0.202862 -0.537806
N1    N     N_R   0.506046 0.443085 0.201639 -0.359309
C6    C     C_R   0.615005 0.454700 0.177895 0.504787
C7    C     C_R   0.579077 0.372374 0.282338 -0.109579
C8    C     C_R   0.579863 0.388020 0.332477 -0.236015
C9    C     C_R   0.441738 0.581046 0.324813 -0.256706
C10   C     C_R   0.442780 0.567006 0.274600 -0.103222
C11   C     C_R   0.509799 0.461241 0.253251 0.311348
C12   C     C_R   0.497344 0.421909 0.101149 -0.100108
C13   C     C_R   0.385450 0.406679 0.126259 -0.060556
C14   C     C_R   0.270264 0.384373 0.099462 0.241282
C15   C     C_R   0.613008 0.443032 0.127363 0.002066
C16   C     C_R   0.509264 0.490806 0.353867 -0.020630
H1    H     H_    0.385022 0.658859 0.340761 0.162942
H2    H     H_    0.389551 0.636446 0.252215 0.146701
C17   C     C_R   0.482458 0.502488 0.646072 -0.268188
C18   C     C_R   0.371820 0.434459 0.973080 0.089104
C19   C     C_R   0.602914 0.419019 0.973641 -0.096691
C20   C     C_R   0.485266 0.433671 0.948158 0.014462
C21   C     C_R   0.257825 0.459531 0.946733 -0.196128
C22   C     C_R   0.255332 0.479024 0.897115 -0.115705
C23   C     C_R   0.366050 0.472903 0.872009 -0.017019
C24   C     C_R   0.481100 0.448520 0.897323 -0.056604
C25   C     C_R   0.592059 0.439455 0.871762 -0.139693
C26   C     C_R   0.586211 0.456316 0.821594 0.633361
N2    N     N_R   0.473949 0.482950 0.797986 -0.323395
C27   C     C_R   0.364792 0.491217 0.821921 0.552898
C28   C     C_R   0.414741 0.390402 0.717325 -0.279162
C29   C     C_R   0.419948 0.394312 0.667257 0.600947
C30   C     C_R   0.532800 0.609728 0.675466 -0.414666
C31   C     C_R   0.527029 0.605820 0.725638 0.733442
C32   C     C_R   0.470023 0.494649 0.746581 0.087996
O10   O     O_2   0.255705 0.517143 0.797241 -0.535902
C33   C     C_R   0.376281 0.414318 0.023649 0.019307
C34   C     C_R   0.493696 0.419637 0.049794 0.070561
C35   C     C_R   0.607362 0.427226 0.025014 0.078312
C36   C     C_R   0.266818 0.390578 0.049004 -0.285681
H3    H     H_    0.369824 0.305015 0.733594 0.202506
H4    H     H_    0.165938 0.499159 0.878518 0.200784
H5    H     H_    0.169371 0.470163 0.963872 0.163315
H6    H     H_    0.176900 0.371700 0.030237 0.163792
O11   O     O_2   0.724678 0.480404 0.203194 -0.565374
C37   C     C_R   0.723650 0.457924 0.102693 -0.176409
H7    H     H_    0.634746 0.319358 0.354594 0.149650
H8    H     H_    0.631286 0.290667 0.266055 0.147330
H9    H     H_    0.813053 0.477751 0.122103 0.190289
C38   C     C_R   0.711193 0.397581 0.946488 0.587477
C39   C     C_R   0.705410 0.409864 0.896446 -0.181747
O12   O     O_2   0.691483 0.445045 0.796426 -0.530082
C40   C     C_R   0.720924 0.450979 0.052465 -0.145301
H10   H     H_    0.579572 0.694245 0.659864 0.208075
H11   H     H_    0.790506 0.394769 0.877043 0.217568
H12   H     H_    0.808318 0.473318 0.036060 0.207817
C41   C     C_3   0.072581 0.647697 0.500834 -0.451701
C42   C     C_3   0.076973 0.428202 0.543988 -0.433702
H13   H     H_    0.096702 0.703384 0.468092 0.192756
H14   H     H_    0.117947 0.325835 0.548211 0.197854
H15   H     H_    0.117184 0.703724 0.532926 0.194280
H16   H     H_    0.110370 0.488760 0.576882 0.203349
C43   C     C_3   0.931056 0.649691 0.505049 -0.336281
C44   C     C_3   0.933385 0.418727 0.542458 -0.420571
H17   H     H_    0.908955 0.696011 0.540718 0.204572
H18   H     H_    0.898451 0.456657 0.577700 0.168832
H19   H     H_    0.889268 0.714087 0.476136 0.229434
H20   H     H_    0.903908 0.310516 0.537511 0.246662
H21   H     H_    0.874163 0.506306 0.422186 0.158495
H22   H     H_    0.866732 0.341332 0.445131 0.185923
C45   C     C_3   0.060701 0.426635 0.449366 0.438483
C46   C     C_3   0.120010 0.498269 0.497768 0.064855
C47   C     C_3   0.877891 0.502939 0.500210 0.072663
C48   C     C_3   0.914635 0.441468 0.450902 -0.410381
C49   C     C_3   0.376649 0.078852 0.511796 -0.417590
C50   C     C_3   0.383518 0.921317 0.518616 -0.438668
H23   H     H_    0.301951 0.098621 0.484172 0.206928
H24   H     H_    0.297861 0.869225 0.503853 0.224189
H25   H     H_    0.343372 0.129972 0.545119 0.221784
H26   H     H_    0.376971 0.900861 0.557589 0.149862
C51   C     C_3   0.533870 0.073680 0.450571 0.070317
C52   C     C_3   0.516469 0.914346 0.448937 0.137867
C53   C     C_3   0.597479 0.085489 0.535386 0.668911
C54   C     C_3   0.608058 0.921944 0.530395 0.654494
N3    N     N_3   0.499750 0.138610 0.498940 -0.111349
N4    N     N_3   0.499750 0.861390 0.498940 -0.117444
H27   H     H_    0.637110 0.089505 0.447988 0.149767
H28   H     H_    0.606996 0.873176 0.436638 0.143821
F1    F     F_    0.821173 0.353747 0.966890 -0.689904
F2    F     F_    0.579273 0.708193 0.753954 -0.633280
N5    N     N_2   0.115084 0.493470 0.407949 -0.321084
H29   H     H_    0.208420 0.472042 0.403197 0.212918
C55   C     C_3   0.043665 0.516603 0.362919 -0.781777
H30   H     H_    0.108929 0.532530 0.333284 0.250492
H31   H     H_    0.987667 0.610206 0.366780 0.242782
H32   H     H_    0.980924 0.429223 0.352292 0.257026
N6    N     N_2   0.090739 0.281500 0.447474 -0.322062
H33   H     H_    0.065322 0.228816 0.477215 0.236130
C56   C     C_3   0.058891 0.203790 0.402920 -0.833221
H34   H     H_    0.085791 0.096435 0.407649 0.235208
H35   H     H_    0.110686 0.243034 0.372275 0.269772
H36   H     H_    0.956618 0.204867 0.393572 0.243815
N7    N     N_2   0.486405 0.137031 0.406192 -0.268842
H37   H     H_    0.533815 0.107837 0.375893 0.188571
C57   C     C_3   0.356765 0.169204 0.394550 -0.669990
H38   H     H_    0.353189 0.238533 0.363560 0.222499
H39   H     H_    0.315319 0.225093 0.424713 0.283576
H40   H     H_    0.301847 0.079166 0.381935 0.225902
N8    N     N_2   0.427292 0.863978 0.410174 -0.261759
H41   H     H_    0.456663 0.876177 0.375441 0.203265
C58   C     C_3   0.293832 0.838023 0.413023 -0.744417
H42   H     H_    0.249528 0.828743 0.375816 0.203304
H43   H     H_    0.245384 0.921456 0.431627 0.218574
H44   H     H_    0.278257 0.740044 0.429666 0.275102
F3    F     F_    0.714255 0.139202 0.525238 -0.661581
F4    F     F_    0.719575 0.892870 0.507917 -0.679225
N9    N     N_2   0.569354 0.130532 0.584785 -0.287237
H45   H     H_    0.497251 0.082684 0.601366 0.203915
C59   C     C_3   0.670796 0.181736 0.617477 -0.558515
H46   H     H_    0.633468 0.209627 0.653262 0.220002
H47   H     H_    0.713878 0.274011 0.602806 0.246817
H48   H     H_    0.744165 0.104549 0.622863 0.223448
N10   N     N_2   0.616121 0.858933 0.577799 -0.287025
H49   H     H_    0.542073 0.864371 0.600323 0.183338
C60   C     C_3   0.737636 0.835755 0.601938 -0.664481
H50   H     H_    0.734496 0.864037 0.641103 0.214846
H51   H     H_    0.813797 0.896787 0.586726 0.271906
H52   H     H_    0.759738 0.726349 0.598798 0.228631
N11   N     N_2   0.156154 0.357987 0.122588 -0.250140
H53   H     H_    0.078916 0.404131 0.106572 0.219508
C61   C     C_3   0.132681 0.215702 0.130306 -0.659944
H54   H     H_    0.046595 0.204286 0.151087 0.240955
H55   H     H_    0.212635 0.171172 0.151435 0.250718
H56   H     H_    0.118560 0.159585 0.094918 0.219104
F5    F     F_    0.363552 0.292726 0.639689 -0.673842

loop_
_geom_bond_atom_site_label_1
_geom_bond_atom_site_label_2
_geom_bond_distance
_ccdc_geom_bond_type
C61   H56   1.111705 S    
C49   C50   1.572730 S    
C51   C52   1.579571 S    
Zn1   N4    2.037217 S    
C49   H25   1.110402 S    
N2    C27   1.365815 A    
C53   C54   1.620598 S    
C12   C15   1.409720 A    
C4    C17   1.459122 S    
C28   C29   1.387187 A    
C59   H48   1.105099 S    
N11   C61   1.446459 S    
N10   H49   1.027692 S    
C47   C48   1.542575 S    
Zn1   O7    2.014513 S    
C55   H31   1.109845 S    
C23   C24   1.408630 A    
C45   N5    1.474482 S    
C22   C23   1.396378 A    
C44   H18   1.113568 S    
N6    C56   1.454375 S    
C35   C40   1.410760 A    
O4    C2    1.299944 A    
O7    C4    1.306901 A    
C58   H43   1.102976 S    
C52   N4    1.507296 S    
C61   H54   1.110410 S    
C29   F5    1.357798 S    
C54   F4    1.394226 S    
C61   H55   1.111347 S    
C51   N7    1.462888 S    
C23   C27   1.398837 A    
C41   H13   1.109832 S    
O5    C3    1.289830 A    
C37   C40   1.384862 A    
C36   H6    1.079163 S    
N11   H53   1.032196 S    
C28   H3    1.083114 S    
C2    C16   1.452279 S    
C50   H26   1.105389 S    
C19   C38   1.418900 A    
N7    C57   1.443961 S    
C54   N4    1.517505 S    
C42   H16   1.114089 S    
C45   N6    1.470242 S    
C41   H15   1.114537 S    
C14   N11   1.423945 S    
C42   C46   1.553713 S    
C51   H27   1.114909 S    
H21   C48   1.107542 S    
C38   F1    1.356522 S    
C33   C36   1.408434 A    
C37   H9    1.083717 S    
O1    Zn1   2.006068 S    
C9    C10   1.389293 A    
O3    Zn1   1.992312 S    
C55   H32   1.109028 S    
C43   C47   1.548422 S    
C34   C35   1.420368 A    
C54   N10   1.464024 S    
Zn1   O5    2.013546 S    
C12   C34   1.415598 A    
C60   H52   1.108812 S    
C39   H11   1.083563 S    
C17   C29   1.407420 A    
C21   H5    1.078577 S    
C18   C21   1.413889 A    
C58   H42   1.110850 S    
C12   C13   1.415120 A    
N5    C55   1.451732 S    
C57   H40   1.097189 S    
C25   C26   1.397921 A    
C58   H44   1.096331 S    
C27   O10   1.349961 S    
C8    C16   1.401795 A    
C13   C14   1.414516 A    
H22   C48   1.110652 S    
C9    H1    1.078424 S    
O6    C3    1.296567 A    
O1    C1    1.295729 A    
C21   C22   1.387456 A    
C18   C20   1.418017 A    
C7    C11   1.399011 A    
Zn2   N3    2.035453 S    
C38   C39   1.388499 A    
C14   C36   1.394523 A    
C31   F2    1.356952 S    
C6    O11   1.350476 S    
C45   C46   1.593564 S    
C52   H28   1.113981 S    
Zn2   O8    1.992573 S    
C40   H12   1.077403 S    
N1    C6    1.364539 A    
N2    C32   1.425492 S    
C56   H35   1.107900 S    
N1    C11   1.429138 S    
C8    H7    1.082810 S    
C60   H51   1.110238 S    
N8    H41   1.032055 S    
O3    C2    1.303568 A    
C26   N2    1.366646 A    
C9    C16   1.398001 A    
C50   H24   1.097930 S    
C49   H23   1.099040 S    
C42   C44   1.529878 S    
C30   C31   1.390562 A    
C59   H46   1.110136 S    
C51   N3    1.524731 S    
C30   H10   1.077221 S    
N9    H45   1.029300 S    
C60   H50   1.110551 S    
N10   C60   1.451373 S    
C31   C32   1.400117 A    
C10   H2    1.082937 S    
C56   H34   1.109770 S    
C20   C24   1.413558 A    
O2    Zn2   2.014278 S    
C6    C15   1.395191 A    
C44   H20   1.112045 S    
O8    C4    1.299930 A    
C59   H47   1.110221 S    
C15   C37   1.396773 A    
O4    Zn2   2.014272 S    
C53   N3    1.521530 S    
C5    N1    1.367827 A    
C7    H8    1.082909 S    
C19   C35   1.416352 A    
C25   C39   1.396333 A    
C55   H30   1.111307 S    
C26   O12   1.350231 S    
C7    C8    1.387518 A    
C57   H39   1.097542 S    
O2    C1    1.296686 A    
C41   C46   1.564510 S    
C57   H38   1.110062 S    
C24   C25   1.406771 A    
C43   H19   1.113966 S    
C5    O9    1.349150 S    
C19   C20   1.419056 A    
C41   C43   1.517698 S    
C56   H36   1.108011 S    
C18   C33   1.414149 A    
N8    C58   1.447875 S    
C22   H4    1.083563 S    
C52   N8    1.468906 S    
C53   F3    1.390375 S    
C45   C48   1.566766 S    
N5    H29   1.032198 S    
C5    C13   1.409466 A    
Zn2   O6    2.005336 S    
C33   C34   1.414183 A    
C17   C30   1.400588 A    
C43   H17   1.109503 S    
C3    C47   1.450100 S    
C1    C46   1.465675 S    
C53   N9    1.466831 S    
C10   C11   1.401686 A    
C42   H14   1.111441 S    
N9    C59   1.451704 S    
N6    H33   1.029375 S    
C28   C32   1.396458 A    
C44   C47   1.549769 S    
C50   N4    1.495690 S    
N7    H37   1.032325 S    
C49   N3    1.493797 S    
