data_mof_unit_55120.cif
_audit_creation_date              2012-12-10T20:28:38-0500
_audit_creation_method            fapswitch 2.2
_symmetry_space_group_name_H-M    P1
_symmetry_Int_Tables_number       1
_space_group_crystal_system       triclinic
_cell_length_a                    10.714773
_cell_length_b                    10.715358
_cell_length_c                    9.836754
_cell_angle_alpha                 89.269783
_cell_angle_beta                  89.19579
_cell_angle_gamma                 89.98905
_cell_volume                      1129.1806229

loop_
_atom_site_label
_atom_site_type_symbol
_atom_type_description
_atom_site_fract_x
_atom_site_fract_y
_atom_site_fract_z
_atom_type_partial_charge
C1    C     C_R   0.505369 0.259808 0.500382 0.874567
C2    C     C_R   0.057852 0.509856 0.631454 -0.037047
C3    C     C_R   0.125845 0.523025 0.506907 -0.070445
C4    C     C_R   0.064382 0.522915 0.382468 -0.199878
C5    C     C_R   0.937993 0.504893 0.379875 -0.157778
C6    C     C_R   0.873311 0.476587 0.500468 -0.062338
C7    C     C_R   0.536713 0.061569 0.621190 0.063056
C8    C     C_R   0.527689 0.128547 0.499594 -0.062992
C9    C     C_R   0.541952 0.066198 0.375394 -0.183854
C10   C     C_R   0.539888 0.936945 0.374461 -0.200646
C11   C     C_R   0.522511 0.871439 0.497545 -0.065831
C12   C     C_R   0.259873 0.511445 0.501749 0.931502
C13   C     C_R   0.530495 0.934341 0.619924 0.024719
C14   C     C_3   0.451329 0.927897 0.746343 0.268980
C15   C     C_3   0.461091 0.068788 0.749357 -0.526781
C16   C     C_R   0.395292 0.466191 0.073809 0.195139
C17   C     C_R   0.598451 0.546217 0.069878 -0.066992
C18   C     C_R   0.598355 0.546443 0.925738 -0.103992
C19   C     C_R   0.395683 0.465135 0.930978 0.324919
C20   C     C_3   0.335297 0.339951 0.930966 -0.522297
C21   C     C_3   0.331370 0.343297 0.084848 -0.481437
C22   C     C_R   0.503459 0.740123 0.499087 0.930978
C23   C     C_R   0.739759 0.488091 0.499733 0.867568
C24   C     C_R   0.103621 0.540679 0.761751 0.615540
C25   C     C_R   0.042789 0.497157 0.879550 -0.329472
C26   C     C_R   0.936635 0.423436 0.869673 0.359805
C27   C     C_R   0.882396 0.407349 0.743089 -0.217353
C28   C     C_R   0.936813 0.462390 0.624725 -0.038621
H1    H     H_    0.113816 0.536798 0.286571 0.173790
H2    H     H_    0.498231 0.879859 0.832460 0.115669
H3    H     H_    0.370830 0.117966 0.734209 0.236959
H4    H     H_    0.518295 0.101641 0.835220 0.181011
H5    H     H_    0.678848 0.581302 0.122546 0.163768
H6    H     H_    0.678568 0.582021 0.869741 0.165193
H7    H     H_    0.241879 0.340172 0.884096 0.217818
H8    H     H_    0.400019 0.268584 0.892253 0.211347
H9    H     H_    0.235220 0.351899 0.127654 0.220906
H10   H     H_    0.389877 0.270097 0.133530 0.223205
H11   H     H_    0.079901 0.518795 0.978355 0.188853
H12   H     H_    0.798214 0.351868 0.738184 0.199046
H13   H     H_    0.891092 0.514167 0.283407 0.199814
H14   H     H_    0.545445 0.116213 0.279014 0.175303
H15   H     H_    0.542983 0.889673 0.277775 0.172118
N1    N     N_R   0.499160 0.499140 0.142800 -0.116404
N2    N     N_R   0.499160 0.499180 0.857150 -0.114126
O1    O     O_R   0.500020 0.316790 0.614690 -0.628634
O2    O     O_R   0.500000 0.316760 0.385350 -0.621976
O3    O     O_R   0.316770 0.500020 0.614690 -0.562376
O4    O     O_R   0.316760 0.499980 0.385350 -0.635032
O5    O     O_R   0.500000 0.683240 0.614650 -0.584392
O6    O     O_R   0.499980 0.683210 0.385310 -0.635627
O7    O     O_R   0.683240 0.500020 0.614650 -0.640806
O8    O     O_R   0.683230 0.499980 0.385310 -0.620887
Zn1   Zn    Zn3+2 0.500010 0.500020 0.653130 1.001324
Zn2   Zn    Zn3+2 0.499990 0.499980 0.346870 0.968675
F1    F     F_    0.198797 0.622208 0.777135 -0.609151
Cl1   Cl    Cl    0.867550 0.357442 0.016503 -0.664166
Cl2   Cl    Cl    0.294764 0.878238 0.716963 -0.510242

loop_
_geom_bond_atom_site_label_1
_geom_bond_atom_site_label_2
_ccdc_geom_bond_type
C24   C25   A    
C19   N2    A    
C12   O4    A    
C16   C21   S    
C24   F1    S    
C1    C8    S    
C11   C13   A    
C9    C10   A    
C16   N1    A    
C11   C22   S    
O6    Zn2   S    
C19   C20   S    
C12   O3    A    
C27   H12   S    
C22   O5    A    
O1    Zn1   S    
C7    C15   S    
C17   C18   A    
C9    H14   S    
C17   N1    A    
C7    C8    A    
C13   C14   S    
C25   H11   S    
O3    Zn1   S    
C4    C5    A    
C18   H6    S    
N1    Zn2   S    
C23   O7    A    
O5    Zn1   S    
C17   H5    S    
C14   H2    S    
C16   C19   A    
C6    C23   S    
C1    O2    A    
O7    Zn1   S    
N2    Zn1   S    
C23   O8    A    
C2    C3    A    
O8    Zn2   S    
C26   C27   A    
C5    C6    A    
C14   Cl2   S    
C26   Cl1   S    
C1    O1    A    
C2    C24   A    
C10   C11   A    
C3    C4    A    
C20   H8    S    
C18   N2    A    
C7    C13   A    
C21   H9    S    
C20   C21   S    
O2    Zn2   S    
C27   C28   A    
C5    H13   S    
C14   C15   S    
C22   O6    A    
C2    C28   A    
C3    C12   S    
C25   C26   A    
O4    Zn2   S    
C20   H7    S    
C15   H3    S    
C6    C28   A    
C21   H10   S    
C4    H1    S    
C10   H15   S    
C8    C9    A    
C15   H4    S    
