data_mof_unit_32398.cif
_audit_creation_date              2012-12-11T17:05:27-0500
_audit_creation_method            fapswitch 2.2
_symmetry_space_group_name_H-M    P1
_symmetry_Int_Tables_number       1
_space_group_crystal_system       triclinic
_cell_length_a                    6.955334
_cell_length_b                    14.526769
_cell_length_c                    16.020601
_cell_angle_alpha                 90.260302
_cell_angle_beta                  89.990237
_cell_angle_gamma                 89.969593
_cell_volume                      1618.68102308

loop_
_atom_site_label
_atom_site_type_symbol
_atom_type_description
_atom_site_fract_x
_atom_site_fract_y
_atom_site_fract_z
_atom_type_partial_charge
O1    O     O_R   0.494380 0.415640 0.412830 -0.536293
O2    O     O_R   0.823960 0.405540 0.586560 -0.543435
O3    O     O_R   0.994270 0.584360 0.587170 -0.539624
C1    C     C_R   0.655217 0.383457 0.615200 0.693433
O4    O     O_R   0.824090 0.404620 0.413450 -0.543501
O5    O     O_R   0.994400 0.583430 0.412820 -0.538434
C2    C     C_R   0.655332 0.382418 0.384525 0.693328
O6    O     O_R   0.494250 0.416570 0.587180 -0.536443
O7    O     O_3   0.660800 0.558670 0.500000 -0.369066
V1    V     V_3+5 0.935650 0.489120 0.500000 1.378055
O8    O     O_R   0.324110 0.594460 0.413440 -0.538477
C3    C     C_R   0.155058 0.616207 0.384384 0.696192
O9    O     O_R   0.323980 0.595380 0.586550 -0.543810
C4    C     C_R   0.155183 0.617614 0.615522 0.653441
V2    V     V_3+5 0.435660 0.510880 0.500000 1.384107
O10   O     O_3   0.160640 0.441330 0.500000 -0.369412
C5    C     C_3   0.047529 0.644840 0.764461 -0.319327
H1    H     H_    0.900230 0.620641 0.748436 0.136506
H2    H     H_    0.130766 0.583674 0.785317 0.119242
C6    C     C_3   0.034867 0.716075 0.836998 -0.323936
H3    H     H_    0.112032 0.689024 0.892569 0.120609
H4    H     H_    0.881649 0.725653 0.855115 0.137376
H5    H     H_    0.877851 0.752000 0.641744 0.140777
H6    H     H_    0.859354 0.856693 0.748626 0.136664
C7    C     C_3   0.025670 0.773261 0.660123 -0.319241
C8    C     C_3   0.348251 0.721248 0.712476 -0.317209
C9    C     C_3   0.144687 0.687597 0.686341 0.118351
H7    H     H_    0.422001 0.753365 0.658247 0.135196
H8    H     H_    0.437539 0.661725 0.732632 0.134030
C10   C     C_3   0.123201 0.809699 0.810796 0.119836
C11   C     C_3   0.013055 0.844419 0.732709 -0.324738
C12   C     C_3   0.335858 0.791982 0.784550 -0.306450
H9    H     H_    0.403944 0.857580 0.764417 0.131717
H10   H     H_    0.092937 0.806062 0.604702 0.120006
H11   H     H_    0.074217 0.911311 0.712018 0.117945
C13   C     C_R   0.272645 0.815874 0.239956 0.099419
C14   C     C_R   0.118400 0.815789 0.183666 -0.113778
C15   C     C_R   0.966868 0.753922 0.199348 -0.181261
H12   H     H_    0.844511 0.751373 0.157886 0.131867
C16   C     C_R   0.977950 0.690141 0.265238 -0.178275
H13   H     H_    0.863205 0.640668 0.272685 0.127264
C17   C     C_R   0.141232 0.686021 0.317283 -0.113241
C18   C     C_R   0.284062 0.752495 0.304913 0.097961
C19   C     C_3   0.494957 0.740124 0.293125 -0.408425
C20   C     C_3   0.482648 0.809550 0.222690 -0.397698
H14   H     H_    0.531236 0.669462 0.271397 0.166509
H15   H     H_    0.578912 0.765373 0.347632 0.173320
H16   H     H_    0.512595 0.779404 0.160127 0.169172
H17   H     H_    0.558731 0.875124 0.236623 0.167027
C21   C     C_R   0.493764 0.316717 0.741723 0.094655
C22   C     C_R   0.647604 0.317397 0.685264 -0.111574
C23   C     C_R   0.798870 0.254886 0.699485 -0.180325
H18   H     H_    0.921024 0.253018 0.657846 0.131552
C24   C     C_R   0.787587 0.189571 0.763998 -0.181225
H19   H     H_    0.902022 0.139675 0.770386 0.124504
C25   C     C_R   0.624399 0.184641 0.815979 -0.110802
C26   C     C_R   0.482197 0.251846 0.805336 0.101439
C27   C     C_3   0.270939 0.240566 0.793808 -0.406724
C28   C     C_3   0.283447 0.311730 0.724819 -0.398126
H20   H     H_    0.187965 0.264746 0.849017 0.174807
H21   H     H_    0.233372 0.170609 0.770709 0.163897
H22   H     H_    0.208610 0.377263 0.740321 0.163526
H23   H     H_    0.252222 0.283311 0.661734 0.170750
C29   C     C_R   0.493011 0.316041 0.257267 0.099119
C30   C     C_R   0.647396 0.316554 0.313496 -0.112771
C31   C     C_R   0.798956 0.254481 0.297779 -0.180402
H24   H     H_    0.921420 0.252357 0.339181 0.132201
C32   C     C_R   0.787763 0.189966 0.231944 -0.178555
H25   H     H_    0.902574 0.140399 0.224475 0.127194
C33   C     C_R   0.624346 0.185292 0.179975 -0.112338
C34   C     C_R   0.481493 0.251947 0.192362 0.101549
C35   C     C_3   0.270634 0.239790 0.204239 -0.408800
C36   C     C_3   0.283041 0.309999 0.274607 -0.398347
H26   H     H_    0.234439 0.169384 0.226046 0.165994
H27   H     H_    0.186560 0.264464 0.149740 0.175277
H28   H     H_    0.253208 0.280566 0.337207 0.169812
H29   H     H_    0.206912 0.375449 0.260636 0.167494
O11   O     O_R   0.771490 0.080820 0.910070 -0.538575
O12   O     O_R   0.441590 0.092730 0.083780 -0.538512
O13   O     O_R   0.271350 0.913900 0.084390 -0.536188
C37   C     C_R   0.610579 0.114781 0.112870 0.697556
O14   O     O_R   0.441780 0.091820 0.910670 -0.539348
O15   O     O_R   0.271540 0.912980 0.910040 -0.541723
C38   C     C_R   0.610789 0.113828 0.881947 0.694447
O16   O     O_R   0.771300 0.081740 0.084420 -0.538412
O17   O     O_3   0.604960 0.938700 0.997240 -0.371989
V3    V     V_3+5 0.330090 0.008230 0.997220 1.387217
O18   O     O_R   0.941820 0.901930 0.910640 -0.544221
C39   C     C_R   0.111072 0.879685 0.881663 0.648473
O19   O     O_R   0.941630 0.902840 0.083750 -0.543071
C40   C     C_R   0.110440 0.880928 0.112652 0.692883
V4    V     V_3+5 0.830090 0.986410 0.997190 1.378752
O20   O     O_3   0.105080 0.055990 0.997200 -0.365231
H30   H     H_    0.419541 0.765935 0.838776 0.136884

loop_
_geom_bond_atom_site_label_1
_geom_bond_atom_site_label_2
_ccdc_geom_bond_type
C7    C11   S    
C31   C32   A    
C8    C12   S    
C12   H30   S    
C1    O6    A    
O12   V3    S    
O19   C40   A    
C6    C10   S    
C23   H18   S    
C8    C9    S    
C21   C28   S    
C13   C14   A    
O13   V3    S    
C35   H27   S    
O5    C3    A    
C10   C11   S    
C27   H20   S    
O14   V3    S    
C5    C6    S    
C25   C26   A    
C29   C34   A    
C33   C37   S    
C3    C17   S    
O8    V2    S    
O18   V4    S    
C23   C24   A    
C32   H25   S    
C29   C36   S    
C33   C34   A    
O1    V2    S    
C4    C9    S    
C10   C12   S    
O7    V1    S    
C19   H15   S    
C7    H10   S    
C27   H21   S    
C16   C17   A    
C31   H24   S    
O9    C4    A    
C10   C39   S    
O16   V4    S    
C19   H14   S    
C25   C38   S    
O15   C39   A    
C24   C25   A    
C14   C40   S    
C1    C22   S    
C22   C23   A    
C5    C9    S    
C35   H26   S    
O4    C2    A    
O17   V3    S    
O11   V4    S    
C27   C28   S    
O2    C1    A    
C18   C19   S    
C14   C15   A    
C2    C30   S    
O19   V4    S    
C20   H17   S    
C5    H1    S    
C13   C20   S    
C21   C22   A    
C6    H3    S    
O3    C4    A    
C16   H13   S    
C6    H4    S    
O6    V2    S    
O14   C38   A    
O9    V2    S    
C36   H28   S    
C11   H11   S    
C17   C18   A    
O2    V1    S    
C19   C20   S    
O12   C37   A    
C20   H16   S    
C24   H19   S    
C28   H22   S    
O1    C2    A    
C21   C26   A    
C8    H7    S    
C35   C36   S    
O15   V3    S    
O5    V1    S    
O8    C3    A    
C7    C9    S    
C28   H23   S    
C29   C30   A    
O13   C40   A    
O7    V2    S    
H6    C11   S    
O4    V1    S    
O3    V1    S    
V1    O10   S    
C12   H9    S    
C15   C16   A    
C26   C27   S    
C15   H12   S    
V3    O20   S    
V4    O20   S    
C5    H2    S    
H5    C7    S    
O11   C38   A    
C34   C35   S    
O18   C39   A    
C8    H8    S    
C32   C33   A    
C30   C31   A    
C36   H29   S    
C13   C18   A    
O17   V4    S    
C37   O16   A    
V2    O10   S    
