data_mof_unit_45787.cif
_audit_creation_date              2012-12-10T17:03:54-0500
_audit_creation_method            fapswitch 2.2
_symmetry_space_group_name_H-M    P1
_symmetry_Int_Tables_number       1
_space_group_crystal_system       triclinic
_cell_length_a                    9.846882
_cell_length_b                    11.064881
_cell_length_c                    15.910917
_cell_angle_alpha                 94.819463
_cell_angle_beta                  79.56076
_cell_angle_gamma                 111.819471
_cell_volume                      1582.47090698

loop_
_atom_site_label
_atom_site_type_symbol
_atom_type_description
_atom_site_fract_x
_atom_site_fract_y
_atom_site_fract_z
_atom_type_partial_charge
C1    C     C_R   0.556174 0.745547 0.506811 0.864935
C2    C     C_R   0.443826 0.254453 0.493189 0.864936
C3    C     C_R   0.327226 0.481128 0.076953 -0.232583
C4    C     C_R   0.672775 0.518873 0.923047 -0.232584
C5    C     C_R   0.223411 0.452956 0.022723 -0.234315
C6    C     C_R   0.776589 0.547045 0.977277 -0.234316
C7    C     C_2   0.586792 0.884908 0.512073 -0.373248
C8    C     C_2   0.413208 0.115091 0.487927 -0.373248
C9    C     C_2   0.485124 0.930466 0.497754 -0.154417
C10   C     C_2   0.514876 0.069534 0.502246 -0.154416
C11   C     C_2   0.922749 0.490675 0.493240 -0.064351
C12   C     C_2   0.077250 0.509325 0.506760 -0.064350
C13   C     C_R   0.409940 0.481697 0.662653 0.789746
C14   C     C_R   0.590060 0.518303 0.337347 0.789745
C15   C     C_R   0.354088 0.464931 0.755826 -0.105667
C16   C     C_R   0.645912 0.535070 0.244174 -0.105667
C17   C     C_R   0.160379 0.416003 0.880731 -0.242902
C18   C     C_R   0.839621 0.583998 0.119269 -0.242902
C19   C     C_R   0.201308 0.414375 0.791588 -0.002028
C20   C     C_R   0.798692 0.585626 0.208412 -0.002028
C21   C     C_R   0.459522 0.500229 0.810916 -0.271482
C22   C     C_R   0.540478 0.499772 0.189084 -0.271482
C23   C     C_R   0.418388 0.483861 0.899705 0.089382
C24   C     C_R   0.581612 0.516140 0.100295 0.089382
C25   C     C_R   0.267079 0.451134 0.934496 0.153223
C26   C     C_R   0.732921 0.548867 0.065504 0.153223
C27   C     C_R   0.523453 0.501693 0.954951 0.078228
C28   C     C_R   0.476547 0.498308 0.045048 0.078228
Cu1   Cu    Cu3+1 0.362980 0.479380 0.485080 0.945764
Cu2   Cu    Cu3+1 0.637020 0.520620 0.514920 0.945764
H1    H     H_    0.108506 0.434547 0.050053 0.136721
H2    H     H_    0.891494 0.565454 0.949947 0.136721
H3    H     H_    0.425733 0.456346 0.216412 0.158923
H4    H     H_    0.574267 0.543654 0.783588 0.158924
H5    H     H_    0.043859 0.382133 0.908647 0.138728
H6    H     H_    0.956141 0.617868 0.091353 0.138728
H7    H     H_    0.287727 0.490550 0.143776 0.127771
H8    H     H_    0.712273 0.509451 0.856224 0.127771
H9    H     H_    0.621371 0.135209 0.517513 0.179666
H10   H     H_    0.378629 0.864791 0.482487 0.179666
H11   H     H_    0.307295 0.049556 0.472025 0.136002
H12   H     H_    0.692705 0.950443 0.527976 0.136002
H13   H     H_    0.126980 0.578458 0.555023 0.167388
H14   H     H_    0.873020 0.421541 0.444977 0.167388
N1    N     N_2   0.842890 0.551600 0.537350 -0.222418
N2    N     N_2   0.157110 0.448400 0.462650 -0.222418
O1    O     O_R   0.426810 0.668300 0.492040 -0.584931
O2    O     O_R   0.573190 0.331700 0.507960 -0.584931
O3    O     O_R   0.658240 0.703130 0.517240 -0.574932
O4    O     O_R   0.341760 0.296870 0.482760 -0.574932
O5    O     O_R   0.319390 0.472820 0.610170 -0.574222
O6    O     O_R   0.680610 0.527180 0.389830 -0.574222
O7    O     O_R   0.550820 0.507640 0.635370 -0.586353
O8    O     O_R   0.449180 0.492360 0.364630 -0.586352
C29   C     C_R   0.918445 0.655298 0.258988 0.145492
C30   C     C_R   0.915632 0.766863 0.307450 -0.090705
C31   C     C_R   0.040195 0.847040 0.342293 -0.161374
C32   C     C_R   0.168043 0.816623 0.329424 -0.127387
C33   C     C_R   0.171415 0.705438 0.282238 -0.125789
C34   C     C_R   0.047257 0.624850 0.247124 -0.167445
H15   H     H_    0.819278 0.794391 0.315505 0.099793
H16   H     H_    0.038403 0.933273 0.379050 0.137083
H17   H     H_    0.264808 0.879572 0.355654 0.126443
H18   H     H_    0.271722 0.683764 0.271248 0.127576
H19   H     H_    0.052952 0.541178 0.208290 0.119130
C35   C     C_R   0.081555 0.344703 0.741012 0.145491
C36   C     C_R   0.952743 0.375150 0.752877 -0.167445
C37   C     C_R   0.828585 0.294563 0.717763 -0.125789
C38   C     C_R   0.831957 0.183377 0.670576 -0.127387
C39   C     C_R   0.959805 0.152961 0.657707 -0.161374
C40   C     C_R   0.084367 0.233138 0.692550 -0.090704
H20   H     H_    0.947048 0.458822 0.791710 0.119130
H21   H     H_    0.728278 0.316236 0.728752 0.127576
H22   H     H_    0.735192 0.120429 0.644346 0.126443
H23   H     H_    0.961597 0.066728 0.620949 0.137083
H24   H     H_    0.180722 0.205610 0.684495 0.099793
C41   C     C_R   0.093707 0.347555 0.403706 0.331843
C42   C     C_R   0.132209 0.369506 0.315826 -0.163141
C43   C     C_R   0.068070 0.272014 0.257591 -0.186172
C44   C     C_R   0.964688 0.151913 0.287037 -0.083547
C45   C     C_R   0.925189 0.129383 0.374649 -0.189567
C46   C     C_R   0.989986 0.226413 0.432810 -0.208439
H25   H     H_    0.209754 0.462901 0.293117 0.119504
H26   H     H_    0.097256 0.289320 0.189708 0.141171
H27   H     H_    0.914826 0.076527 0.242056 0.132272
H28   H     H_    0.844690 0.036546 0.397199 0.138060
H29   H     H_    0.957609 0.208535 0.500194 0.142569
C47   C     C_R   0.906293 0.652445 0.596294 0.331843
C48   C     C_R   0.010014 0.773587 0.567190 -0.208439
C49   C     C_R   0.074811 0.870617 0.625351 -0.189567
C50   C     C_R   0.035311 0.848087 0.712963 -0.083547
C51   C     C_R   0.931929 0.727986 0.742409 -0.186173
C52   C     C_R   0.867790 0.630494 0.684174 -0.163140
H30   H     H_    0.042391 0.791465 0.499806 0.142570
H31   H     H_    0.155310 0.963453 0.602801 0.138060
H32   H     H_    0.085173 0.923472 0.757944 0.132272
H33   H     H_    0.902744 0.710679 0.810292 0.141171
H34   H     H_    0.790245 0.537099 0.706883 0.119504

loop_
_geom_bond_atom_site_label_1
_geom_bond_atom_site_label_2
_ccdc_geom_bond_type
C6    H2    S    
C29   C30   A    
Cu2   N1    S    
C18   C26   A    
C45   C46   A    
C49   C50   A    
C31   H16   S    
C6    C26   A    
C41   C42   A    
C15   C19   A    
C33   H18   S    
C44   H27   S    
Cu1   O1    S    
Cu2   O2    S    
C3    C28   A    
C24   C26   A    
C12   H13   S    
C43   H26   S    
Cu1   O8    S    
C46   H29   S    
C30   C31   A    
C19   C35   S    
C36   H20   S    
C7    H12   S    
C48   H30   S    
C2    O4    A    
C50   H32   S    
C13   O5    A    
C42   H25   S    
C14   O6    A    
C37   C38   A    
C39   C40   A    
C23   C27   A    
C9    C10   S    
C18   C20   A    
C45   H28   S    
C35   C36   A    
C33   C34   A    
C29   C34   A    
C20   C29   S    
C51   H33   S    
C13   O7    A    
Cu1   O4    S    
Cu2   O7    S    
C36   C37   A    
C11   H14   S    
N1    C47   S    
C8    H11   S    
C4    C6    A    
C50   C51   A    
C42   C43   A    
C1    O1    A    
C21   H4    S    
C2    O2    A    
C32   C33   A    
C9    H10   S    
C10   H9    S    
Cu1   Cu2   S    
C35   C40   A    
C16   C20   A    
C38   H22   S    
C5    C25   A    
C12   N2    D    
C14   O8    A    
Cu2   O3    S    
C4    H8    S    
C34   H19   S    
C13   C15   S    
C14   C16   S    
C11   N1    D    
C39   H23   S    
C4    C27   A    
Cu1   O5    S    
C32   H17   S    
C7    C9    D    
C22   H3    S    
Cu2   O6    S    
C47   C52   A    
C16   C22   A    
C1    C7    S    
C2    C8    S    
C24   C28   A    
C44   C45   A    
C3    C5    A    
C49   H31   S    
N2    C41   S    
C11   C12   S    
Cu1   N2    S    
C17   C25   A    
C21   C23   A    
C37   H21   S    
C31   C32   A    
C40   H24   S    
C1    O3    A    
C41   C46   A    
C51   C52   A    
C17   C19   A    
C22   C24   A    
C23   C25   A    
C38   C39   A    
C43   C44   A    
C15   C21   A    
C47   C48   A    
C3    H7    S    
C8    C10   D    
C27   C28   A    
C30   H15   S    
C17   H5    S    
C48   C49   A    
C18   H6    S    
C52   H34   S    
C5    H1    S    
