data_mof_unit_15740.cif
_audit_creation_date              2012-12-10T17:48:57-0500
_audit_creation_method            fapswitch 2.2
_symmetry_space_group_name_H-M    P1
_symmetry_Int_Tables_number       1
_space_group_crystal_system       triclinic
_cell_length_a                    10.726962
_cell_length_b                    14.724728
_cell_length_c                    14.748579
_cell_angle_alpha                 64.919875
_cell_angle_beta                  103.847866
_cell_angle_gamma                 103.205292
_cell_volume                      2027.12421011

loop_
_atom_site_label
_atom_site_type_symbol
_atom_type_description
_atom_site_fract_x
_atom_site_fract_y
_atom_site_fract_z
_atom_type_partial_charge
C1    C     C_R   0.478743 0.119875 0.312187 0.823717
C2    C     C_3   0.878337 0.000718 0.499805 0.155719
C3    C     C_3   0.923282 0.900054 0.580515 -0.389284
C4    C     C_3   0.965141 0.089965 0.524915 -0.368731
C5    C     C_R   0.457250 0.187868 0.204361 -0.094301
C6    C     C_R   0.524608 0.812038 0.795216 -0.065419
C7    C     C_R   0.357608 0.215081 0.031056 -0.175209
C8    C     C_R   0.383750 0.150168 0.132259 -0.273216
C9    C     C_R   0.504789 0.292002 0.174102 0.196496
C10   C     C_R   0.457103 0.360088 0.075977 -0.007206
C11   C     C_R   0.394421 0.320280 0.001446 0.084253
C12   C     C_R   0.259960 0.000392 0.499778 0.754968
C13   C     C_R   0.471131 0.466070 0.049604 0.064123
C14   C     C_R   0.456132 0.532461 0.946059 0.023691
C15   C     C_R   0.402893 0.490857 0.872172 -0.294268
C16   C     C_R   0.368509 0.386420 0.899177 0.245241
C17   C     C_R   0.489148 0.506901 0.123632 -0.194547
C18   C     C_R   0.511029 0.610919 0.097785 -0.239971
C19   C     C_R   0.515408 0.677359 0.997188 0.155834
C20   C     C_R   0.489135 0.638645 0.920347 0.105571
C21   C     C_R   0.543634 0.782276 0.972166 -0.194523
C22   C     C_R   0.547133 0.849344 0.871580 -0.180536
C23   C     C_R   0.520854 0.880174 0.687790 0.790646
C24   C     C_R   0.498948 0.707379 0.820504 -0.254813
C25   C     C_R   0.716273 0.290481 0.665411 -0.272265
C26   C     C_R   0.682187 0.205283 0.641253 0.195684
C27   C     C_R   0.519108 0.285856 0.506694 -0.030211
C28   C     C_R   0.549255 0.373795 0.530468 -0.018252
C29   C     C_R   0.651596 0.373898 0.611023 0.115211
C30   C     C_R   0.482259 0.460778 0.478971 0.085366
C31   C     C_R   0.520453 0.544865 0.510100 0.078764
C32   C     C_R   0.625587 0.540527 0.589481 -0.245842
C33   C     C_R   0.689352 0.456799 0.638625 -0.206605
C34   C     C_R   0.740116 0.000156 0.499840 0.753074
C35   C     C_R   0.378308 0.466604 0.398260 -0.248793
C36   C     C_R   0.312654 0.550427 0.350659 -0.201923
C37   C     C_R   0.347638 0.631702 0.381400 0.162860
C38   C     C_R   0.452152 0.630604 0.461132 -0.021761
C39   C     C_R   0.278845 0.714597 0.332754 -0.320391
C40   C     C_R   0.314020 0.795940 0.362942 0.075917
C41   C     C_R   0.483190 0.716147 0.488135 0.000280
C42   C     C_3   0.041215 0.013013 0.394053 -0.386793
C43   C     C_3   0.897265 0.012948 0.394042 -0.366576
C44   C     C_3   0.067267 0.900262 0.580616 -0.368891
C45   C     C_3   0.107867 0.090211 0.524744 -0.366154
C46   C     C_3   0.122153 0.000989 0.499797 0.153905
Cu1   Cu    Cu3+1 0.465900 0.918260 0.475680 0.924814
Cu2   Cu    Cu3+1 0.534100 0.081740 0.524320 0.919507
H1    H     H_    0.049180 0.949939 0.373979 0.170397
H2    H     H_    0.954252 0.083138 0.600827 0.166865
H3    H     H_    0.124083 0.890482 0.657143 0.155130
H4    H     H_    0.910344 0.890074 0.657021 0.152190
H5    H     H_    0.489759 0.680661 0.761255 0.152601
H6    H     H_    0.566943 0.930070 0.853623 0.173957
H7    H     H_    0.525250 0.639358 0.156901 0.152819
H8    H     H_    0.304742 0.182663 0.976812 0.185725
H9    H     H_    0.347835 0.070082 0.153817 0.168376
H10   H     H_    0.079207 0.085073 0.335017 0.150511
H11   H     H_    0.379676 0.537939 0.792846 0.146732
H12   H     H_    0.479522 0.459175 0.201422 0.144654
H13   H     H_    0.562162 0.812418 0.030376 0.140236
H14   H     H_    0.768711 0.456577 0.700132 0.144305
H15   H     H_    0.561505 0.722580 0.547076 0.120796
H16   H     H_    0.261591 0.860280 0.324860 0.120205
H17   H     H_    0.233088 0.551455 0.289148 0.142203
H18   H     H_    0.794060 0.291937 0.727504 0.181544
H19   H     H_    0.442674 0.279958 0.446237 0.126976
H20   H     H_    0.865585 0.085053 0.335112 0.157285
H21   H     H_    0.661288 0.600398 0.616679 0.131023
H22   H     H_    0.344971 0.407108 0.370161 0.126516
H23   H     H_    0.198593 0.716656 0.271506 0.139039
H24   H     H_    0.836600 0.949917 0.373871 0.174779
H25   H     H_    0.075964 0.834759 0.564634 0.174232
H26   H     H_    0.863261 0.834573 0.564317 0.168193
H27   H     H_    0.164950 0.083704 0.600475 0.176911
H28   H     H_    0.146160 0.163788 0.467635 0.163119
H29   H     H_    0.935151 0.163556 0.468088 0.174849
N1    N     N_R   0.585360 0.204570 0.560800 -0.215057
N2    N     N_R   0.414550 0.795430 0.439160 -0.176343
O1    O     O_R   0.455060 0.022100 0.338110 -0.588037
O2    O     O_R   0.512640 0.160150 0.379180 -0.576218
O3    O     O_R   0.288900 0.930980 0.479450 -0.588967
O4    O     O_R   0.346480 0.069030 0.520520 -0.589440
O5    O     O_R   0.487360 0.839850 0.620820 -0.585341
O6    O     O_R   0.544940 0.977900 0.661890 -0.605195
O7    O     O_R   0.653520 0.930970 0.479480 -0.585093
O8    O     O_R   0.711100 0.069020 0.520550 -0.613833
N3    N     N_2   0.309048 0.348593 0.822294 -0.440893
H30   H     H_    0.245589 0.393638 0.765724 0.255468
C47   C     C_3   0.399789 0.323131 0.781345 -0.677186
H31   H     H_    0.345840 0.289990 0.725576 0.231007
H32   H     H_    0.458418 0.266622 0.842636 0.237862
H33   H     H_    0.465386 0.392279 0.742336 0.239369
N4    N     N_2   0.615862 0.323004 0.235898 -0.423306
H34   H     H_    0.601824 0.344772 0.290059 0.257095
C48   C     C_3   0.733901 0.368113 0.192735 -0.671776
H35   H     H_    0.817480 0.365376 0.254630 0.218379
H36   H     H_    0.729062 0.448416 0.140603 0.235042
H37   H     H_    0.750244 0.325350 0.151058 0.230655
C49   C     C_2   0.753795 0.118103 0.706313 0.323470
H38   H     H_    0.757586 0.059427 0.682812 0.130116
O9    O     O_2   0.812931 0.110859 0.790360 -0.583105

loop_
_geom_bond_atom_site_label_1
_geom_bond_atom_site_label_2
_ccdc_geom_bond_type
C43   H24   S    
C19   C20   A    
Cu1   N2    S    
C27   N1    A    
C42   H10   S    
C7    C8    A    
C22   H6    S    
C45   C46   S    
C7    C11   A    
C26   N1    A    
C30   C35   A    
C45   H28   S    
C1    C5    S    
C7    H8    S    
C36   C37   A    
C19   C21   A    
C42   C46   S    
C30   C31   A    
C1    O2    A    
C15   C16   A    
C6    C22   A    
C48   H37   S    
C29   C33   A    
Cu2   O2    S    
C18   C19   A    
C34   O7    A    
Cu1   O3    S    
Cu2   N1    S    
C3    H26   S    
C20   C24   A    
C31   C32   A    
C35   H22   S    
C33   H14   S    
C48   H36   S    
C9    C10   A    
C21   H13   S    
C2    C34   S    
C21   C22   A    
N4    H34   S    
Cu1   O1    S    
C44   C46   S    
C4    C45   S    
C25   C29   A    
C3    C44   S    
Cu2   O8    S    
C23   O5    A    
Cu1   O7    S    
C14   C20   A    
C38   C41   A    
C12   C46   S    
C39   C40   A    
C36   H17   S    
C43   H20   S    
C17   H12   S    
C24   H5    S    
C12   O4    A    
C4    H2    S    
C35   C36   A    
C2    C4    S    
C5    C9    A    
C37   C38   A    
C8    H9    S    
C11   C16   A    
C47   H32   S    
Cu1   Cu2   S    
C2    C43   S    
C6    C24   A    
C48   H35   S    
C49   O9    D    
C17   C18   A    
C40   N2    A    
C12   O3    A    
Cu1   O5    S    
N4    C48   S    
C18   H7    S    
C44   H3    S    
N3    C47   S    
C42   C43   S    
C41   H15   S    
C47   H33   S    
C28   C29   A    
C14   C15   A    
C15   H11   S    
C25   H18   S    
C10   C13   A    
C41   N2    A    
C5    C8    A    
C3    H4    S    
Cu2   O4    S    
C32   H21   S    
C40   H16   S    
C31   C38   A    
C13   C17   A    
C45   H27   S    
C32   C33   A    
C28   C30   A    
C2    C3    S    
C25   C26   A    
C4    H29   S    
C37   C39   A    
C47   H31   S    
C6    C23   S    
C49   H38   S    
C34   O8    A    
C44   H25   S    
C27   H19   S    
C10   C11   A    
C42   H1    S    
N3    H30   S    
C23   O6    A    
C27   C28   A    
C16   N3    S    
C1    O1    A    
C39   H23   S    
Cu2   O6    S    
C13   C14   A    
C9    N4    S    
C26   C49   S    
