data_mof_unit_52207.cif
_audit_creation_date              2012-12-10T18:33:38-0500
_audit_creation_method            fapswitch 2.2
_symmetry_space_group_name_H-M    P1
_symmetry_Int_Tables_number       1
_space_group_crystal_system       triclinic
_cell_length_a                    10.515667
_cell_length_b                    15.052993
_cell_length_c                    15.532875
_cell_angle_alpha                 81.687862
_cell_angle_beta                  90.38587
_cell_angle_gamma                 105.224943
_cell_volume                      2346.25976318

loop_
_atom_site_label
_atom_site_type_symbol
_atom_type_description
_atom_site_fract_x
_atom_site_fract_y
_atom_site_fract_z
_atom_type_partial_charge
C1    C     C_R   0.475229 0.441044 0.661821 0.839663
C2    C     C_R   0.524774 0.558956 0.338180 0.839657
C3    C     C_R   0.508560 0.460893 0.813382 -0.249688
C4    C     C_R   0.491441 0.539114 0.186618 -0.249671
C5    C     C_R   0.475728 0.439971 0.902097 0.101725
C6    C     C_R   0.524285 0.560024 0.097905 0.101723
C7    C     C_R   0.367014 0.363604 0.929983 0.068776
C8    C     C_R   0.633014 0.636380 0.070022 0.068756
C9    C     C_R   0.535484 0.501378 0.960751 0.008727
C10   C     C_R   0.464528 0.498613 0.039253 0.008713
C11   C     C_R   0.338755 0.432668 0.056859 0.198816
C12   C     C_R   0.661261 0.567315 0.943147 0.198816
C13   C     C_R   0.301791 0.359180 0.008684 -0.233256
C14   C     C_R   0.698239 0.640797 0.991326 -0.233257
C15   C     C_R   0.688107 0.843795 0.640748 -0.275348
C16   C     C_R   0.311896 0.156205 0.359250 -0.275345
C17   C     C_R   0.669900 0.758284 0.611660 0.349941
C18   C     C_R   0.330101 0.241716 0.388340 0.349939
C19   C     C_R   0.508836 0.792622 0.513943 -0.097759
C20   C     C_R   0.491163 0.207377 0.486058 -0.097752
C21   C     C_R   0.542087 0.885965 0.530359 0.001932
C22   C     C_R   0.457912 0.114035 0.469641 0.001927
C23   C     C_R   0.742841 0.501623 0.499769 0.853994
C24   C     C_R   0.257159 0.498377 0.500231 0.854001
C25   C     C_R   0.621801 0.906668 0.601867 0.081311
C26   C     C_R   0.378200 0.093333 0.398132 0.081304
C27   C     C_R   0.495013 0.957842 0.481793 0.030657
C28   C     C_R   0.504984 0.042157 0.518207 0.030659
C29   C     C_R   0.559416 0.049824 0.602136 0.163791
C30   C     C_R   0.440579 0.950175 0.397865 0.163829
C31   C     C_R   0.629729 0.987580 0.637088 -0.198766
C32   C     C_R   0.370269 0.012420 0.362911 -0.198757
C33   C     C_3   0.933546 0.439453 0.566939 -0.178771
C34   C     C_3   0.066454 0.560548 0.433060 -0.178762
C35   C     C_3   0.052667 0.522837 0.575366 -0.164065
C36   C     C_3   0.947332 0.477164 0.424633 -0.164059
C37   C     C_3   0.121016 0.496443 0.500050 0.021760
C38   C     C_3   0.878984 0.503557 0.499949 0.021767
C39   C     C_3   0.004459 0.413026 0.491695 -0.142138
C40   C     C_3   0.995541 0.586974 0.508303 -0.142129
C41   C     C_R   0.445605 0.403860 0.754196 -0.160014
C42   C     C_R   0.554406 0.596141 0.245805 -0.160024
C43   C     C_R   0.311720 0.300418 0.873358 -0.162932
C44   C     C_R   0.688320 0.699564 0.126647 -0.162902
C45   C     C_R   0.348789 0.319811 0.784652 0.000723
C46   C     C_R   0.651248 0.680177 0.215352 0.000723
H1    H     H_    0.099684 0.540877 0.636997 0.140970
H2    H     H_    0.900316 0.459124 0.363002 0.140971
H3    H     H_    0.569439 0.233026 0.528424 0.162749
H4    H     H_    0.430557 0.766972 0.471579 0.162756
H5    H     H_    0.756301 0.862373 0.691996 0.151568
H6    H     H_    0.243702 0.137628 0.308002 0.151567
H7    H     H_    0.875014 0.390493 0.621701 0.133947
H8    H     H_    0.124986 0.609507 0.378298 0.133954
H9    H     H_    0.009502 0.341467 0.486050 0.137908
H10   H     H_    0.990497 0.658533 0.513948 0.137913
H11   H     H_    0.210131 0.305935 0.025802 0.157049
H12   H     H_    0.789908 0.694032 0.974213 0.157053
H13   H     H_    0.424682 0.472975 0.211730 0.181511
H14   H     H_    0.575306 0.527038 0.788272 0.181518
H15   H     H_    0.230110 0.240834 0.896535 0.173954
H16   H     H_    0.769944 0.759136 0.103471 0.173986
H17   H     H_    0.680787 0.997872 0.697314 0.157507
H18   H     H_    0.319210 0.002128 0.302687 0.157516
N1    N     N_R   0.574200 0.731700 0.552740 -0.104550
N2    N     N_R   0.425800 0.268300 0.447260 -0.104546
O1    O     O_R   0.462600 0.383110 0.605620 -0.629656
O2    O     O_R   0.537400 0.616890 0.394380 -0.629671
O3    O     O_R   0.510210 0.531900 0.639510 -0.609346
O4    O     O_R   0.489790 0.468100 0.360490 -0.609337
O5    O     O_R   0.662240 0.425610 0.483080 -0.613911
O6    O     O_R   0.337760 0.574390 0.516920 -0.613909
O7    O     O_R   0.709860 0.574400 0.516970 -0.632262
O8    O     O_R   0.290140 0.425600 0.483030 -0.632264
Zn1   Zn    Zn3+2 0.468210 0.400660 0.477370 0.931077
Zn2   Zn    Zn3+2 0.531790 0.599340 0.522630 0.931070
C47   C     C_3   0.237299 0.299194 0.356876 -0.843402
H19   H     H_    0.289472 0.370637 0.328666 0.259634
H20   H     H_    0.173318 0.269132 0.305408 0.195977
H21   H     H_    0.170423 0.298981 0.411484 0.239809
C48   C     C_3   0.762699 0.700804 0.643128 -0.843397
H22   H     H_    0.710519 0.629359 0.671327 0.259648
H23   H     H_    0.829595 0.701026 0.588528 0.239797
H24   H     H_    0.826661 0.730853 0.694610 0.195971
C49   C     C_3   0.530480 0.112526 0.662994 -0.879453
H25   H     H_    0.511534 0.074280 0.730398 0.253826
H26   H     H_    0.616384 0.173731 0.664150 0.228105
H27   H     H_    0.439448 0.134338 0.646150 0.263454
C50   C     C_3   0.469510 0.887470 0.337007 -0.879546
H28   H     H_    0.488454 0.925714 0.269602 0.253811
H29   H     H_    0.560543 0.865658 0.353851 0.263411
H30   H     H_    0.383604 0.826266 0.335854 0.228127
C51   C     C_2   0.727395 0.742732 0.274261 0.367678
H31   H     H_    0.741230 0.717111 0.341477 0.100031
O9    O     O_2   0.779127 0.824592 0.247244 -0.576639
C52   C     C_2   0.272669 0.257242 0.725745 0.367680
H32   H     H_    0.258765 0.282880 0.658542 0.099973
O10   O     O_2   0.221052 0.175351 0.752751 -0.576606
C53   C     C_3   0.231454 0.445466 0.114438 -0.944949
H33   H     H_    0.214564 0.392745 0.173816 0.238053
H34   H     H_    0.253430 0.516673 0.131942 0.250667
H35   H     H_    0.137757 0.435945 0.079033 0.249626
C54   C     C_3   0.768548 0.554516 0.885560 -0.944975
H36   H     H_    0.746557 0.483316 0.868041 0.250673
H37   H     H_    0.785445 0.607248 0.826192 0.238057
H38   H     H_    0.862242 0.564017 0.920964 0.249632

loop_
_geom_bond_atom_site_label_1
_geom_bond_atom_site_label_2
_ccdc_geom_bond_type
C25   C31   A    
C38   C40   S    
C26   C32   A    
C51   H31   S    
C34   C37   S    
O6    Zn2   S    
C35   H1    S    
C48   H22   S    
C49   H25   S    
C43   H15   S    
C33   C39   S    
N1    Zn2   S    
C34   C40   S    
C20   N2    A    
C28   C29   A    
C19   C21   A    
C2    O2    A    
C49   H27   S    
C13   H11   S    
O3    Zn2   S    
C11   C53   S    
C42   C46   A    
C1    O1    A    
C39   H9    S    
C40   H10   S    
C52   O10   D    
C19   N1    A    
C7    C43   A    
C50   H29   S    
C9    C10   A    
C29   C49   S    
C3    H14   S    
C47   H20   S    
C21   C27   A    
C51   O9    D    
C22   C28   A    
C27   C30   A    
C33   H7    S    
C23   O7    A    
C30   C50   S    
C48   H23   S    
C44   C46   A    
C49   H26   S    
C16   C26   A    
C14   H12   S    
O5    Zn1   S    
O8    Zn1   S    
C23   O5    A    
C32   H18   S    
C12   C54   S    
C4    C6    A    
C5    C7    A    
C6    C8    A    
C44   H16   S    
C47   H19   S    
C1    O3    A    
C5    C9    A    
C20   H3    S    
C31   H17   S    
C53   H33   S    
C29   C31   A    
C52   H32   S    
C24   C37   S    
C54   H37   S    
C50   H30   S    
C43   C45   A    
C8    C44   A    
C1    C41   S    
C53   H34   S    
C12   C14   A    
C34   H8    S    
C15   H5    S    
O7    Zn2   S    
O2    Zn2   S    
C54   H36   S    
C48   H24   S    
C24   O6    A    
C47   H21   S    
C15   C17   A    
C21   C25   A    
C3    C41   A    
C8    C14   A    
C35   C37   S    
C36   C39   S    
C16   H6    S    
C20   C22   A    
C3    C5    A    
C6    C10   A    
C18   N2    A    
C23   C38   S    
C17   N1    A    
C33   C38   S    
C36   C38   S    
C35   C40   S    
C37   C39   S    
C30   C32   A    
C11   C13   A    
C19   H4    S    
C24   O8    A    
C46   C51   S    
C4    C42   A    
C2    C42   S    
C18   C47   S    
N2    Zn1   S    
C4    H13   S    
C33   C35   S    
C34   C36   S    
C36   H2    S    
C54   H38   S    
C17   C48   S    
C9    C12   A    
C15   C25   A    
C10   C11   A    
C7    C13   A    
C53   H35   S    
O1    Zn1   S    
C16   C18   A    
C22   C26   A    
O4    Zn1   S    
C41   C45   A    
C50   H28   S    
C2    O4    A    
C45   C52   S    
C27   C28   A    
