data_mof_unit_39518.cif
_audit_creation_date              2012-12-10T17:19:00-0500
_audit_creation_method            fapswitch 2.2
_symmetry_space_group_name_H-M    P1
_symmetry_Int_Tables_number       1
_space_group_crystal_system       triclinic
_cell_length_a                    10.181694
_cell_length_b                    10.838945
_cell_length_c                    13.618977
_cell_angle_alpha                 92.049665
_cell_angle_beta                  100.499925
_cell_angle_gamma                 95.965944
_cell_volume                      1467.50151082

loop_
_atom_site_label
_atom_site_type_symbol
_atom_type_description
_atom_site_fract_x
_atom_site_fract_y
_atom_site_fract_z
_atom_type_partial_charge
C1    C     C_R   0.052144 0.732114 0.491089 0.951132
C2    C     C_2   0.998816 0.063505 0.470830 -0.144333
C3    C     C_2   0.430898 0.511553 0.508198 -0.135081
C4    C     C_2   0.569083 0.488764 0.491459 -0.139208
C5    C     C_R   0.093476 0.511882 0.685892 0.885610
C6    C     C_R   0.905105 0.483837 0.314186 0.881956
C7    C     C_R   0.139367 0.508210 0.793420 -0.079446
C8    C     C_R   0.846963 0.452265 0.209181 -0.066382
C9    C     C_R   0.119265 0.557338 0.964435 0.009889
C10   C     C_R   0.842417 0.339554 0.051427 0.009391
C11   C     C_R   0.068737 0.556592 0.862017 -0.225997
C12   C     C_R   0.945590 0.267447 0.503945 0.949281
C13   C     C_R   0.911332 0.384330 0.146575 -0.230077
C14   C     C_R   0.256759 0.455152 0.826705 -0.256949
C15   C     C_R   0.715310 0.476162 0.176641 -0.250022
C16   C     C_R   0.309487 0.452314 0.928435 0.088301
C17   C     C_R   0.639566 0.422037 0.087249 0.077521
C18   C     C_R   0.240990 0.506401 0.998496 0.119321
C19   C     C_R   0.705182 0.357523 0.021212 0.114491
C20   C     C_R   0.435602 0.407992 0.961036 0.081983
C21   C     C_R   0.501311 0.436591 0.060721 0.083295
C22   C     C_1   0.049220 0.619053 0.031747 0.141955
C23   C     C_R   0.426873 0.479043 0.130796 -0.234078
C24   C     C_1   0.914531 0.274780 0.987393 0.140907
C25   C     C_R   0.500197 0.339643 0.896979 -0.228971
C26   C     C_R   0.298213 0.511661 0.100225 -0.232005
C27   C     C_R   0.631819 0.313346 0.927233 -0.223575
C28   C     C_2   0.078242 0.863217 0.478013 -0.376270
C29   C     C_2   0.910929 0.134673 0.498258 -0.376771
C30   C     C_2   0.975842 0.931540 0.473647 -0.140762
H1    H     H_    0.246651 0.546264 0.156604 0.162415
H2    H     H_    0.874843 0.891232 0.478255 0.189189
H3    H     H_    0.816834 0.095242 0.517394 0.151068
H4    H     H_    0.179013 0.903959 0.473492 0.150459
H5    H     H_    0.578245 0.415299 0.437683 0.163616
H6    H     H_    0.421725 0.585246 0.561761 0.166695
H7    H     H_    0.665103 0.622749 0.589575 0.162988
H8    H     H_    0.334878 0.377140 0.410507 0.159255
H9    H     H_    0.676590 0.261018 0.875288 0.160868
H10   H     H_    0.672637 0.537798 0.223045 0.161783
H11   H     H_    0.309726 0.422077 0.771240 0.161726
H12   H     H_    0.014204 0.365451 0.171920 0.159778
H13   H     H_    0.977000 0.597783 0.835721 0.162781
H14   H     H_    0.465593 0.486356 0.210327 0.146544
H15   H     H_    0.450096 0.302424 0.823624 0.150178
H16   H     H_    0.093191 0.102515 0.451720 0.188265
N1    N     N_2   0.322180 0.446120 0.460900 -0.194254
N2    N     N_2   0.677820 0.553880 0.539100 -0.190902
N3    N     N_1   0.993318 0.669130 0.085374 -0.199584
N4    N     N_1   0.972534 0.223199 0.936145 -0.196980
O1    O     O_R   0.935190 0.693030 0.507870 -0.610303
O2    O     O_R   0.064810 0.306970 0.492130 -0.611587
O3    O     O_R   0.142080 0.658430 0.482770 -0.607025
O4    O     O_R   0.857920 0.341570 0.517230 -0.607333
O5    O     O_R   0.969700 0.527180 0.651960 -0.607265
O6    O     O_R   0.030300 0.472820 0.348040 -0.612853
O7    O     O_R   0.176600 0.492580 0.626860 -0.613601
O8    O     O_R   0.823400 0.507420 0.373140 -0.616203
Zn1   Zn    Zn3+2 0.861850 0.523100 0.516760 0.939760
Zn2   Zn    Zn3+2 0.138150 0.476900 0.483240 0.935416

loop_
_geom_bond_atom_site_label_1
_geom_bond_atom_site_label_2
_ccdc_geom_bond_type
C1    C28   S    
C7    C11   A    
C11   H13   S    
C8    C13   A    
C6    O6    A    
O5    Zn1   S    
C12   C29   S    
C25   C27   A    
C19   C27   A    
C6    O8    A    
C18   C26   A    
C5    O7    A    
C10   C19   A    
C2    C30   S    
C10   C24   S    
C28   C30   D    
N1    Zn2   S    
C4    H5    S    
C28   H4    S    
C26   H1    S    
C2    H16   S    
H7    N2    S    
C30   H2    S    
C9    C11   A    
H8    N1    S    
C3    H6    S    
C14   H11   S    
C3    N1    D    
C16   C20   A    
C12   O2    A    
O3    Zn2   S    
C8    C15   A    
C5    C7    S    
O4    Zn1   S    
C2    C29   D    
C21   C23   A    
C24   N4    T    
C9    C22   S    
C14   C16   A    
C15   H10   S    
O1    Zn1   S    
C20   C25   A    
C3    C4    S    
C25   H15   S    
C9    C18   A    
C20   C21   A    
N2    Zn1   S    
C16   C18   A    
C4    N2    D    
C23   C26   A    
C22   N3    T    
C15   C17   A    
C1    O3    A    
C13   H12   S    
O7    Zn2   S    
C6    C8    S    
C1    O1    A    
O2    Zn2   S    
C17   C19   A    
O8    Zn1   S    
C5    O5    A    
C7    C14   A    
C12   O4    A    
C23   H14   S    
O6    Zn2   S    
C29   H3    S    
C27   H9    S    
C10   C13   A    
C17   C21   A    
