data_mof_unit_8115.cif
_audit_creation_date              2012-12-10T18:11:39-0500
_audit_creation_method            fapswitch 2.2
_symmetry_space_group_name_H-M    P1
_symmetry_Int_Tables_number       1
_space_group_crystal_system       triclinic
_cell_length_a                    10.476072
_cell_length_b                    12.640223
_cell_length_c                    13.168259
_cell_angle_alpha                 82.559743
_cell_angle_beta                  91.45786
_cell_angle_gamma                 100.695906
_cell_volume                      1699.0154915

loop_
_atom_site_label
_atom_site_type_symbol
_atom_type_description
_atom_site_fract_x
_atom_site_fract_y
_atom_site_fract_z
_atom_type_partial_charge
C1    C     C_R   0.478493 0.439636 0.690582 0.833186
C2    C     C_3   0.059187 0.582868 0.549194 -0.084828
C3    C     C_3   0.956352 0.490304 0.602108 -0.231505
C4    C     C_3   0.876254 0.496139 0.503790 0.023570
C5    C     C_R   0.452390 0.717509 0.057672 -0.207729
C6    C     C_R   0.513141 0.595574 0.199411 -0.057353
C7    C     C_R   0.474458 0.296257 0.837333 -0.192122
C8    C     C_R   0.476641 0.264537 0.942092 -0.152971
C9    C     C_R   0.470832 0.339602 0.009422 -0.193987
C10   C     C_R   0.456441 0.447257 0.972234 0.088731
C11   C     C_R   0.431647 0.472786 0.867249 0.081586
C12   C     C_R   0.741573 0.498934 0.501233 0.854653
C13   C     C_R   0.467720 0.531034 0.035120 0.080768
C14   C     C_R   0.436960 0.633414 0.996046 0.170314
C15   C     C_R   0.390407 0.649847 0.896471 -0.254929
C16   C     C_R   0.385752 0.569748 0.833114 -0.206572
C17   C     C_R   0.512681 0.516694 0.135176 -0.279624
C18   C     C_R   0.491012 0.698668 0.159370 -0.130921
C19   C     C_R   0.456277 0.401419 0.799254 -0.110428
C20   C     C_R   0.402744 0.117194 0.306468 -0.297683
C21   C     C_R   0.634038 0.791436 0.642925 0.033918
C22   C     C_R   0.664042 0.893424 0.675505 -0.249633
C23   C     C_R   0.515890 0.560450 0.308964 0.894899
C24   C     C_R   0.623778 0.981345 0.617544 -0.187203
C25   C     C_R   0.554463 0.967516 0.525623 0.022532
C26   C     C_R   0.527528 0.862363 0.494142 0.157304
C27   C     C_R   0.504684 0.052383 0.465855 -0.006941
C28   C     C_R   0.458892 0.037786 0.365453 0.171175
C29   C     C_R   0.455752 0.939035 0.329352 -0.352799
C30   C     C_R   0.459208 0.848611 0.400919 -0.048032
C31   C     C_R   0.492291 0.149154 0.502848 -0.042117
C32   C     C_R   0.388514 0.208844 0.348754 0.019372
C33   C     C_R   0.257952 0.499007 0.503515 0.864998
C34   C     C_3   0.938313 0.409772 0.462841 -0.126995
C35   C     C_3   0.022026 0.404634 0.560937 -0.169531
C36   C     C_3   0.122001 0.497471 0.507377 0.028425
C37   C     C_3   0.040840 0.502174 0.409442 -0.208193
C38   C     C_3   0.976422 0.588369 0.450652 -0.146116
H1    H     H_    0.045397 0.330152 0.606045 0.142875
H2    H     H_    0.545062 0.443024 0.166207 0.155799
H3    H     H_    0.490260 0.239301 0.786246 0.153184
H4    H     H_    0.475357 0.310447 0.089859 0.127881
H5    H     H_    0.488745 0.182877 0.971243 0.138718
H6    H     H_    0.345849 0.584778 0.757183 0.177077
H7    H     H_    0.348500 0.272412 0.303148 0.138237
H8    H     H_    0.412196 0.927612 0.254830 0.165782
H9    H     H_    0.367056 0.107160 0.229660 0.140126
H10   H     H_    0.529271 0.168780 0.576612 0.117237
H11   H     H_    0.665144 0.723161 0.688267 0.144627
H12   H     H_    0.884914 0.339238 0.427534 0.148382
H13   H     H_    0.650489 0.059535 0.644581 0.132446
H14   H     H_    0.718231 0.904239 0.745670 0.148082
H15   H     H_    0.078489 0.505170 0.330876 0.138901
H16   H     H_    0.953966 0.663166 0.405479 0.150001
H17   H     H_    0.108813 0.650820 0.589496 0.188593
H18   H     H_    0.916819 0.485324 0.680368 0.139415
H19   H     H_    0.498155 0.762780 0.207200 0.182172
H20   H     H_    0.360056 0.725390 0.866854 0.154061
H21   H     H_    0.431301 0.796508 0.028084 0.134565
N1    N     N_R   0.432930 0.222190 0.444670 -0.106305
N2    N     N_R   0.566370 0.776980 0.554790 -0.137193
O1    O     O_R   0.467970 0.366730 0.627150 -0.620687
O2    O     O_R   0.510820 0.544830 0.662520 -0.631308
O3    O     O_R   0.664630 0.410960 0.482340 -0.622488
O4    O     O_R   0.707470 0.589060 0.517710 -0.621050
O5    O     O_R   0.489180 0.455170 0.337480 -0.630108
O6    O     O_R   0.532030 0.633270 0.372850 -0.614060
O7    O     O_R   0.292530 0.410940 0.482290 -0.616701
O8    O     O_R   0.335370 0.589040 0.517660 -0.607549
Zn1   Zn    Zn3+2 0.471390 0.381080 0.476380 0.934546
Zn2   Zn    Zn3+2 0.528610 0.618920 0.523620 0.949901
C39   C     C_2   0.333981 0.774835 0.400881 0.999529
O9    O     O_2   0.255588 0.774888 0.467926 -0.665060
O10   O     O_R   0.296569 0.719385 0.316765 -0.842396
H22   H     H_    0.201716 0.684068 0.318956 0.325546

loop_
_geom_bond_atom_site_label_1
_geom_bond_atom_site_label_2
_ccdc_geom_bond_type
C34   C37   S    
C32   H7    S    
C35   C36   S    
C8    H5    S    
C1    O1    A    
C21   H11   S    
C7    C8    A    
C11   C19   A    
C9    H4    S    
C29   C30   A    
C23   O5    A    
C28   C29   A    
C26   N2    A    
C2    H17   S    
C12   O3    A    
C15   C16   A    
C33   C36   S    
O1    Zn1   S    
C34   C35   S    
C11   C16   A    
C23   O6    A    
O8    Zn2   S    
C8    C9    A    
O3    Zn1   S    
C4    C12   S    
C9    C10   A    
C16   H6    S    
C21   N2    A    
C33   O8    A    
C37   H15   S    
N2    Zn2   S    
C24   H13   S    
C21   C22   A    
C1    O2    A    
C6    C18   A    
C4    C34   S    
C34   H12   S    
C1    C19   S    
O10   H22   S    
C5    H21   S    
C27   C31   A    
C24   C25   A    
C39   O10   S    
C5    C18   A    
C20   C28   A    
C25   C26   A    
O4    Zn2   S    
C17   H2    S    
C31   N1    A    
C35   H1    S    
C37   C38   S    
C3    H18   S    
C2    C38   S    
C18   H19   S    
C38   H16   S    
N1    Zn1   S    
C5    C14   A    
O2    Zn2   S    
C26   C30   A    
C7    C19   A    
C31   H10   S    
C15   H20   S    
C22   C24   A    
C32   N1    A    
C3    C35   S    
C3    C4    S    
C22   H14   S    
C20   C32   A    
C2    C36   S    
C6    C17   A    
C36   C37   S    
C4    C38   S    
C39   O9    D    
C10   C13   A    
C30   C39   S    
C25   C27   A    
C12   O4    A    
C13   C17   A    
C29   H8    S    
C2    C3    S    
O5    Zn1   S    
C6    C23   S    
O6    Zn2   S    
C7    H3    S    
C20   H9    S    
C10   C11   A    
O7    Zn1   S    
C27   C28   A    
C14   C15   A    
C13   C14   A    
C33   O7    A    
