data_mof_unit_33869.cif
_audit_creation_date              2012-10-26T18:59:36-0400
_audit_creation_method            fapswitch 2.2
_symmetry_space_group_name_H-M    P1
_symmetry_Int_Tables_number       1
_space_group_crystal_system       triclinic
_cell_length_a                    23.510423
_cell_length_b                    10.847211
_cell_length_c                    9.539895
_cell_angle_alpha                 89.640107
_cell_angle_beta                  90.169196
_cell_angle_gamma                 89.818876
_cell_volume                      2432.81715191

loop_
_atom_site_label
_atom_site_type_symbol
_atom_type_description
_atom_site_fract_x
_atom_site_fract_y
_atom_site_fract_z
_atom_type_partial_charge
C1    C     C_R   0.500396 0.262547 0.500305 0.549681
C2    C     C_R   0.118943 0.600703 0.436126 0.401113
C3    C     C_R   0.238766 0.497115 0.372126 -0.058406
C4    C     C_R   0.390917 0.500170 0.499828 0.532549
C5    C     C_R   0.298060 0.495754 0.372344 -0.148914
C6    C     C_R   0.328306 0.502131 0.499393 0.000033
C7    C     C_R   0.298159 0.510914 0.625994 -0.157216
C8    C     C_R   0.238866 0.512793 0.625438 -0.057984
C9    C     C_R   0.208915 0.505463 0.498603 0.240019
C10   C     C_R   0.760525 0.415859 0.419637 -0.058785
C11   C     C_R   0.701138 0.413857 0.421636 0.202711
C12   C     C_R   0.970891 0.302972 0.617343 0.269528
C13   C     C_R   0.671122 0.503795 0.498153 0.046442
C14   C     C_R   0.701215 0.596302 0.570690 0.066427
C15   C     C_R   0.760780 0.594136 0.571054 -0.068698
C16   C     C_R   0.497868 0.737686 0.499235 0.553115
C17   C     C_R   0.790408 0.504333 0.495844 0.165861
C18   C     C_R   0.506935 0.062246 0.624150 -0.033155
C19   C     C_R   0.502601 0.129588 0.499532 -0.043662
C20   C     C_R   0.499660 0.066738 0.371677 -0.159767
C21   C     C_R   0.495991 0.938406 0.369222 0.224803
C22   C     C_R   0.496607 0.871457 0.496921 0.014993
C23   C     C_R   0.030338 0.307092 0.620873 -0.101240
C24   C     C_R   0.501307 0.935788 0.622676 -0.024237
C25   C     C_3   0.463884 0.937176 0.750521 0.013882
C26   C     C_3   0.473817 0.075597 0.756534 -0.219792
C27   C     C_R   0.548280 0.527913 0.073998 0.199410
C28   C     C_R   0.608815 0.501280 0.499807 0.594198
C29   C     C_R   0.454228 0.459399 0.074301 -0.039380
C30   C     C_R   0.454209 0.459470 0.925571 -0.035513
C31   C     C_R   0.548281 0.527934 0.926619 0.138585
C32   C     C_3   0.581536 0.644594 0.919469 -0.258887
C33   C     C_3   0.580991 0.645434 0.079182 -0.022918
C34   C     C_R   0.060009 0.405263 0.559321 -0.019836
C35   C     C_R   0.879890 0.598244 0.432110 0.403442
C36   C     C_R   0.879754 0.407373 0.558666 0.409629
C37   C     C_R   0.939729 0.402534 0.557512 0.023446
C38   C     C_R   0.969535 0.501358 0.494655 -0.071170
C39   C     C_R   0.939453 0.599676 0.431166 0.035873
C40   C     C_3   0.933675 0.111410 0.577613 0.022102
C41   C     C_3   0.980524 0.013862 0.580639 -0.392943
C42   C     C_3   0.665154 0.219743 0.422704 -0.006234
C43   C     C_3   0.644132 0.117167 0.327937 -0.359271
C44   C     C_3   0.651285 0.790049 0.547483 -0.296505
C45   C     C_R   0.029618 0.502397 0.495397 -0.042088
C46   C     C_3   0.438350 0.902143 0.179436 -0.012975
C47   C     C_3   0.417839 0.785478 0.107910 -0.358616
C48   C     C_3   0.386620 0.783269 0.725390 -0.271549
C49   C     C_3   0.670373 0.738307 0.155766 -0.307474
C50   C     C_R   0.059265 0.601181 0.432994 0.041819
C51   C     C_R   0.028719 0.697951 0.369406 -0.128646
C52   C     C_R   0.969461 0.696978 0.368102 -0.132070
C53   C     C_R   0.119684 0.408262 0.559199 0.402126
Cu1   Cu    Cu3+1 0.500000 0.499980 0.640670 0.921099
Cu2   Cu    Cu3+1 0.500000 0.500020 0.359330 0.969202
H1    H     H_    0.784245 0.663798 0.627733 0.138839
H2    H     H_    0.557134 0.722029 0.871534 0.129441
H3    H     H_    0.556525 0.722476 0.125857 0.204296
H4    H     H_    0.050459 0.774837 0.320563 0.164173
H5    H     H_    0.947256 0.773129 0.318107 0.158347
H6    H     H_    0.215934 0.490924 0.273686 0.132983
H7    H     H_    0.320126 0.489095 0.273182 0.115115
H8    H     H_    0.320312 0.516609 0.725428 0.113808
H9    H     H_    0.216115 0.519817 0.723607 0.133283
H10   H     H_    0.783518 0.347909 0.359121 0.145015
H11   H     H_    0.928223 0.148246 0.468754 0.123366
H12   H     H_    0.498176 0.116611 0.272985 0.139875
H13   H     H_    0.892994 0.065455 0.604880 0.183819
H14   H     H_    0.987313 0.979819 0.689448 0.177895
H15   H     H_    0.968026 0.935145 0.513708 0.115556
H16   H     H_    0.020844 0.052570 0.539601 0.148958
H17   H     H_    0.632811 0.235956 0.505622 0.135282
H18   H     H_    0.705673 0.188082 0.472566 0.134321
H19   H     H_    0.677917 0.091245 0.252433 0.152912
H20   H     H_    0.632787 0.035002 0.391826 0.089108
H21   H     H_    0.606075 0.148630 0.268480 0.177793
H22   H     H_    0.694236 0.729225 0.723864 0.241310
H23   H     H_    0.481719 0.886412 0.842230 0.137641
H24   H     H_    0.687490 0.837152 0.495289 0.140352
H25   H     H_    0.627091 0.858883 0.609229 0.135579
H26   H     H_    0.622410 0.751883 0.466575 0.171555
H27   H     H_    0.443053 0.976178 0.099260 0.137306
H28   H     H_    0.404730 0.930589 0.255414 0.124298
H29   H     H_    0.378251 0.805139 0.048012 0.108133
H30   H     H_    0.408845 0.713215 0.187694 0.175443
H31   H     H_    0.450916 0.750681 0.035329 0.142715
H32   H     H_    0.385855 0.961002 0.640755 0.260485
H33   H     H_    0.341448 0.778656 0.758329 0.141380
H34   H     H_    0.434940 0.133356 0.743266 0.152255
H35   H     H_    0.412505 0.728363 0.800728 0.163172
H36   H     H_    0.389881 0.742988 0.619278 0.158616
H37   H     H_    0.659644 0.553055 0.104734 0.277223
H38   H     H_    0.709235 0.717400 0.218081 0.175678
H39   H     H_    0.645772 0.810622 0.211323 0.149974
H40   H     H_    0.683109 0.773255 0.050771 0.139839
H41   H     H_    0.501470 0.103190 0.845650 0.117686
H42   H     H_    0.416840 0.428015 0.129399 0.117263
H43   H     H_    0.053145 0.232175 0.671626 0.176141
H44   H     H_    0.416816 0.428023 0.870440 0.120054
H45   H     H_    0.624289 0.628781 0.874267 0.164454
N1    N     N_R   0.851440 0.503479 0.495685 -0.399694
N2    N     N_R   0.147852 0.505012 0.498279 -0.394135
N3    N     N_R   0.500360 0.500930 0.147930 -0.244457
N4    N     N_R   0.500360 0.500890 0.852020 -0.239877
N5    N     N_2   0.672070 0.693609 0.639911 -0.522131
N6    N     N_2   0.404311 0.910659 0.721180 -0.525763
N7    N     N_2   0.636862 0.627601 0.141581 -0.493205
O1    O     O_R   0.500000 0.319640 0.618810 -0.497107
O2    O     O_R   0.582120 0.500020 0.618760 -0.491328
O3    O     O_R   0.582120 0.500060 0.381180 -0.445442
O4    O     O_2   0.850518 0.690524 0.369440 -0.517309
O5    O     O_3   0.944010 0.203383 0.679345 -0.512116
O6    O     O_3   0.672738 0.327759 0.341671 -0.550250
O7    O     O_3   0.491968 0.878595 0.242020 -0.568933
O8    O     O_2   0.849708 0.318206 0.623729 -0.466809
O9    O     O_2   0.149373 0.314545 0.618019 -0.501054
O10   O     O_2   0.147874 0.695513 0.378580 -0.503177
O11   O     O_R   0.500010 0.319680 0.381230 -0.503897
O12   O     O_R   0.417880 0.499940 0.618820 -0.525059
O13   O     O_R   0.417880 0.499980 0.381240 -0.522130
O14   O     O_R   0.499990 0.680320 0.618770 -0.514030
O15   O     O_R   0.500000 0.680360 0.381190 -0.458989

loop_
_geom_bond_atom_site_label_1
_geom_bond_atom_site_label_2
_ccdc_geom_bond_type
C33   H3    S    
C20   H12   S    
C19   C20   A    
C33   N7    S    
C7    C8    A    
C40   O5    S    
C44   N5    S    
C27   C33   S    
C26   H34   S    
C12   C23   A    
C37   C38   A    
C18   C24   A    
C47   H30   S    
Cu1   N4    S    
C36   C37   A    
C38   C39   A    
C2    N2    A    
C10   C17   A    
Cu2   N3    S    
C29   N3    A    
C18   C19   A    
C46   C47   S    
C12   C37   A    
C16   O15   A    
C38   C45   A    
C17   N1    S    
C52   H5    S    
C21   C22   A    
C46   H27   S    
C14   N5    S    
C48   N6    S    
C8    C9    A    
C48   H36   S    
C18   C26   S    
C48   H33   S    
C13   C28   S    
C49   H39   S    
C49   N7    S    
C2    C50   A    
C53   O9    S    
C41   H16   S    
C23   C34   A    
C43   H19   S    
C39   C52   A    
Cu2   O15   S    
C40   H11   S    
Cu1   O12   S    
C43   H20   S    
C32   H2    S    
C2    O10   S    
C25   N6    S    
Cu2   O13   S    
C3    H6    S    
C26   H41   S    
C1    C19   S    
C46   O7    S    
C27   C31   A    
C51   C52   A    
C47   H31   S    
C44   H25   S    
C24   C25   S    
C4    C6    S    
C44   H26   S    
C9    N2    S    
C28   O3    A    
C25   C26   S    
C30   H44   S    
C25   H23   S    
C32   H45   S    
Cu1   O2    S    
C36   N1    A    
C35   C39   A    
C16   O14   A    
C29   C30   A    
C3    C9    A    
C42   O6    S    
C31   C32   S    
C53   N2    A    
H37   N7    S    
C42   H17   S    
C50   C51   A    
C4    O12   A    
C34   C45   A    
C47   H29   S    
C49   H40   S    
C7    H8    S    
C8    H9    S    
C40   C41   S    
Cu1   O14   S    
Cu2   O3    S    
C22   C24   A    
C51   H4    S    
C42   C43   S    
C3    C5    A    
C12   O5    S    
C35   O4    S    
C41   H14   S    
C10   H10   S    
C43   H21   S    
C15   C17   A    
Cu1   Cu2   S    
C42   H18   S    
C16   C22   S    
C44   H24   S    
C21   O7    S    
C35   N1    A    
C6    C7    A    
C29   H42   S    
C28   O2    A    
Cu1   O1    S    
C32   C33   S    
H22   N5    S    
C31   N4    A    
C11   C13   A    
C5    C6    A    
H32   N6    S    
C45   C50   A    
C27   N3    A    
C5    H7    S    
C1    O11   A    
C11   O6    S    
C15   H1    S    
C10   C11   A    
C1    O1    A    
C46   H28   S    
C23   H43   S    
C20   C21   A    
C34   C53   A    
C40   H13   S    
C30   N4    A    
C14   C15   A    
C4    O13   A    
C48   H35   S    
C49   H38   S    
C13   C14   A    
C36   O8    S    
C41   H15   S    
Cu2   O11   S    
