data_mof_unit_49286.cif
_audit_creation_date              2013-03-05T15:50:15-0500
_audit_creation_method            fapswitch 2.2
_symmetry_space_group_name_H-M    P1
_symmetry_Int_Tables_number       1
_space_group_crystal_system       triclinic
_cell_length_a                    18.362029
_cell_length_b                    25.814446
_cell_length_c                    18.2946
_cell_angle_alpha                 89.741246
_cell_angle_beta                  89.883247
_cell_angle_gamma                 89.694442
_cell_volume                      8671.51363437

loop_
_atom_site_label
_atom_site_type_symbol
_atom_site_description
_atom_site_fract_x
_atom_site_fract_y
_atom_site_fract_z
_atom_type_partial_charge
Zn1   Zn    Zn3+2 0.249990 0.293780 0.913250 0.978452
Zn2   Zn    Zn3+2 0.249990 0.706220 0.086750 1.008638
Zn3   Zn    Zn3+2 0.249990 0.706220 0.913250 1.008573
Zn4   Zn    Zn3+2 0.249990 0.293780 0.086750 0.992250
Zn5   Zn    Zn3+2 0.749990 0.793780 0.413250 1.009620
Zn6   Zn    Zn3+2 0.749990 0.206220 0.586750 0.968423
Zn7   Zn    Zn3+2 0.749990 0.206220 0.413250 0.991856
Zn8   Zn    Zn3+2 0.749990 0.793780 0.586750 1.013701
Zn9   Zn    Zn3+2 0.336760 0.206240 0.000000 1.001592
Zn10  Zn    Zn3+2 0.336760 0.793760 0.000000 0.998622
Zn11  Zn    Zn3+2 0.836760 0.706240 0.500000 0.995269
Zn12  Zn    Zn3+2 0.836760 0.293760 0.500000 0.972027
Zn13  Zn    Zn3+2 0.163250 0.206230 0.000000 1.082506
Zn14  Zn    Zn3+2 0.163250 0.793770 0.000000 1.089803
Zn15  Zn    Zn3+2 0.663250 0.706230 0.500000 1.089109
Zn16  Zn    Zn3+2 0.663250 0.293770 0.500000 1.072160
O1    O     O_3   0.249990 0.250010 0.000000 -0.491489
O2    O     O_3   0.249990 0.749990 0.000000 -0.490947
O3    O     O_3   0.749990 0.750010 0.500000 -0.489796
O4    O     O_3   0.749990 0.249990 0.500000 -0.493664
O5    O     O_R   0.335430 0.280650 0.146160 -0.630851
O6    O     O_R   0.335430 0.719350 0.853840 -0.633305
O7    O     O_R   0.335430 0.719350 0.146160 -0.641148
O8    O     O_R   0.335430 0.280650 0.853840 -0.638248
O9    O     O_R   0.835430 0.780650 0.646160 -0.636942
O10   O     O_R   0.835430 0.219350 0.353840 -0.628232
O11   O     O_R   0.835430 0.219350 0.646160 -0.643196
O12   O     O_R   0.835430 0.780650 0.353840 -0.632901
O13   O     O_R   0.164550 0.280640 0.853840 -0.653350
O14   O     O_R   0.164550 0.719360 0.146160 -0.634600
O15   O     O_R   0.164550 0.719360 0.853840 -0.627208
O16   O     O_R   0.164550 0.280640 0.146160 -0.629419
O17   O     O_R   0.664550 0.780640 0.353840 -0.626751
O18   O     O_R   0.664550 0.219360 0.646160 -0.668850
O19   O     O_R   0.664550 0.219360 0.353840 -0.648546
O20   O     O_R   0.664550 0.780640 0.646160 -0.633448
O21   O     O_R   0.396160 0.219380 0.914560 -0.637508
O22   O     O_R   0.396160 0.780620 0.085440 -0.628632
O23   O     O_R   0.396160 0.780620 0.914560 -0.638694
O24   O     O_R   0.396160 0.219380 0.085440 -0.650838
O25   O     O_R   0.896160 0.719380 0.414560 -0.641467
O26   O     O_R   0.896160 0.280620 0.585440 -0.643251
O27   O     O_R   0.896160 0.280620 0.414560 -0.631841
O28   O     O_R   0.896160 0.719380 0.585440 -0.633288
O29   O     O_R   0.103840 0.219370 0.085450 -0.603754
O30   O     O_R   0.103840 0.780630 0.914550 -0.591417
O31   O     O_R   0.103840 0.780630 0.085450 -0.578292
O32   O     O_R   0.103840 0.219370 0.914550 -0.597482
O33   O     O_R   0.603840 0.719370 0.585450 -0.576642
O34   O     O_R   0.603840 0.280630 0.414550 -0.552707
O35   O     O_R   0.603840 0.280630 0.585450 -0.594144
O36   O     O_R   0.603840 0.719370 0.414550 -0.592757
O37   O     O_R   0.310730 0.133160 0.000000 -0.632159
O38   O     O_R   0.310730 0.866840 0.000000 -0.635528
O39   O     O_R   0.810730 0.633160 0.500000 -0.639977
O40   O     O_R   0.810730 0.366840 0.500000 -0.650825
O41   O     O_R   0.249970 0.366860 0.060720 -0.649869
O42   O     O_R   0.249970 0.633140 0.939280 -0.635697
O43   O     O_R   0.249970 0.633140 0.060720 -0.648758
O44   O     O_R   0.249970 0.366860 0.939280 -0.650697
O45   O     O_R   0.749970 0.866860 0.560720 -0.643863
O46   O     O_R   0.749970 0.133140 0.439280 -0.646363
O47   O     O_R   0.749970 0.133140 0.560720 -0.639275
O48   O     O_R   0.749970 0.866860 0.439280 -0.639058
O49   O     O_R   0.189290 0.133150 0.000000 -0.568715
O50   O     O_R   0.189290 0.866850 0.000000 -0.591591
O51   O     O_R   0.689290 0.633150 0.500000 -0.590676
O52   O     O_R   0.689290 0.366850 0.500000 -0.585468
C1    C     C_R   0.390824 0.250249 0.139305 0.805720
C2    C     C_R   0.389736 0.749966 0.860137 0.776620
C3    C     C_R   0.389391 0.750055 0.140296 0.786901
C4    C     C_R   0.393766 0.253420 0.863336 0.822929
C5    C     C_R   0.889542 0.749795 0.640137 0.785554
C6    C     C_R   0.889741 0.250026 0.360044 0.792433
C7    C     C_R   0.886347 0.253484 0.643818 0.795711
C8    C     C_R   0.889761 0.749893 0.359959 0.785325
C9    C     C_R   0.113690 0.246458 0.856058 0.862680
C10   C     C_R   0.110884 0.750546 0.140567 0.925087
C11   C     C_R   0.110233 0.749776 0.859888 0.908421
C12   C     C_R   0.110876 0.249614 0.140329 0.890294
C13   C     C_R   0.610410 0.750337 0.359711 0.907841
C14   C     C_R   0.606241 0.245896 0.636297 0.835523
C15   C     C_R   0.611630 0.252999 0.358071 0.861374
C16   C     C_R   0.610948 0.749492 0.640469 0.917870
C17   C     C_R   0.250492 0.109440 0.998146 0.868036
C18   C     C_R   0.249867 0.890717 0.996732 0.850827
C19   C     C_R   0.750208 0.609289 0.498235 0.861139
C20   C     C_R   0.749851 0.390598 0.498048 0.828971
C21   C     C_R   0.249812 0.391384 0.999991 0.746114
C22   C     C_R   0.249794 0.608635 0.000205 0.771140
C23   C     C_R   0.749904 0.891365 0.499803 0.770270
C24   C     C_R   0.749915 0.108616 0.500020 0.753672
C25   C     C_3   0.249699 0.470011 0.079921 -0.363170
C26   C     C_3   0.180870 0.530399 0.961251 -0.349791
C27   C     C_3   0.249689 0.529497 0.080079 -0.369988
C28   C     C_3   0.180897 0.470476 0.961054 -0.382090
C29   C     C_3   0.681142 0.970120 0.539203 -0.341396
C30   C     C_3   0.749835 0.029985 0.420137 -0.371798
C31   C     C_3   0.681217 0.030031 0.539481 -0.377096
C32   C     C_3   0.749859 0.970504 0.419973 -0.373534
H1    H     H_    0.298635 0.455523 0.109660 0.183008
H2    H     H_    0.179256 0.544938 0.903911 0.193950
H3    H     H_    0.298622 0.543394 0.109848 0.181900
H4    H     H_    0.179351 0.456468 0.903633 0.192922
H5    H     H_    0.679558 0.955553 0.596535 0.204889
H6    H     H_    0.798740 0.044117 0.390152 0.184234
H7    H     H_    0.679859 0.044012 0.596940 0.207008
H8    H     H_    0.798802 0.956248 0.390000 0.182571
H9    H     H_    0.200782 0.455881 0.109896 0.203819
H10   H     H_    0.130925 0.544903 0.989227 0.218675
H11   H     H_    0.200760 0.543764 0.110072 0.205124
H12   H     H_    0.130962 0.456075 0.988938 0.206086
H13   H     H_    0.631154 0.956028 0.511490 0.209271
H14   H     H_    0.700893 0.044470 0.390404 0.191396
H15   H     H_    0.631201 0.044843 0.512005 0.178669
H16   H     H_    0.700947 0.956595 0.390178 0.197742
H17   H     H_    0.280320 0.903754 0.128602 0.179258
H18   H     H_    0.278269 0.094523 0.130676 0.176759
H19   H     H_    0.787668 0.403687 0.628378 0.116591
H20   H     H_    0.794725 0.594604 0.626481 0.172916
H21   H     H_    0.368286 0.455200 0.988026 0.156850
H22   H     H_    0.319707 0.544380 0.903380 0.190326
H23   H     H_    0.368324 0.543984 0.988315 0.155033
H24   H     H_    0.319607 0.455965 0.903101 0.185184
H25   H     H_    0.820022 0.955106 0.596279 0.196768
H26   H     H_    0.868522 0.043902 0.511262 0.154674
H27   H     H_    0.820030 0.043534 0.596505 0.200719
H28   H     H_    0.868538 0.955101 0.511063 0.153763
C33   C     C_3   0.318252 0.469976 0.960542 -0.393612
C34   C     C_3   0.318277 0.529862 0.960742 -0.399561
C35   C     C_3   0.818541 0.969617 0.538919 -0.394700
C36   C     C_3   0.818549 0.029517 0.539084 -0.379679
C37   C     C_3   0.249658 0.449146 0.000301 0.170038
C38   C     C_3   0.249652 0.550907 0.000595 0.153462
C39   C     C_3   0.749853 0.949093 0.499449 0.145555
C40   C     C_3   0.749866 0.050854 0.499752 0.157994
H29   H     H_    0.936198 0.101663 0.891665 0.190500
H30   H     H_    0.130507 0.908496 0.299442 0.170675
H31   H     H_    0.878573 0.674331 0.959010 0.216038
H32   H     H_    0.132402 0.091271 0.299211 0.170065
H33   H     H_    0.377580 0.825241 0.458378 0.215548
H34   H     H_    0.392064 0.351828 0.563170 0.180811
H35   H     H_    0.376265 0.340794 0.436562 0.172422
H36   H     H_    0.634137 0.592060 0.802662 0.174806
C41   C     C_R   0.129289 0.303372 0.713365 -0.172651
C42   C     C_R   0.014689 0.665634 0.154724 -0.192150
C43   C     C_R   0.143957 0.775241 0.710825 -0.197958
C44   C     C_R   0.013286 0.334545 0.153506 -0.215715
C45   C     C_R   0.644531 0.725640 0.210582 -0.202241
C46   C     C_R   0.598254 0.163357 0.752185 -0.173422
C47   C     C_R   0.653778 0.250892 0.202174 -0.185893
C48   C     C_R   0.512552 0.834096 0.653252 -0.182591
C49   C     C_R   0.127270 0.345644 0.665569 0.435715
C50   C     C_R   0.968176 0.623364 0.160780 0.463562
C51   C     C_R   0.160246 0.792168 0.640224 0.462307
C52   C     C_R   0.967522 0.377472 0.160549 0.457110
C53   C     C_R   0.660932 0.708496 0.140267 0.462761
C54   C     C_R   0.615336 0.138532 0.817786 0.424694
C55   C     C_R   0.672812 0.246466 0.128728 0.456615
C56   C     C_R   0.464184 0.875766 0.657815 0.463852
C57   C     C_R   0.605808 0.703734 0.088977 -0.186702
C58   C     C_R   0.587126 0.157420 0.882995 -0.182171
C59   C     C_R   0.618873 0.246105 0.075637 -0.206156
C60   C     C_R   0.410448 0.876077 0.711338 -0.119621
C61   C     C_R   0.060848 0.363963 0.639806 -0.179716
C62   C     C_R   0.915995 0.622185 0.215775 -0.126633
C63   C     C_R   0.105283 0.796284 0.588529 -0.185742
C64   C     C_R   0.916513 0.379089 0.216654 -0.147933
C65   C     C_R   0.534568 0.716947 0.107482 -0.223245
C66   C     C_R   0.537040 0.198136 0.881863 -0.202763
C67   C     C_R   0.545769 0.249261 0.095774 -0.235538
C68   C     C_R   0.404915 0.834720 0.760079 -0.176846
C69   C     C_R   0.997333 0.337156 0.656192 -0.196148
C70   C     C_R   0.909724 0.663550 0.263980 -0.184083
C71   C     C_R   0.034332 0.782667 0.606938 -0.223424
C72   C     C_R   0.910389 0.337438 0.264856 -0.201912
C73   C     C_R   0.516861 0.735373 0.178355 0.087917
C74   C     C_R   0.514099 0.220905 0.815068 0.088194
C75   C     C_R   0.524513 0.250942 0.170308 0.093520
C76   C     C_R   0.453105 0.791826 0.756262 0.080101
C77   C     C_R   0.999348 0.291183 0.698698 0.081736
C78   C     C_R   0.955236 0.707408 0.257970 0.081514
C79   C     C_R   0.016767 0.764434 0.678110 0.087372
C80   C     C_R   0.955303 0.293026 0.258109 0.091019
C81   C     C_R   0.064273 0.278552 0.735968 0.004958
C82   C     C_R   0.009316 0.708214 0.203404 -0.003201
C83   C     C_R   0.071800 0.762046 0.731624 0.004407
C84   C     C_R   0.008824 0.292056 0.202920 0.010356
C85   C     C_R   0.572111 0.738346 0.231513 0.002286
C86   C     C_R   0.552715 0.207843 0.750935 0.013161
C87   C     C_R   0.579829 0.253181 0.224178 0.014793
C88   C     C_R   0.507945 0.791451 0.702368 -0.004688
C89   C     C_R   0.445052 0.749814 0.197050 -0.110055
C90   C     C_R   0.455463 0.257030 0.810787 -0.168758
C91   C     C_R   0.450012 0.251980 0.192855 -0.129956
C92   C     C_R   0.446692 0.749334 0.804511 -0.095105
C93   C     C_R   0.938200 0.258362 0.705835 -0.164803
C94   C     C_R   0.946863 0.750459 0.304563 -0.098806
C95   C     C_R   0.945283 0.749630 0.696757 -0.108558
C96   C     C_R   0.946749 0.249508 0.304344 -0.099329
C97   C     C_R   0.427263 0.766934 0.268436 0.019331
C98   C     C_R   0.447877 0.288064 0.747241 0.023993
C99   C     C_R   0.432247 0.262471 0.266340 -0.002982
C100  C     C_R   0.495689 0.706906 0.801254 0.041688
C101  C     C_R   0.935825 0.222294 0.764269 0.022996
C102  C     C_R   0.994201 0.793408 0.299925 0.040267
C103  C     C_R   0.927626 0.732497 0.768319 0.020327
C104  C     C_R   0.993949 0.206143 0.299005 0.037870
C105  C     C_R   0.001099 0.208096 0.799959 -0.013494
C106  C     C_R   0.052009 0.793373 0.248216 -0.003443
C107  C     C_R   0.982866 0.728668 0.822355 -0.012136
C108  C     C_R   0.052570 0.206813 0.248250 -0.003858
C109  C     C_R   0.482678 0.771286 0.322098 -0.011447
C110  C     C_R   0.483496 0.272845 0.682578 -0.010494
C111  C     C_R   0.487445 0.279597 0.312978 -0.013844
C112  C     C_R   0.553060 0.706697 0.748934 -0.004578
C113  C     C_R   0.062463 0.241289 0.793403 -0.140035
C114  C     C_R   0.056758 0.751147 0.198306 -0.131314
C115  C     C_R   0.053853 0.746809 0.804245 -0.124439
C116  C     C_R   0.056805 0.249118 0.198120 -0.119677
C117  C     C_R   0.554092 0.753634 0.303934 -0.125948
C118  C     C_R   0.543929 0.238916 0.687435 -0.137728
C119  C     C_R   0.559994 0.262953 0.297585 -0.132267
C120  C     C_R   0.556746 0.748823 0.698232 -0.129656
C121  C     C_R   0.354966 0.781443 0.286550 -0.142462
C122  C     C_R   0.406080 0.334215 0.745816 -0.144615
C123  C     C_R   0.360106 0.260073 0.293512 -0.118508
C124  C     C_R   0.489241 0.665057 0.851151 -0.160937
C125  C     C_R   0.869839 0.200025 0.788741 -0.119884
C126  C     C_R   0.986053 0.835870 0.348121 -0.161197
C127  C     C_R   0.855669 0.717450 0.786246 -0.143085
C128  C     C_R   0.985138 0.162682 0.345673 -0.148467
C129  C     C_R   0.337494 0.800583 0.355121 -0.188606
C130  C     C_R   0.390256 0.358777 0.679722 -0.153473
C131  C     C_R   0.341422 0.285319 0.357911 -0.169993
C132  C     C_R   0.538099 0.623969 0.850251 -0.219265
C133  C     C_R   0.870208 0.158505 0.837481 -0.171998
C134  C     C_R   0.033906 0.877203 0.346239 -0.218823
C135  C     C_R   0.838371 0.698424 0.855087 -0.187225
C136  C     C_R   0.033469 0.121233 0.343544 -0.210803
C137  C     C_R   0.936055 0.137168 0.859913 -0.154218
C138  C     C_R   0.092224 0.876715 0.298258 -0.132745
C139  C     C_R   0.892492 0.691689 0.906820 -0.104322
C140  C     C_R   0.093347 0.122861 0.297518 -0.129455
C141  C     C_R   0.391710 0.807849 0.406419 -0.108364
C142  C     C_R   0.411347 0.335834 0.614315 -0.125819
C143  C     C_R   0.393261 0.315126 0.393152 -0.120517
C144  C     C_R   0.595463 0.623891 0.801128 -0.132725
C145  C     C_R   0.001581 0.160676 0.840113 0.427677
C146  C     C_R   0.102950 0.835386 0.250345 0.360579
C147  C     C_R   0.964482 0.705077 0.891242 0.366581
C148  C     C_R   0.104783 0.165262 0.251296 0.368323
C149  C     C_R   0.463996 0.794875 0.390698 0.368030
C150  C     C_R   0.456298 0.292020 0.615244 0.426220
C151  C     C_R   0.466136 0.313460 0.370660 0.477400
C152  C     C_R   0.604561 0.664519 0.751300 0.358912
H37   H     H_    0.182232 0.289298 0.730143 0.201948
H38   H     H_    0.054916 0.664391 0.111599 0.189247
H39   H     H_    0.188944 0.772472 0.748409 0.183675
H40   H     H_    0.052151 0.335154 0.109006 0.145332
H41   H     H_    0.689635 0.729043 0.247799 0.186493
H42   H     H_    0.619198 0.146430 0.702411 0.192859
H43   H     H_    0.697778 0.255593 0.240569 0.191962
H44   H     H_    0.553646 0.835866 0.610987 0.188481
H45   H     H_    0.618050 0.689915 0.034487 0.172127
H46   H     H_    0.602897 0.140043 0.934607 0.184770
H47   H     H_    0.633567 0.244552 0.018325 0.169046
H48   H     H_    0.372766 0.908364 0.715334 0.182826
H49   H     H_    0.058441 0.398300 0.605664 0.182541
H50   H     H_    0.880091 0.589247 0.221311 0.187452
H51   H     H_    0.117429 0.809928 0.533804 0.171446
H52   H     H_    0.881244 0.412540 0.222920 0.183320
H53   H     H_    0.493676 0.712061 0.065643 0.145780
H54   H     H_    0.518791 0.212531 0.934037 0.168299
H55   H     H_    0.507231 0.252223 0.051693 0.161072
H56   H     H_    0.362557 0.836755 0.800787 0.170269
H57   H     H_    0.946650 0.353623 0.636761 0.178072
H58   H     H_    0.869139 0.660700 0.306188 0.176156
H59   H     H_    0.993563 0.787050 0.564747 0.146688
H60   H     H_    0.870466 0.340567 0.307685 0.174571
H61   H     H_    0.310850 0.778574 0.247956 0.200394
H62   H     H_    0.387288 0.352494 0.795515 0.165638
H63   H     H_    0.317470 0.240230 0.264238 0.195511
H64   H     H_    0.446673 0.663632 0.892051 0.129252
H65   H     H_    0.817468 0.215292 0.772080 0.175777
H66   H     H_    0.943042 0.837578 0.388516 0.131565
H67   H     H_    0.811712 0.719731 0.747279 0.197124
H68   H     H_    0.941234 0.160231 0.384982 0.139014
H69   H     H_    0.819421 0.141250 0.854877 0.210559
H70   H     H_    0.026722 0.909266 0.383565 0.152067
H71   H     H_    0.782962 0.687195 0.867559 0.187307
H72   H     H_    0.025727 0.088352 0.379630 0.152510
H73   H     H_    0.281818 0.811442 0.367709 0.187959
H74   H     H_    0.358404 0.394145 0.679210 0.208942
H75   H     H_    0.285519 0.285398 0.376817 0.178360
H76   H     H_    0.532176 0.592375 0.888899 0.154666
H77   H     H_    0.297151 0.045990 0.242791 0.164128
H78   H     H_    0.298701 0.950293 0.241578 0.163704
H79   H     H_    0.826663 0.546433 0.735435 0.159915
H80   H     H_    0.823163 0.450841 0.736416 0.148486
C153  C     C_R   0.247116 0.055921 0.857023 0.186665
C154  C     C_R   0.227124 0.948389 0.857303 0.117877
C155  C     C_R   0.711624 0.554384 0.362371 0.122986
C156  C     C_R   0.711547 0.446054 0.362294 0.162906
C157  C     C_R   0.232881 0.029623 0.792684 -0.128768
C158  C     C_R   0.221997 0.977043 0.792971 -0.171988
C159  C     C_R   0.688017 0.527085 0.301737 -0.164607
C160  C     C_R   0.688015 0.473970 0.301693 -0.151553
C161  C     C_R   0.240640 0.973572 0.925909 0.011072
C162  C     C_R   0.246915 0.028682 0.925953 0.008095
C163  C     C_R   0.730494 0.472380 0.428943 0.009096
C164  C     C_R   0.730719 0.527693 0.428931 0.006845
C165  C     C_R   0.249997 0.946482 0.993668 -0.127513
C166  C     C_R   0.253236 0.054070 0.994389 -0.131021
C167  C     C_R   0.750011 0.446035 0.494726 -0.122444
C168  C     C_R   0.751124 0.553670 0.494483 -0.136341
C169  C     C_R   0.263940 0.972592 0.059871 0.060217
C170  C     C_R   0.264033 0.026799 0.060464 0.051472
C171  C     C_R   0.770471 0.472411 0.558906 0.072411
C172  C     C_R   0.771728 0.526636 0.558571 0.057489
C173  C     C_R   0.277540 0.945480 0.126283 -0.101130
C174  C     C_R   0.276320 0.052811 0.127554 -0.112618
C175  C     C_R   0.788924 0.445490 0.624429 -0.157659
C176  C     C_R   0.792529 0.552863 0.623440 -0.106583
C177  C     C_R   0.288822 0.971736 0.191540 -0.126674
C178  C     C_R   0.287948 0.025430 0.192224 -0.126538
C179  C     C_R   0.809141 0.472035 0.687177 -0.145179
C180  C     C_R   0.811072 0.525698 0.686641 -0.107996
H81   H     H_    0.231728 0.049978 0.740791 0.178795
H82   H     H_    0.211529 0.958187 0.741282 0.185687
H83   H     H_    0.672219 0.547158 0.252053 0.182567
H84   H     H_    0.672195 0.454381 0.251988 0.178224
Cl1   Cl    Cl    0.080803 0.122806 0.851689 -0.605992
Cl2   Cl    Cl    0.185350 0.838553 0.201111 -0.746043
Cl3   Cl    Cl    0.027510 0.683952 0.957943 -0.652074
Cl4   Cl    Cl    0.190157 0.164821 0.206863 -0.726106
Cl5   Cl    Cl    0.526849 0.816419 0.456779 -0.651395
Cl6   Cl    Cl    0.463902 0.255475 0.534381 -0.624717
Cl7   Cl    Cl    0.519853 0.366366 0.398517 -0.559837
Cl8   Cl    Cl    0.685089 0.659480 0.698906 -0.735064
I1    I     I_    0.276879 0.134366 0.832851 -0.271638
I2    I     I_    0.212116 0.868716 0.834044 -0.396680
I3    I     I_    0.720261 0.634154 0.334916 -0.401718
I4    I     I_    0.719909 0.366056 0.334135 -0.365387
Cl9   Cl    Cl    0.207887 0.376553 0.639159 -0.655043
Cl10  Cl    Cl    0.975960 0.571616 0.099369 -0.529961
Cl11  Cl    Cl    0.250002 0.808715 0.616865 -0.623812
Cl12  Cl    Cl    0.974863 0.429561 0.099086 -0.566254
Cl13  Cl    Cl    0.751050 0.692497 0.116781 -0.614670
Cl14  Cl    Cl    0.673924 0.084612 0.818201 -0.624504
Cl15  Cl    Cl    0.764957 0.244638 0.103018 -0.596365
Cl16  Cl    Cl    0.471377 0.927847 0.596275 -0.593159

loop_
_geom_bond_atom_site_label_1
_geom_bond_atom_site_label_2
_geom_bond_distance
_ccdc_geom_bond_type
C166  C170  1.409935 A    
C87   C119  1.414185 A    
C94   C102  1.414590 A    
C146  Cl2   1.761338 S    
C109  C149  1.437513 A    
C99   C123  1.415483 A    
C54   Cl14  1.754648 S    
C75   C91   1.428174 A    
C97   C121  1.416487 A    
O26   C7    1.287477 A    
C73   C89   1.410188 A    
C66   C74   1.417435 A    
C130  H74   1.081681 S    
C99   C111  1.400863 A    
C4    C90   1.487333 S    
O30   C11   1.286047 A    
C22   C38   1.490233 S    
C30   H14   1.113489 S    
C91   C99   1.409843 A    
C136  C140  1.384211 A    
C89   C97   1.417578 A    
Zn12  O26   1.935497 S    
C110  C118  1.412696 A    
C51   C63   1.387838 A    
H34   C142  1.080581 S    
C92   C100  1.415062 A    
C43   C51   1.394058 A    
C76   C92   1.410124 A    
C32   C39   1.553149 S    
C29   H5    1.113023 S    
C96   C104  1.415692 A    
C34   C38   1.551480 S    
C44   H40   1.081638 S    
O11   C7    1.288669 A    
C45   H41   1.077420 S    
O34   C15   1.265629 A    
C136  H72   1.082769 S    
C171  C175  1.423481 A    
C62   C70   1.392112 A    
C41   H37   1.080595 S    
C137  C145  1.396856 A    
Zn14  O30   1.940259 S    
C150  Cl6   1.763038 S    
Zn1   O44   1.947778 S    
C25   H1    1.113496 S    
C17   C166  1.431931 S    
C161  C165  1.430719 A    
Zn2   O43   1.947782 S    
C108  C116  1.425254 A    
C141  C149  1.396874 A    
Zn5   O48   1.947778 S    
H32   C140  1.083461 S    
Zn6   O47   1.947782 S    
Zn15  O3    1.957859 S    
C122  H62   1.081323 S    
Zn7   O46   1.943611 S    
C51   Cl11  1.756222 S    
O16   C12   1.278209 A    
C60   H48   1.083040 S    
C11   C115  1.455927 S    
C42   C50   1.393138 A    
C153  C157  1.387441 A    
C104  C108  1.420239 A    
Zn12  O4    1.958162 S    
Zn1   O13   1.942581 S    
C98   C110  1.407065 A    
C26   C28   1.546876 S    
Zn4   O16   1.937282 S    
O41   C21   1.276231 A    
C104  C128  1.416529 A    
C9    C113  1.491166 S    
C33   C37   1.550666 S    
C6    C96   1.459422 S    
C28   H4    1.112993 S    
C125  C133  1.391136 A    
C56   C60   1.388704 A    
C31   H7    1.113151 S    
C71   C79   1.419597 A    
C162  C166  1.421034 A    
C72   C80   1.414408 A    
C71   H59   1.081509 S    
C14   C118  1.487673 S    
C44   C84   1.420806 A    
C154  C158  1.390326 A    
C45   C85   1.420193 A    
C30   H6    1.113603 S    
Zn10  O22   1.935497 S    
C105  C113  1.423737 A    
C132  H76   1.082759 S    
C48   C88   1.420635 A    
C133  H69   1.082255 S    
O25   C8    1.274532 A    
Zn13  O29   1.934633 S    
C129  C141  1.383599 A    
H20   C176  1.080194 S    
C13   C117  1.456182 S    
Zn10  O2    1.958162 S    
C31   C40   1.551151 S    
O29   C12   1.281757 A    
C175  C179  1.391663 A    
C20   C167  1.432123 S    
C67   H55   1.076169 S    
C164  C168  1.428295 A    
C75   C87   1.418264 A    
C26   H2    1.112945 S    
C41   C81   1.417906 A    
C135  C139  1.383481 A    
O48   C23   1.277683 A    
C10   C114  1.448965 S    
C154  I2    2.121688 S    
H79   C180  1.082744 S    
C163  C167  1.425144 A    
C50   Cl10  1.754417 S    
C132  C144  1.383207 A    
C101  C125  1.414866 A    
Zn16  O35   1.934197 S    
C77   C93   1.415660 A    
C70   C78   1.414539 A    
C82   C114  1.415939 A    
Zn7   O10   1.937238 S    
O33   C16   1.281990 A    
C159  H83   1.083538 S    
C25   C37   1.555283 S    
C86   C118  1.417748 A    
C78   C82   1.406784 A    
H18   C174  1.079305 S    
O40   C20   1.272658 A    
C52   C64   1.388741 A    
C1    C91   1.465671 S    
H80   C179  1.082621 S    
C102  C106  1.420405 A    
C129  H73   1.083206 S    
C80   C96   1.412406 A    
Zn5   O17   1.942581 S    
H33   C141  1.083544 S    
H31   C139  1.083566 S    
C57   C65   1.391623 A    
Zn15  O33   1.934633 S    
C25   C27   1.535616 S    
C152  Cl8   1.765055 S    
C103  C107  1.420571 A    
C67   C75   1.418346 A    
C177  C178  1.386203 A    
C65   C73   1.419613 A    
C27   H3    1.113465 S    
C32   H8    1.113577 S    
Zn8   O3    1.952334 S    
C21   C37   1.491121 S    
O38   C18   1.274764 A    
H78   C177  1.082745 S    
O5    C1    1.287654 A    
C47   C55   1.392719 A    
O32   C9    1.288635 A    
C153  I1    2.144213 S    
H25   C35   1.112980 S    
H26   C36   1.113102 S    
C36   C40   1.550605 S    
Zn15  O51   1.943697 S    
C111  C151  1.426137 A    
C23   C39   1.490202 S    
Zn11  O28   1.940005 S    
C153  C162  1.441077 A    
Zn7   O4    1.952336 S    
H19   C175  1.081559 S    
H23   C34   1.113091 S    
C157  H81   1.083194 S    
C42   H38   1.080136 S    
C29   C39   1.551742 S    
H28   C35   1.113127 S    
O8    C4    1.289694 A    
C18   C165  1.440406 S    
C63   C71   1.391516 A    
C33   C34   1.545945 S    
C64   C72   1.392346 A    
C49   C61   1.388346 A    
C123  H63   1.081910 S    
O50   C18   1.275587 A    
O37   C17   1.267715 A    
C165  C169  1.413235 A    
C107  C115  1.425269 A    
C100  C112  1.421910 A    
Zn1   O1    1.944022 S    
C122  C130  1.393223 A    
C133  C137  1.388010 A    
Zn2   O14   1.936071 S    
C15   C119  1.479407 S    
C68   C76   1.415606 A    
C174  C178  1.391699 A    
H29   C137  1.082889 S    
C154  C161  1.438718 A    
O9    C5    1.275033 A    
C43   H39   1.077712 S    
O36   C13   1.285853 A    
C60   C68   1.391925 A    
C156  C160  1.388011 A    
O13   C9    1.288690 A    
Zn1   O8    1.936028 S    
C2    C92   1.457836 S    
Zn2   O7    1.942536 S    
C56   Cl16  1.755018 S    
Zn3   O6    1.937238 S    
O18   C14   1.280617 A    
O31   C10   1.276315 A    
C106  C146  1.436683 A    
C25   H9    1.113657 S    
C66   H54   1.077956 S    
C110  C150  1.416430 A    
C93   C101  1.415231 A    
C32   H16   1.113503 S    
C145  Cl1   1.760933 S    
C134  H70   1.082767 S    
C98   C122  1.413886 A    
C53   Cl13  1.756358 S    
C74   C90   1.422686 A    
Zn11  O3    1.948331 S    
C61   H49   1.082812 S    
C172  C176  1.422855 A    
C151  Cl7   1.766515 S    
Zn16  O34   1.940259 S    
C72   H60   1.074912 S    
C31   H15   1.112978 S    
C74   C86   1.410923 A    
C3    C89   1.458384 S    
C102  C126  1.416964 A    
C90   C98   1.415546 A    
Zn8   O20   1.937282 S    
C109  C117  1.425077 A    
C121  H61   1.078711 S    
C108  C148  1.435797 A    
C59   C67   1.393315 A    
C47   H43   1.079358 S    
C48   H44   1.080277 S    
C84   C116  1.415154 A    
C69   C77   1.416278 A    
C112  C152  1.438897 A    
Zn8   O9    1.937898 S    
C127  H67   1.079183 S    
C24   C40   1.491137 S    
C128  H68   1.081134 S    
C68   H56   1.076982 S    
C69   H57   1.081172 S    
C7    C93   1.488845 S    
C170  C174  1.420731 A    
C159  C160  1.371136 A    
C138  C146  1.396727 A    
O7    C3    1.276196 A    
C65   H53   1.081580 S    
C88   C120  1.417602 A    
C95   C103  1.417491 A    
C16   C120  1.450268 S    
O19   C15   1.302142 A    
C83   C115  1.422444 A    
C142  C150  1.396673 A    
C43   C83   1.420524 A    
O44   C21   1.280913 A    
C58   H46   1.082839 S    
Zn9   O24   1.940005 S    
Zn6   O18   1.936071 S    
Zn10  O23   1.934383 S    
C155  I3    2.124063 S    
C79   C83   1.409336 A    
C58   C66   1.393050 A    
C176  C180  1.391516 A    
Zn15  O36   1.935751 S    
O15   C11   1.271008 A    
O42   C22   1.279109 A    
C97   C109  1.420575 A    
C28   C37   1.550995 S    
C46   H42   1.080924 S    
Zn4   O1    1.952334 S    
C30   C32   1.535481 S    
Zn9   O37   1.948598 S    
C35   C36   1.546313 S    
O12   C8    1.276475 A    
C53   C57   1.387934 A    
Zn11  O39   1.948598 S    
C149  Cl5   1.766749 S    
C46   C54   1.393500 A    
C59   H47   1.082997 S    
C42   C82   1.420718 A    
H21   C33   1.113008 S    
Zn5   O3    1.944022 S    
Zn13  O1    1.957859 S    
Zn6   O4    1.944021 S    
C167  C171  1.412476 A    
C168  C172  1.412941 A    
C121  C129  1.386739 A    
C139  C147  1.396594 A    
C158  H82   1.083500 S    
C179  C180  1.385900 A    
C52   Cl12  1.754498 S    
C8    C94   1.456836 S    
C130  C142  1.390914 A    
C26   H10   1.113257 S    
H24   C33   1.113103 S    
C27   C38   1.553272 S    
O28   C5    1.279896 A    
C171  C172  1.400098 A    
Zn3   O42   1.943611 S    
C169  C173  1.421304 A    
H17   C173  1.078715 S    
C157  C158  1.372985 A    
O21   C4    1.282428 A    
C50   C62   1.388300 A    
C44   C52   1.393439 A    
C45   C53   1.394086 A    
C105  C145  1.424756 A    
C155  C164  1.439450 A    
C143  C151  1.399659 A    
C156  C163  1.442697 A    
C163  C164  1.427891 A    
C48   C56   1.393979 A    
C19   C168  1.437743 S    
Zn2   O2    1.944021 S    
Zn14  O2    1.948028 S    
C49   Cl9   1.751431 S    
C78   C94   1.411207 A    
C112  C120  1.427918 A    
C147  Cl3   1.766023 S    
Zn13  O49   1.943697 S    
C161  C162  1.427908 A    
C28   H12   1.113174 S    
C81   C113  1.421823 A    
C55   Cl15  1.755656 S    
C63   H51   1.083004 S    
Zn12  O27   1.934383 S    
C35   C39   1.551516 S    
C64   H52   1.082994 S    
C85   C117  1.422015 A    
C46   C86   1.417071 A    
C61   C69   1.390748 A    
C30   C40   1.555237 S    
Zn3   O2    1.952336 S    
C127  C135  1.386619 A    
H27   C36   1.113043 S    
C26   C38   1.551696 S    
O46   C24   1.276404 A    
O47   C24   1.280751 A    
C156  I4    2.135313 S    
Zn16  O52   1.948641 S    
C100  C124  1.416463 A    
H30   C138  1.083542 S    
Zn16  O4    1.948028 S    
Zn8   O45   1.943608 S    
C41   C49   1.395648 A    
C124  H64   1.081594 S    
O27   C6    1.280988 A    
C47   C87   1.416490 A    
C125  H65   1.081224 S    
O39   C19   1.274115 A    
C62   H50   1.082970 S    
C131  C143  1.388719 A    
C29   C31   1.546608 S    
C73   C85   1.409394 A    
O24   C1    1.273398 A    
C76   C88   1.407890 A    
C57   H45   1.083035 S    
C77   C81   1.410534 A    
C155  C159  1.388265 A    
C79   C95   1.409849 A    
C80   C84   1.407767 A    
O43   C22   1.277566 A    
Zn4   O41   1.943608 S    
Zn3   O15   1.937939 S    
Zn5   O12   1.936028 S    
Zn6   O11   1.942536 S    
C101  C105  1.411925 A    
C126  H66   1.081358 S    
Zn9   O21   1.933947 S    
Zn14  O50   1.948641 S    
C135  H71   1.082970 S    
O35   C14   1.289749 A    
Zn12  O40   1.943656 S    
Zn9   O1    1.948331 S    
C70   H58   1.074601 S    
H36   C144  1.083473 S    
O52   C20   1.273032 A    
C55   C59   1.388703 A    
C126  C134  1.386097 A    
C29   H13   1.113119 S    
H35   C143  1.081066 S    
O22   C3    1.280054 A    
C140  C148  1.396608 A    
Zn7   O19   1.937939 S    
C160  H84   1.083421 S    
C111  C119  1.425460 A    
C12   C116  1.448948 S    
Zn13  O32   1.935751 S    
C144  C152  1.396947 A    
O49   C17   1.277248 A    
Zn14  O31   1.934197 S    
C123  C131  1.390471 A    
C134  C138  1.383286 A    
O51   C19   1.274506 A    
C106  C114  1.427287 A    
C27   H11   1.113649 S    
C148  Cl4   1.764411 S    
Zn4   O5    1.937898 S    
C103  C127  1.416606 A    
O20   C16   1.278957 A    
C173  C177  1.391900 A    
C5    C95   1.457670 S    
O10   C6    1.282250 A    
O23   C2    1.280629 A    
O6    C2    1.281378 A    
Zn11  O25   1.933947 S    
C169  C170  1.399417 A    
Zn10  O38   1.943656 S    
C131  H75   1.082523 S    
C124  C132  1.385671 A    
C54   C58   1.388992 A    
O14   C10   1.273120 A    
C128  C136  1.387099 A    
C107  C147  1.437584 A    
O17   C13   1.272327 A    
H22   C34   1.113034 S    
O45   C23   1.278975 A    
H77   C178  1.082628 S    
