data_mof_unit_10664.cif
_audit_creation_date              2013-03-05T16:03:41-0500
_audit_creation_method            fapswitch 2.2
_symmetry_space_group_name_H-M    P1
_symmetry_Int_Tables_number       1
_space_group_crystal_system       triclinic
_cell_length_a                    8.837392
_cell_length_b                    10.961406
_cell_length_c                    9.749217
_cell_angle_alpha                 88.492637
_cell_angle_beta                  95.91804
_cell_angle_gamma                 93.368764
_cell_volume                      937.557492796

loop_
_atom_site_label
_atom_site_type_symbol
_atom_site_description
_atom_site_fract_x
_atom_site_fract_y
_atom_site_fract_z
_atom_type_partial_charge
O1    O     O_R   0.499990 0.319660 0.618740 -0.569735
O2    O     O_R   0.500010 0.680340 0.381260 -0.562223
O3    O     O_R   0.499990 0.319630 0.381170 -0.584326
O4    O     O_R   0.500010 0.680370 0.618830 -0.605368
C1    C     C_R   0.502091 0.262848 0.501350 0.778012
C2    C     C_R   0.490765 0.736887 0.498294 0.771012
O5    O     O_R   0.274840 0.500010 0.591370 -0.592500
O6    O     O_R   0.725160 0.499990 0.408630 -0.598746
O7    O     O_R   0.274830 0.499980 0.353800 -0.581668
O8    O     O_R   0.725170 0.500020 0.646200 -0.559797
C3    C     C_R   0.205531 0.503596 0.465785 0.876877
C4    C     C_R   0.794426 0.496263 0.534091 0.875945
Cu1   Cu    Cu3+1 0.500000 0.500020 0.640660 0.949363
Cu2   Cu    Cu3+1 0.500000 0.499980 0.359340 0.955816
N1    N     N_R   0.500040 0.500030 0.852080 -0.182050
N2    N     N_R   0.499960 0.499970 0.147920 -0.175644
C5    C     C_2   0.042289 0.516335 0.448915 -0.389493
C6    C     C_2   0.957462 0.482889 0.550079 -0.341874
C7    C     C_R   0.462344 0.067534 0.378667 -0.242523
C8    C     C_R   0.499564 0.932900 0.622389 -0.251770
H1    H     H_    0.443801 0.118608 0.283472 0.168968
H2    H     H_    0.500652 0.883871 0.718789 0.141350
C9    C     C_R   0.450419 0.940596 0.375468 -0.002432
C10   C     C_R   0.528868 0.058911 0.624483 0.009300
C11   C     C_R   0.477022 0.871084 0.497595 -0.082895
C12   C     C_R   0.500365 0.128363 0.502363 -0.082947
C13   C     C_R   0.388443 0.434119 0.061272 0.111161
C14   C     C_R   0.615927 0.560311 0.937903 0.102028
C15   C     C_R   0.390348 0.435888 0.915076 -0.102413
C16   C     C_R   0.613125 0.560630 0.084512 -0.074179
H3    H     H_    0.991075 0.553610 0.351763 0.153122
H4    H     H_    0.008535 0.443148 0.645579 0.166348
C17   C     C_R   0.406270 0.883634 0.243490 0.133545
C18   C     C_R   0.511154 0.885971 0.146267 -0.149290
C19   C     C_R   0.474150 0.825209 0.023826 -0.160451
C20   C     C_R   0.334348 0.760263 0.998098 -0.097883
C21   C     C_R   0.228318 0.758484 0.095357 -0.125366
C22   C     C_R   0.264178 0.820176 0.218405 -0.141038
H5    H     H_    0.622629 0.932245 0.166773 0.122317
H6    H     H_    0.555650 0.828317 0.950613 0.114332
H7    H     H_    0.311608 0.710075 0.904128 0.132266
H8    H     H_    0.119310 0.709034 0.077642 0.133434
H9    H     H_    0.183065 0.817098 0.294707 0.104132
C23   C     C_R   0.611370 0.112493 0.748920 0.137485
C24   C     C_R   0.749963 0.180547 0.739066 -0.116652
C25   C     C_R   0.819853 0.243268 0.852769 -0.095298
C26   C     C_R   0.753477 0.234890 0.976509 -0.087304
C27   C     C_R   0.628193 0.155687 0.991390 -0.165250
C28   C     C_R   0.553285 0.096973 0.876678 -0.174929
H10   H     H_    0.799588 0.189544 0.641951 0.093203
H11   H     H_    0.922817 0.299970 0.843748 0.118249
H12   H     H_    0.794528 0.291153 0.061050 0.124169
H13   H     H_    0.587309 0.144424 0.091620 0.122539
H14   H     H_    0.447927 0.043429 0.885932 0.134126
C29   C     C_R   0.266469 0.350229 0.111751 0.154094
C30   C     C_R   0.268856 0.223630 0.094657 -0.215063
C31   C     C_R   0.158370 0.142961 0.145226 -0.131410
C32   C     C_R   0.042927 0.188569 0.212447 -0.108509
C33   C     C_R   0.029063 0.314567 0.213980 -0.174778
C34   C     C_R   0.131438 0.393689 0.149732 -0.121952
H15   H     H_    0.353620 0.187089 0.039921 0.128118
H16   H     H_    0.162916 0.045653 0.132774 0.144531
H17   H     H_    0.959460 0.126812 0.255869 0.121504
H18   H     H_    0.933529 0.350041 0.257925 0.141202
H19   H     H_    0.112907 0.490407 0.142362 0.124708
C35   C     C_R   0.759149 0.612236 0.886351 0.140976
C36   C     C_R   0.767070 0.721482 0.809060 -0.089747
C37   C     C_R   0.899298 0.761983 0.751073 -0.156350
C38   C     C_R   0.027534 0.693751 0.771594 -0.097454
C39   C     C_R   0.024848 0.588680 0.855751 -0.177411
C40   C     C_R   0.892616 0.549886 0.915102 -0.189284
H20   H     H_    0.671624 0.774277 0.790143 0.118069
H21   H     H_    0.901020 0.844846 0.688158 0.126488
H22   H     H_    0.128208 0.722204 0.722010 0.133465
H23   H     H_    0.124460 0.536451 0.873904 0.128275
H24   H     H_    0.892488 0.469440 0.980102 0.113608
H25   H     H_    0.303773 0.383133 0.851415 0.129131
H26   H     H_    0.704788 0.608138 0.147854 0.124733

loop_
_geom_bond_atom_site_label_1
_geom_bond_atom_site_label_2
_geom_bond_distance
_ccdc_geom_bond_type
C23   C28   1.397939 A    
C29   C30   1.403670 A    
C13   C15   1.426744 A    
C14   C35   1.486614 S    
C19   C20   1.392215 A    
C31   C32   1.391152 A    
C31   H16   1.080236 S    
C24   C25   1.389955 A    
O5    C3    1.312022 A    
C33   H18   1.081425 S    
C6    H4    1.084184 S    
O1    C1    1.319536 A    
C20   C21   1.399137 A    
C7    H1    1.074090 S    
C10   C12   1.404806 A    
C36   H20   1.048847 S    
C40   H24   1.072274 S    
C13   C29   1.489559 S    
C2    C11   1.482871 S    
C8    C11   1.398777 A    
N2    C16   1.360933 A    
C28   H14   1.081602 S    
C21   H8    1.077464 S    
C30   C31   1.397561 A    
C5    C6    1.330503 D    
C18   C19   1.382466 A    
O4    Cu1   1.982735 S    
C7    C12   1.394346 A    
C8    C10   1.390575 A    
C37   C38   1.388776 A    
C9    C17   1.451802 S    
C39   C40   1.396177 A    
N2    C13   1.408071 A    
C35   C36   1.400077 A    
C33   C34   1.399688 A    
Cu1   Cu2   2.742661 S    
C20   H7    1.076054 S    
O2    C2    1.324805 A    
N1    C15   1.353218 A    
C27   H13   1.077889 S    
C18   H5    1.083405 S    
C26   C27   1.383532 A    
O4    C2    1.311200 A    
C32   C33   1.394303 A    
C25   H11   1.081285 S    
C36   C37   1.394370 A    
C7    C9    1.390141 A    
O7    Cu2   1.985075 S    
C21   C22   1.391364 A    
C35   C40   1.397637 A    
O6    C4    1.310873 A    
C17   C18   1.391161 A    
C38   H22   1.081972 S    
O7    C3    1.308279 A    
O3    Cu2   1.982734 S    
O8    C4    1.309258 A    
C27   C28   1.392216 A    
C8    H2    1.069748 S    
C34   H19   1.081612 S    
Cu1   N1    2.061147 S    
C10   C23   1.467344 S    
Cu2   N2    2.061145 S    
O1    Cu1   1.994091 S    
C23   C24   1.406748 A    
C32   H17   1.082667 S    
C25   C26   1.393420 A    
C3    C5    1.449583 S    
O6    Cu2   1.998281 S    
O3    C1    1.311114 A    
O8    Cu1   1.985073 S    
C26   H12   1.063051 S    
C17   C22   1.401239 A    
C14   C16   1.432189 A    
C19   H6    1.063586 S    
C37   H21   1.082792 S    
C22   H9    1.083574 S    
N1    C14   1.399430 A    
C24   H10   1.083570 S    
C5    H3    1.087134 S    
C9    C11   1.403237 A    
C38   C39   1.396888 A    
O2    Cu2   1.994092 S    
C1    C12   1.473116 S    
C16   H26   1.083017 S    
O5    Cu1   1.998283 S    
C15   H25   1.083480 S    
C4    C6    1.448806 S    
C39   H23   1.075079 S    
C30   H15   1.065493 S    
C29   C34   1.398314 A    
