data_mof_unit_68550.cif
_audit_creation_date              2012-12-11T17:48:49-0500
_audit_creation_method            fapswitch 2.2
_symmetry_space_group_name_H-M    P1
_symmetry_Int_Tables_number       1
_space_group_crystal_system       triclinic
_cell_length_a                    8.179969
_cell_length_b                    12.691291
_cell_length_c                    14.908119
_cell_angle_alpha                 96.821264
_cell_angle_beta                  97.617358
_cell_angle_gamma                 98.544537
_cell_volume                      1501.77937107

loop_
_atom_site_label
_atom_site_type_symbol
_atom_type_description
_atom_site_fract_x
_atom_site_fract_y
_atom_site_fract_z
_atom_type_partial_charge
Ba1   Ba    Ba6+2 0.843750 0.550210 0.455600 1.641094
Ba2   Ba    Ba6+2 0.346090 0.449880 0.544410 1.641563
C1    C     C_3   0.519560 0.911313 0.183930 -0.405732
C2    C     C_R   0.893506 0.443923 0.923722 -0.040547
C3    C     C_R   0.037470 0.456904 0.110305 -0.032280
C4    C     C_3   0.069920 0.771723 0.202329 0.353734
C5    C     C_R   0.874937 0.401487 0.077526 -0.025641
C6    C     C_R   0.801732 0.400115 0.987731 -0.103333
C7    C     C_R   0.108401 0.467010 0.204124 0.036998
C8    C     C_R   0.271300 0.522379 0.231991 -0.299962
C9    C     C_R   0.084638 0.529958 0.795409 0.058728
C10   C     C_R   0.153840 0.544045 0.889990 -0.034723
C11   C     C_R   0.059886 0.497099 0.953434 0.005248
C12   C     C_3   0.582304 0.831054 0.242558 0.335879
C13   C     C_R   0.313823 0.603483 0.923529 -0.033078
C14   C     C_R   0.385164 0.608976 0.014490 -0.108038
C15   C     C_R   0.296604 0.559960 0.077380 -0.040036
C16   C     C_3   0.030750 0.799129 0.105981 -0.344044
C17   C     C_R   0.131094 0.505154 0.047248 0.007864
C18   C     C_R   0.367417 0.565638 0.169919 -0.004210
C19   C     C_R   0.923498 0.472038 0.767411 -0.299975
C20   C     C_R   0.770977 0.180711 0.534594 -0.269124
C21   C     C_R   0.420670 0.808460 0.462021 -0.278185
C22   C     C_R   0.393697 0.984529 0.422139 -0.123927
C23   C     C_3   0.413697 0.286840 0.264715 0.299608
C24   C     C_R   0.325263 0.877357 0.421252 -0.008963
C25   C     C_R   0.581435 0.847028 0.510016 0.060432
C26   C     C_R   0.650010 0.958276 0.516198 -0.053657
C27   C     C_R   0.554063 0.027375 0.471154 -0.063279
C28   C     C_3   0.273578 0.790414 0.671271 0.280261
C29   C     C_R   0.616292 0.138877 0.481606 0.049995
C30   C     C_R   0.870544 0.113497 0.573615 -0.013296
C31   C     C_R   0.808607 0.003602 0.567535 -0.076673
C32   C     C_3   0.272758 0.908682 0.705043 -0.198240
C33   C     C_3   0.931366 0.219106 0.347515 0.281466
C34   C     C_3   0.373505 0.255962 0.161405 -0.382841
C35   C     C_3   0.910543 0.097510 0.325997 -0.347113
C36   C     C_3   0.772516 0.696628 0.730513 0.306658
C37   C     C_3   0.815527 0.729701 0.833504 -0.378347
C38   C     C_3   0.403436 0.982155 0.669174 -0.463821
C39   C     C_3   0.114159 0.228162 0.795202 0.432233
C40   C     C_3   0.156341 0.206512 0.893509 -0.038307
C41   C     C_3   0.653141 0.186104 0.825363 0.263374
C42   C     C_3   0.600835 0.098528 0.882421 -0.351929
C43   C     C_R   0.825232 0.433379 0.830301 -0.027391
H1    H     H_    0.683203 0.874136 0.297563 0.077053
H2    H     H_    0.665981 0.628862 0.716564 0.069151
H3    H     H_    0.473853 0.974782 0.226997 0.103762
H4    H     H_    0.930348 0.791498 0.849759 0.166255
H5    H     H_    0.837748 0.659348 0.867957 0.055185
H6    H     H_    0.710618 0.763071 0.860308 0.128761
H7    H     H_    0.476930 0.795945 0.275442 -0.050026
H8    H     H_    0.415623 0.869402 0.130267 0.117702
H9    H     H_    0.300091 0.307832 0.290625 0.016578
H10   H     H_    0.515274 0.357867 0.280005 0.062795
H11   H     H_    0.269075 0.186715 0.143781 0.154298
H12   H     H_    0.298927 0.923694 0.780900 0.168033
H13   H     H_    0.336222 0.324724 0.128884 0.056874
H14   H     H_    0.485280 0.233443 0.133961 0.121555
H15   H     H_    0.621707 0.949178 0.150188 0.139740
H16   H     H_    0.058771 0.735021 0.055683 0.068689
H17   H     H_    0.188713 0.307146 0.789641 0.051819
H18   H     H_    0.979565 0.233273 0.780626 -0.126392
H19   H     H_    0.107922 0.264976 0.940384 0.034567
H20   H     H_    0.293869 0.216895 0.913581 0.119752
H21   H     H_    0.773272 0.231911 0.862132 0.017603
H22   H     H_    0.673406 0.149866 0.757033 0.022405
H23   H     H_    0.146898 0.928631 0.683989 0.141784
H24   H     H_    0.667982 0.029907 0.869031 0.133513
H25   H     H_    0.464588 0.069077 0.866015 0.153978
H26   H     H_    0.989553 0.694528 0.206740 0.094166
H27   H     H_    0.629852 0.131323 0.956282 0.115950
H28   H     H_    0.799903 0.359485 0.120600 0.103855
H29   H     H_    0.673238 0.360797 0.968858 0.092079
H30   H     H_    0.510769 0.652911 0.034487 0.107786
H31   H     H_    0.388070 0.645636 0.880159 0.108943
H32   H     H_    0.326485 0.528382 0.302869 0.075062
H33   H     H_    0.869896 0.462620 0.696003 0.072290
H34   H     H_    0.817416 0.242002 0.370365 -0.001909
H35   H     H_    0.315535 0.034441 0.388997 0.101389
H36   H     H_    0.886687 0.955243 0.602379 0.105000
H37   H     H_    0.819048 0.265866 0.540679 0.059353
H38   H     H_    0.202982 0.761647 0.214331 -0.077433
H39   H     H_    0.365724 0.725175 0.460584 0.071118
H40   H     H_    0.896513 0.805763 0.090187 0.158614
H41   H     H_    0.107831 0.876847 0.099609 0.139439
H42   H     H_    0.400545 0.776606 0.660730 0.019832
H43   H     H_    0.185066 0.765192 0.606298 0.043581
H44   H     H_    0.530015 0.962551 0.688757 0.116487
H45   H     H_    0.039168 0.246591 0.402776 0.080110
H46   H     H_    0.370046 0.972921 0.594884 0.148680
H47   H     H_    0.402618 0.066652 0.696509 0.215741
H48   H     H_    0.801325 0.067675 0.272040 0.115118
H49   H     H_    0.890317 0.059913 0.387712 0.083862
H50   H     H_    0.024588 0.074234 0.301819 0.146189
H51   H     H_    0.882110 0.670402 0.704102 0.016031
I1    I     I_    0.051650 0.047254 0.911753 -0.577438
O1    O     O_2   0.827880 0.435260 0.277750 -0.468371
O2    O     O_2   0.207847 0.119990 0.564280 -0.481387
O3    O     O_3   0.153540 0.146172 0.733780 -0.583239
O4    O     O_3   0.100280 0.438960 0.391170 -0.497882
O5    O     O_3   0.587780 0.631850 0.546230 -0.492989
O6    O     O_2   0.332590 0.233690 0.456160 -0.464863
O7    O     O_3   0.463760 0.199235 0.303631 -0.649718
O8    O     O_2   0.490857 0.448687 0.824107 -0.488721
O9    O     O_3   0.526418 0.249403 0.815512 -0.590951
O10   O     O_3   0.625580 0.634130 0.333250 -0.473363
O11   O     O_2   0.709036 0.558542 0.175168 -0.494212
O12   O     O_3   0.730836 0.785264 0.690404 -0.634421
O13   O     O_3   0.955854 0.263043 0.267867 -0.634806
O14   O     O_3   0.647982 0.754905 0.187417 -0.596752
O15   O     O_2   0.857130 0.766340 0.543890 -0.468482
O16   O     O_3   0.056550 0.691050 0.379010 -0.483489
O17   O     O_2   0.990959 0.882690 0.436266 -0.485425
O18   O     O_3   0.037985 0.854688 0.265565 -0.595756
O19   O     O_2   0.361830 0.564780 0.722310 -0.472072
O20   O     O_3   0.089430 0.561130 0.608830 -0.494304
O21   O     O_3   0.564130 0.365960 0.666760 -0.455054
O22   O     O_3   0.225179 0.734843 0.740642 -0.650615
O23   O     O_3   0.601940 0.368240 0.453770 -0.479299
O24   O     O_3   0.133170 0.309040 0.621000 -0.483375
P1    P     P_3+3 0.998730 0.403530 0.291970 0.971896
P2    P     P_3+3 0.687380 0.751030 0.571310 0.968479
P3    P     P_3+3 0.103580 0.828387 0.376195 0.956270
P4    P     P_3+3 0.190990 0.596560 0.708040 0.971746
P5    P     P_3+3 0.089209 0.170563 0.622407 0.962700
P6    P     P_3+3 0.586746 0.626151 0.214978 0.952782
P7    P     P_3+3 0.506388 0.233383 0.422664 0.937985
P8    P     P_3+3 0.605112 0.374097 0.785397 0.949918

loop_
_geom_bond_atom_site_label_1
_geom_bond_atom_site_label_2
_ccdc_geom_bond_type
O9    P8    S    
C37   H6    S    
C43   P8    S    
C40   H19   S    
C14   H30   S    
C39   C40   S    
C2    C6    A    
C34   H14   S    
Ba2   O21   S    
C5    C6    A    
C5    H28   S    
C16   H41   S    
C24   P3    S    
C20   H37   S    
C32   C38   S    
C29   P7    S    
C26   C27   A    
C33   C35   S    
C22   C24   A    
C34   H13   S    
Ba1   O15   S    
C36   C37   S    
C28   O22   S    
Ba2   O5    S    
C13   C14   A    
C1    H3    S    
C15   C18   A    
C35   H50   S    
Ba1   Ba2   S    
C21   C24   A    
C30   P5    S    
C2    C11   A    
C22   C27   A    
Ba1   P1    S    
Ba2   O19   S    
C22   H35   S    
C12   H7    S    
C8    C18   A    
C14   C15   A    
C19   H33   S    
C40   H20   S    
C42   H25   S    
C4    H38   S    
C21   C25   A    
C38   H44   S    
C7    C8    A    
O17   P3    D    
C1    H15   S    
C13   H31   S    
O11   P6    D    
C4    H26   S    
Ba1   O16   S    
C39   H17   S    
Ba2   O20   S    
O2    P5    D    
C19   C43   A    
C2    C43   A    
C12   O14   S    
C4    C16   S    
C16   H40   S    
C21   H39   S    
C28   C32   S    
C23   H9    S    
O15   P2    D    
C12   H1    S    
C20   C29   A    
C40   I1    S    
C32   H23   S    
C3    C5    A    
C25   P2    S    
O12   P2    S    
C11   C17   A    
O8    P8    D    
Ba2   O4    S    
C9    C19   A    
C41   O9    S    
C41   C42   S    
Ba1   P2    S    
C3    C7    A    
C34   H11   S    
C32   H12   S    
O7    P7    S    
C10   C13   A    
C6    H29   S    
C7    P1    S    
C39   O3    S    
C35   H48   S    
C42   H24   S    
C16   H16   S    
Ba1   O20   S    
C38   H47   S    
C36   O12   S    
O6    P7    D    
C1    C12   S    
C36   H2    S    
C33   O13   S    
C20   C30   A    
C18   P6    S    
Ba2   P4    S    
O22   P4    S    
C37   H4    S    
C8    H32   S    
C26   C31   A    
O19   P4    D    
O14   P6    S    
O3    P5    S    
C39   H18   S    
C28   H43   S    
O5    P2    S    
Ba1   O4    S    
Ba2   O24   S    
O1    P1    D    
Ba2   O23   S    
O18   P3    S    
C9    P4    S    
C23   H10   S    
Ba1   O1    S    
C9    C10   A    
O23   P7    S    
C23   O7    S    
C3    C17   A    
O4    P1    S    
C30   C31   A    
O10   P6    S    
O24   P5    S    
C27   C29   A    
O21   P8    S    
O13   P1    S    
C1    H8    S    
O16   P3    S    
O20   P4    S    
Ba2   O6    S    
C41   H21   S    
C33   H34   S    
C15   C17   A    
C35   H49   S    
C42   H27   S    
C38   H46   S    
C4    O18   S    
C23   C34   S    
Ba1   O10   S    
C33   H45   S    
C37   H5    S    
C10   C11   A    
C41   H22   S    
C36   H51   S    
C25   C26   A    
C28   H42   S    
C31   H36   S    
Ba1   O5    S    
Ba1   O23   S    
