data_mof_unit_51687.cif
_audit_creation_date              2012-12-10T16:58:26-0500
_audit_creation_method            fapswitch 2.2
_symmetry_space_group_name_H-M    P1
_symmetry_Int_Tables_number       1
_space_group_crystal_system       triclinic
_cell_length_a                    15.862316
_cell_length_b                    10.964126
_cell_length_c                    9.716022
_cell_angle_alpha                 88.011736
_cell_angle_beta                  89.297658
_cell_angle_gamma                 92.516418
_cell_volume                      1686.96932854

loop_
_atom_site_label
_atom_site_type_symbol
_atom_type_description
_atom_site_fract_x
_atom_site_fract_y
_atom_site_fract_z
_atom_type_partial_charge
C1    C     C_R   0.495934 0.264883 0.502227 0.790270
C2    C     C_3   0.083232 0.512236 0.507645 0.075295
C3    C     C_3   0.977626 0.625674 0.557369 0.102279
C4    C     C_3   0.917402 0.526576 0.498858 0.086415
C5    C     C_3   0.036286 0.613834 0.429523 0.085345
C6    C     C_3   0.974718 0.515668 0.370802 -0.205139
C7    C     C_1   0.174737 0.504881 0.506890 -0.091114
C8    C     C_1   0.825616 0.522298 0.496632 -0.067000
C9    C     C_2   0.486261 0.935104 0.389386 -0.184163
C10   C     C_2   0.512780 0.865972 0.494711 -0.284641
C11   C     C_2   0.493667 0.068860 0.392880 -0.217203
C12   C     C_R   0.339841 0.499232 0.500979 0.820365
C13   C     C_2   0.481028 0.132167 0.507968 -0.145005
C14   C     C_2   0.452113 0.424726 0.928278 0.165923
C15   C     C_2   0.461125 0.416428 0.082704 -0.091631
C16   C     C_R   0.502725 0.734452 0.497897 0.841282
C17   C     C_R   0.660167 0.503480 0.499107 0.828358
C18   C     C_3   0.963505 0.425208 0.575972 -0.235051
C19   C     C_3   0.021992 0.415824 0.449526 0.114237
C20   C     C_1   0.250154 0.501226 0.503943 -0.192615
C21   C     C_1   0.749991 0.513877 0.497025 -0.187421
C22   C     C_3   0.024964 0.523675 0.634441 0.077949
Cu1   Cu    Cu3+1 0.500020 0.500020 0.638630 0.931396
Cu2   Cu    Cu3+1 0.499980 0.499980 0.361370 0.932042
H1    H     H_    0.546040 0.551049 0.890948 0.180325
H2    H     H_    0.430425 0.339001 0.138589 0.156700
H3    H     H_    0.522569 0.576623 0.101889 0.188624
H4    H     H_    0.932581 0.346979 0.635654 0.134345
H5    H     H_    0.952704 0.510923 0.263037 0.124447
H6    H     H_    0.461539 0.893819 0.297299 0.161933
H7    H     H_    0.542799 0.906490 0.582734 0.161054
H8    H     H_    0.511798 0.116330 0.296325 0.163864
N1    N     N_2   0.499090 0.498660 0.846910 -0.292229
N2    N     N_2   0.499070 0.498630 0.153040 -0.292111
O1    O     O_R   0.500010 0.321960 0.617040 -0.598290
O2    O     O_R   0.499990 0.321920 0.382900 -0.579543
O3    O     O_R   0.379090 0.500010 0.617050 -0.582611
O4    O     O_R   0.379060 0.499970 0.382910 -0.569151
O5    O     O_R   0.500010 0.678080 0.617100 -0.570349
O6    O     O_R   0.499990 0.678040 0.382960 -0.580371
O7    O     O_R   0.620940 0.500030 0.617090 -0.574779
O8    O     O_R   0.620910 0.499990 0.382950 -0.565220
C23   C     C_3   0.045767 0.296280 0.387521 -0.401622
C24   C     C_3   0.966461 0.223622 0.343718 -0.333284
C25   C     C_3   0.989564 0.107931 0.273513 -0.876256
H9    H     H_    0.026690 0.131402 0.177819 0.257750
H10   H     H_    0.027360 0.051236 0.344105 0.258885
H11   H     H_    0.931258 0.054847 0.246405 0.245566
H12   H     H_    0.926180 0.198261 0.435617 0.219306
H13   H     H_    0.929439 0.279718 0.270887 0.220200
H14   H     H_    0.087974 0.317427 0.296851 0.198513
H15   H     H_    0.080470 0.242104 0.465355 0.193016
C26   C     C_R   0.441857 0.074678 0.635891 0.137494
C27   C     C_R   0.487286 0.070173 0.759115 -0.162247
C28   C     C_R   0.451630 0.010731 0.877058 -0.167724
C29   C     C_R   0.369950 0.957700 0.873561 -0.108148
C30   C     C_R   0.323906 0.963396 0.751954 -0.146126
C31   C     C_R   0.359632 0.021542 0.633423 -0.131409
H16   H     H_    0.550763 0.110401 0.762888 0.134522
H17   H     H_    0.487114 0.006501 0.971429 0.126070
H18   H     H_    0.342279 0.912402 0.965137 0.121401
H19   H     H_    0.260605 0.922449 0.749432 0.122942
H20   H     H_    0.323561 0.024590 0.539525 0.121962
C32   C     C_3   0.387314 0.333661 0.873610 -0.332636
C33   C     C_3   0.297198 0.362306 0.915433 -0.391383
C34   C     C_3   0.233978 0.265991 0.862994 -0.857316
H21   H     H_    0.234265 0.268303 0.748558 0.255845
H22   H     H_    0.249893 0.173469 0.901810 0.261397
H23   H     H_    0.169545 0.283724 0.900433 0.234892
H24   H     H_    0.291010 0.364046 0.029394 0.213793
H25   H     H_    0.282258 0.453420 0.870992 0.249838
H26   H     H_    0.388891 0.327839 0.761874 0.260368
H27   H     H_    0.401338 0.241753 0.916151 0.178027
C35   C     C_3   0.083881 0.711597 0.338376 -0.410332
C36   C     C_3   0.025074 0.780155 0.241766 -0.342195
C37   C     C_3   0.075531 0.867823 0.143119 -0.879929
H28   H     H_    0.116344 0.932238 0.201166 0.256701
H29   H     H_    0.116089 0.816863 0.073738 0.261345
H30   H     H_    0.031605 0.920476 0.078772 0.246295
H31   H     H_    0.987651 0.714839 0.179613 0.214019
H32   H     H_    0.979960 0.831730 0.302592 0.218545
H33   H     H_    0.119229 0.776412 0.403944 0.185199
H34   H     H_    0.131022 0.665393 0.275419 0.210228
C38   C     C_3   0.945650 0.741381 0.621236 -0.400085
C39   C     C_3   0.013068 0.846269 0.622528 -0.351086
C40   C     C_3   0.991643 0.940291 0.728131 -0.870872
H35   H     H_    0.929535 0.978785 0.705087 0.256564
H36   H     H_    0.989610 0.897394 0.833387 0.252805
H37   H     H_    0.040685 0.015865 0.724463 0.240316
H38   H     H_    0.076282 0.811763 0.644726 0.207389
H39   H     H_    0.016890 0.893297 0.519877 0.216918
H40   H     H_    0.890784 0.772830 0.561785 0.187471
H41   H     H_    0.923117 0.716469 0.727698 0.202914
C41   C     C_3   0.045131 0.508397 0.787739 -0.399902
C42   C     C_3   0.112891 0.599314 0.837571 -0.340658
C43   C     C_3   0.133026 0.571336 0.988340 -0.893100
H42   H     H_    0.076785 0.584893 0.053969 0.261600
H43   H     H_    0.151101 0.475586 0.004357 0.261353
H44   H     H_    0.186094 0.632665 0.020849 0.241951
H45   H     H_    0.171336 0.595081 0.774254 0.228691
H46   H     H_    0.089812 0.693007 0.830038 0.226937
H47   H     H_    0.986011 0.517535 0.848395 0.190351
H48   H     H_    0.066272 0.414086 0.806077 0.200122

loop_
_geom_bond_atom_site_label_1
_geom_bond_atom_site_label_2
_ccdc_geom_bond_type
C24   H12   S    
C34   H22   S    
C28   C29   A    
C26   C31   A    
Cu2   O8    S    
C2    C7    S    
C37   H30   S    
C35   H34   S    
C4    C8    S    
C14   N1    D    
C39   H39   S    
C30   H19   S    
C39   C40   S    
C6    C19   S    
Cu2   O2    S    
C37   H29   S    
C5    C6    S    
C40   H36   S    
C23   H15   S    
C34   H23   S    
C33   H24   S    
C43   H44   S    
C5    C35   S    
C29   C30   A    
C18   C19   S    
C12   O3    A    
C17   O8    A    
C10   H7    S    
C42   C43   S    
Cu1   N1    S    
C43   H43   S    
C2    C22   S    
Cu2   O4    S    
C32   H27   S    
C36   H31   S    
C15   N2    D    
C4    C18   S    
C34   H21   S    
C28   H17   S    
C22   C41   S    
C35   H33   S    
C19   C23   S    
C13   C26   S    
C27   H16   S    
C25   H10   S    
H3    N2    S    
C17   O7    A    
C35   C36   S    
C18   H4    S    
C38   C39   S    
C42   H45   S    
C4    C6    S    
C40   H35   S    
C36   H32   S    
C15   H2    S    
Cu1   O3    S    
Cu2   N2    S    
C36   C37   S    
C14   C15   S    
Cu1   Cu2   S    
C14   C32   S    
C43   H42   S    
C12   C20   S    
C8    C21   T    
C37   H28   S    
C9    C11   S    
C9    H6    S    
C16   O6    A    
C41   H48   S    
C7    C20   T    
Cu1   O1    S    
C23   C24   S    
C2    C5    S    
C1    C13   S    
C3    C4    S    
C24   C25   S    
C1    O1    A    
C9    C10   D    
C25   H11   S    
C24   H13   S    
C31   H20   S    
C27   C28   A    
C2    C19   S    
C18   C22   S    
C3    C5    S    
C40   H37   S    
C11   H8    S    
C39   H38   S    
C26   C27   A    
Cu1   O7    S    
C32   C33   S    
C33   H25   S    
C11   C13   D    
C23   H14   S    
C30   C31   A    
Cu1   O5    S    
Cu2   O6    S    
C38   H41   S    
C32   H26   S    
C12   O4    A    
C41   C42   S    
C17   C21   S    
C16   O5    A    
C25   H9    S    
C6    H5    S    
C41   H47   S    
C33   C34   S    
C3    C38   S    
C29   H18   S    
C3    C22   S    
C10   C16   S    
C38   H40   S    
C42   H46   S    
C1    O2    A    
H1    N1    S    
