data_mof_unit_28576.cif
_audit_creation_date              2012-12-11T17:05:35-0500
_audit_creation_method            fapswitch 2.2
_symmetry_space_group_name_H-M    P1
_symmetry_Int_Tables_number       1
_space_group_crystal_system       triclinic
_cell_length_a                    7.030189
_cell_length_b                    14.656025
_cell_length_c                    15.928385
_cell_angle_alpha                 89.942583
_cell_angle_beta                  90.0382
_cell_angle_gamma                 89.918133
_cell_volume                      1641.17232139

loop_
_atom_site_label
_atom_site_type_symbol
_atom_type_description
_atom_site_fract_x
_atom_site_fract_y
_atom_site_fract_z
_atom_type_partial_charge
O1    O     O_R   0.494380 0.415640 0.412830 -0.547505
O2    O     O_R   0.823960 0.405540 0.586560 -0.546769
O3    O     O_R   0.994270 0.584360 0.587170 -0.490948
C1    C     C_R   0.655504 0.384761 0.615931 0.796195
O4    O     O_R   0.824090 0.404620 0.413450 -0.555380
O5    O     O_R   0.994400 0.583430 0.412820 -0.542488
C2    C     C_R   0.655184 0.382547 0.384712 0.697034
O6    O     O_R   0.494250 0.416570 0.587180 -0.542231
O7    O     O_3   0.660800 0.558670 0.500000 -0.335917
V1    V     V_3+5 0.935650 0.489120 0.500000 1.548524
O8    O     O_R   0.324110 0.594460 0.413440 -0.534965
C3    C     C_R   0.155023 0.616324 0.384991 0.743259
O9    O     O_R   0.323980 0.595380 0.586550 -0.504361
C4    C     C_R   0.155856 0.614077 0.617759 0.917875
V2    V     V_3+5 0.435660 0.510880 0.500000 1.605815
O10   O     O_3   0.160640 0.441330 0.500000 -0.408344
C5    C     C_3   0.072854 0.638976 0.774390 0.060316
H1    H     H_    0.184222 0.592700 0.798417 0.194334
C6    C     C_3   0.041839 0.713179 0.844937 0.528107
C7    C     C_3   0.011722 0.764564 0.662243 0.571477
C8    C     C_3   0.347355 0.722483 0.711858 0.596507
C9    C     C_3   0.145728 0.683526 0.689496 -0.315220
C10   C     C_3   0.121505 0.808727 0.812370 -0.346741
C11   C     C_3   0.022868 0.845020 0.728407 0.547587
C12   C     C_3   0.334405 0.788838 0.788216 -0.422610
H2    H     H_    0.410355 0.760029 0.843326 0.265517
H3    H     H_    0.414180 0.852569 0.775080 0.234122
C13   C     C_R   0.259070 0.748358 0.184863 0.074933
C14   C     C_R   0.117674 0.815974 0.183868 -0.222775
C15   C     C_R   0.977984 0.813163 0.248947 0.334275
C16   C     C_R   0.987950 0.745171 0.311681 -0.093173
H4    H     H_    0.882194 0.745241 0.361136 0.158146
C17   C     C_R   0.141521 0.683502 0.315828 -0.169027
C18   C     C_R   0.271609 0.684520 0.249545 -0.050119
C19   C     C_3   0.484582 0.688097 0.250207 0.171476
C20   C     C_3   0.470302 0.757711 0.178760 0.172168
H5    H     H_    0.543719 0.716648 0.309311 0.122367
H6    H     H_    0.520547 0.827543 0.194549 0.115503
C21   C     C_R   0.489400 0.259934 0.694302 0.049746
C22   C     C_R   0.646828 0.317144 0.684912 -0.178223
C23   C     C_R   0.790880 0.312197 0.746157 -0.072585
H7    H     H_    0.911027 0.357996 0.742575 0.175482
C24   C     C_R   0.773912 0.254472 0.816731 0.420974
C25   C     C_R   0.620202 0.191636 0.821860 -0.249984
C26   C     C_R   0.477026 0.198140 0.761090 0.122630
C27   C     C_3   0.275159 0.224615 0.776796 0.257417
C28   C     C_3   0.286946 0.288645 0.702591 -0.438906
H8    H     H_    0.256067 0.259896 0.837967 0.143123
H9    H     H_    0.271218 0.361607 0.720541 0.167873
H10   H     H_    0.200502 0.267538 0.647468 0.213796
C29   C     C_R   0.491372 0.314218 0.258245 0.025909
C30   C     C_R   0.645955 0.315896 0.314205 -0.082275
C31   C     C_R   0.792147 0.251600 0.300864 -0.121030
H11   H     H_    0.912661 0.248806 0.343041 0.151354
C32   C     C_R   0.777949 0.185955 0.236342 -0.039434
H12   H     H_    0.883268 0.133201 0.231441 0.195021
C33   C     C_R   0.622687 0.184042 0.181030 -0.086837
C34   C     C_R   0.479417 0.248679 0.194293 0.082644
C35   C     C_3   0.275759 0.230782 0.212934 0.627264
C36   C     C_3   0.285243 0.305233 0.279018 -0.447966
H13   H     H_    0.261417 0.280740 0.344268 0.185886
H14   H     H_    0.204328 0.367932 0.262367 0.185026
O11   O     O_R   0.771490 0.080820 0.910070 -0.515335
O12   O     O_R   0.441590 0.092730 0.083780 -0.514655
O13   O     O_R   0.271350 0.913900 0.084390 -0.531741
C37   C     C_R   0.610396 0.114370 0.112959 0.706438
O14   O     O_R   0.441780 0.091820 0.910670 -0.530237
O15   O     O_R   0.271540 0.912980 0.910040 -0.539542
C38   C     C_R   0.610804 0.117835 0.885859 0.736028
O16   O     O_R   0.771300 0.081740 0.084420 -0.546789
O17   O     O_3   0.604960 0.938700 0.997240 -0.371516
V3    V     V_3+5 0.330090 0.008230 0.997220 1.650731
O18   O     O_R   0.941820 0.901930 0.910640 -0.522793
C39   C     C_R   0.110849 0.880174 0.881871 0.919425
O19   O     O_R   0.941630 0.902840 0.083750 -0.552196
C40   C     C_R   0.110086 0.882978 0.113931 0.736223
V4    V     V_3+5 0.830090 0.986410 0.997190 1.613105
O20   O     O_3   0.105080 0.055990 0.997200 -0.348648
Cl1   Cl    Cl    0.895326 0.552577 0.765344 -0.549899
O21   O     O_3   0.063666 0.795123 0.581450 -0.582781
H15   H     H_    0.961893 0.836886 0.561295 0.373002
Cl2   Cl    Cl    0.160275 0.937536 0.684959 -0.435786
O22   O     O_3   0.838385 0.878700 0.257878 -0.644666
H16   H     H_    0.879684 0.935484 0.229700 0.302036
O23   O     O_3   0.571080 0.604891 0.227438 -0.618352
H17   H     H_    0.493279 0.575256 0.183110 0.344559
O24   O     O_3   0.537410 0.725090 0.101566 -0.579517
H18   H     H_    0.676911 0.735232 0.102320 0.337425
O25   O     O_3   0.904720 0.265263 0.880569 -0.613388
H19   H     H_    0.850652 0.241017 0.933413 0.311090
Cl3   Cl    Cl    0.118523 0.131743 0.760378 -0.516970
Cl4   Cl    Cl    0.242226 0.119101 0.256937 -0.687234
Cl5   Cl    Cl    0.128800 0.256775 0.124606 -0.633120
O26   O     O_3   0.148913 0.688024 0.916352 -0.620569
H20   H     H_    0.098718 0.628900 0.937266 0.356265
Cl6   Cl    Cl    0.798723 0.717708 0.880878 -0.582776
O27   O     O_3   0.827133 0.731086 0.655311 -0.562991
H21   H     H_    0.780467 0.723397 0.712643 0.370821
O28   O     O_3   0.842842 0.885691 0.740668 -0.583828
H22   H     H_    0.768380 0.850994 0.781868 0.315462
Cl7   Cl    Cl    0.452641 0.780617 0.623599 -0.452921
Cl8   Cl    Cl    0.498452 0.628699 0.740158 -0.548226

loop_
_geom_bond_atom_site_label_1
_geom_bond_atom_site_label_2
_ccdc_geom_bond_type
O24   H18   S    
C11   O28   S    
O18   C39   A    
O2    C1    A    
C19   C20   S    
C33   C37   S    
C1    O6    A    
O27   H21   S    
C28   H9    S    
C14   C40   S    
V4    O20   S    
C30   C31   A    
C24   O25   S    
O13   C40   A    
O22   H16   S    
C13   C14   A    
C19   H5    S    
C2    C30   S    
C18   C19   S    
O5    C3    A    
C15   C16   A    
O15   C39   A    
V2    O10   S    
C5    Cl1   S    
C36   H14   S    
O14   V3    S    
C23   H7    S    
C15   O22   S    
C11   Cl2   S    
V3    O20   S    
O8    V2    S    
C7    O27   S    
O11   C38   A    
C10   C11   S    
C16   C17   A    
O1    V2    S    
O7    V1    S    
C21   C26   A    
C8    Cl7   S    
O12   V3    S    
C13   C18   A    
C35   C36   S    
C8    C9    S    
O16   V4    S    
C23   C24   A    
C17   C18   A    
C28   H10   S    
C31   C32   A    
C20   O24   S    
C27   H8    S    
C7    O21   S    
C29   C30   A    
C1    C22   S    
C21   C22   A    
O4    C2    A    
C6    O26   S    
C27   Cl3   S    
C12   H2    S    
O23   H17   S    
C36   H13   S    
O14   C38   A    
O12   C37   A    
C6    C10   S    
O19   C40   A    
C14   C15   A    
O28   H22   S    
O15   V3    S    
C32   H12   S    
C5    H1    S    
C25   C38   S    
C29   C34   A    
O19   V4    S    
O3    C4    A    
C8    Cl8   S    
C22   C23   A    
C7    C9    S    
O6    V2    S    
C32   C33   A    
C24   C25   A    
C10   C39   S    
O2    V1    S    
O17   V4    S    
C25   C26   A    
C21   C28   S    
O11   V4    S    
C8    C12   S    
C27   C28   S    
O1    C2    A    
C16   H4    S    
O21   H15   S    
O5    V1    S    
O8    C3    A    
C31   H11   S    
C12   H3    S    
O13   V3    S    
C5    C9    S    
C4    C9    S    
O9    V2    S    
C34   C35   S    
O4    V1    S    
O3    V1    S    
V1    O10   S    
C19   O23   S    
C33   C34   A    
C37   O16   A    
C3    C17   S    
C20   H6    S    
C5    C6    S    
C35   Cl4   S    
C10   C12   S    
O7    V2    S    
O26   H20   S    
C26   C27   S    
O17   V3    S    
C13   C20   S    
O18   V4    S    
C29   C36   S    
C35   Cl5   S    
O25   H19   S    
O9    C4    A    
C7    C11   S    
C6    Cl6   S    
