data_mof_unit_21211.cif
_audit_creation_date              2012-12-10T20:00:00-0500
_audit_creation_method            fapswitch 2.2
_symmetry_space_group_name_H-M    P1
_symmetry_Int_Tables_number       1
_space_group_crystal_system       triclinic
_cell_length_a                    15.075603
_cell_length_b                    14.19535
_cell_length_c                    8.909513
_cell_angle_alpha                 89.99946
_cell_angle_beta                  90.421489
_cell_angle_gamma                 89.968232
_cell_volume                      1906.61473446

loop_
_atom_site_label
_atom_site_type_symbol
_atom_type_description
_atom_site_fract_x
_atom_site_fract_y
_atom_site_fract_z
_atom_type_partial_charge
C1    C     C_R   0.327480 0.499941 0.497820 0.914059
C2    C     C_R   0.444164 0.894352 0.402913 -0.383187
C3    C     C_R   0.499920 0.499999 0.218597 0.924528
C4    C     C_R   0.500078 0.499998 0.781403 0.928377
C5    C     C_R   0.500047 0.053072 0.500083 0.043166
C6    C     C_R   0.499963 0.946299 0.500188 0.059059
C7    C     C_1   0.499969 0.499989 0.065374 -0.115737
C8    C     C_1   0.500029 0.499988 0.934632 -0.117650
C9    C     C_R   0.095560 0.578672 0.411440 -0.277287
C10   C     C_R   0.904032 0.421672 0.411904 -0.259727
C11   C     C_R   0.908404 0.582065 0.504167 -0.281882
C12   C     C_R   0.672494 0.499948 0.497687 0.915572
C13   C     C_R   0.091054 0.419397 0.508425 -0.262188
C14   C     C_R   0.186500 0.581451 0.433557 0.426919
C15   C     C_R   0.813504 0.417889 0.435364 0.424835
C16   C     C_R   0.816809 0.583564 0.513595 0.425574
C17   C     C_R   0.182651 0.416820 0.516853 0.424736
C18   C     C_R   0.231255 0.499555 0.483865 -0.274288
C19   C     C_R   0.768630 0.500013 0.484402 -0.275391
C20   C     C_R   0.047720 0.499115 0.453123 0.037287
C21   C     C_R   0.951796 0.501804 0.452393 0.037981
C22   C     C_3   0.220040 0.729992 0.518042 0.167140
C23   C     C_R   0.471110 0.204029 0.376503 0.637788
C24   C     C_3   0.188531 0.823893 0.452719 -0.343769
C25   C     C_3   0.183053 0.899450 0.574216 -0.975779
C26   C     C_3   0.765844 0.275881 0.527034 0.185868
C27   C     C_3   0.840973 0.203172 0.525155 -0.425078
C28   C     C_3   0.830924 0.132262 0.652745 -0.924055
C29   C     C_3   0.773911 0.732820 0.445829 0.158524
C30   C     C_3   0.796470 0.829811 0.510028 -0.338814
C31   C     C_3   0.783614 0.906835 0.392278 -0.969572
C32   C     C_3   0.240844 0.272679 0.455166 0.189379
C33   C     C_3   0.165594 0.201269 0.433941 -0.431209
C34   C     C_R   0.553851 0.795261 0.596971 0.654357
C35   C     C_3   0.191615 0.124903 0.321868 -0.917289
C36   C     C_R   0.529142 0.204049 0.623375 0.637939
C37   C     C_R   0.446345 0.795424 0.402807 0.652734
C38   C     C_R   0.471599 0.105080 0.373815 -0.363845
C39   C     C_R   0.555798 0.894219 0.597343 -0.381585
C40   C     C_R   0.528624 0.105099 0.626203 -0.362237
F1    F     F_    0.440170 0.250993 0.254676 -0.643223
F2    F     F_    0.606691 0.746882 0.693520 -0.622986
F3    F     F_    0.560283 0.251044 0.744993 -0.639163
F4    F     F_    0.394378 0.747279 0.304790 -0.618123
H1    H     H_    0.062147 0.640371 0.366975 0.156328
H2    H     H_    0.172542 0.707733 0.607209 0.093768
H3    H     H_    0.235168 0.847618 0.364414 0.259790
H4    H     H_    0.121924 0.814411 0.400608 0.209618
H5    H     H_    0.138014 0.876551 0.665337 0.268464
H6    H     H_    0.156485 0.965580 0.525208 0.276081
H7    H     H_    0.250005 0.913704 0.621990 0.275301
H8    H     H_    0.701927 0.237301 0.521465 0.179879
H9    H     H_    0.766041 0.314971 0.635962 0.139472
H10   H     H_    0.840213 0.165070 0.416154 0.240937
H11   H     H_    0.905970 0.238994 0.538430 0.211612
H12   H     H_    0.937569 0.360664 0.366248 0.155690
H13   H     H_    0.834118 0.168792 0.762929 0.278062
H14   H     H_    0.885528 0.079832 0.647908 0.264483
H15   H     H_    0.766564 0.094564 0.642779 0.267730
H16   H     H_    0.705804 0.734681 0.397334 0.170232
H17   H     H_    0.820570 0.718084 0.351681 0.097418
H18   H     H_    0.753427 0.845132 0.607674 0.264003
H19   H     H_    0.866628 0.830040 0.549307 0.211186
H20   H     H_    0.825993 0.892971 0.293227 0.269363
H21   H     H_    0.802536 0.975992 0.440561 0.276552
H22   H     H_    0.713012 0.910205 0.355990 0.275796
H23   H     H_    0.945291 0.643889 0.539136 0.157103
H24   H     H_    0.301608 0.233276 0.487520 0.174886
H25   H     H_    0.255663 0.308357 0.346395 0.154213
H26   H     H_    0.149830 0.167926 0.543412 0.241564
H27   H     H_    0.105286 0.237358 0.390760 0.213162
H28   H     H_    0.207965 0.156899 0.211714 0.282707
H29   H     H_    0.135384 0.075382 0.305574 0.262685
H30   H     H_    0.249975 0.084765 0.364115 0.267714
H31   H     H_    0.053688 0.359366 0.548324 0.154672
H32   H     H_    0.450377 0.070302 0.271824 0.192676
H33   H     H_    0.601918 0.928933 0.672455 0.180543
H34   H     H_    0.549896 0.070332 0.728198 0.192340
H35   H     H_    0.398101 0.929133 0.327700 0.179753
H36   H     H_    0.285360 0.740663 0.574052 0.171143
N1    N     N_R   0.500000 0.252470 0.500000 -0.201020
N2    N     N_R   0.500000 0.747530 0.500000 -0.204639
O1    O     O_R   0.369060 0.579480 0.500010 -0.572257
O2    O     O_3   0.769166 0.335438 0.399346 -0.622489
O3    O     O_3   0.775904 0.665088 0.562975 -0.575937
O4    O     O_3   0.222767 0.336448 0.573610 -0.626902
O5    O     O_R   0.630940 0.420520 0.499990 -0.598913
O6    O     O_R   0.630940 0.579480 0.499990 -0.570004
O7    O     O_R   0.369060 0.420520 0.500010 -0.604326
O8    O     O_R   0.500000 0.579460 0.285340 -0.589344
O9    O     O_R   0.500000 0.420540 0.714660 -0.552085
O10   O     O_R   0.500000 0.579460 0.714660 -0.588315
O11   O     O_R   0.500000 0.420540 0.285340 -0.551855
O12   O     O_3   0.231211 0.663823 0.400189 -0.566982
Zn1   Zn    Zn3+2 0.500000 0.606140 0.500000 1.055682
Zn2   Zn    Zn3+2 0.500000 0.393860 0.500000 1.060702

loop_
_geom_bond_atom_site_label_1
_geom_bond_atom_site_label_2
_ccdc_geom_bond_type
C31   H22   S    
C35   H30   S    
C9    H1    S    
C14   C18   A    
C34   F2    S    
C4    C8    S    
C27   H10   S    
O8    Zn1   S    
C38   H32   S    
C28   H13   S    
C15   C19   A    
C26   C27   S    
C3    O8    A    
C39   H33   S    
C3    C7    S    
C10   C15   A    
C30   C31   S    
C27   H11   S    
C25   H6    S    
C2    H35   S    
O9    Zn2   S    
C13   H31   S    
C1    O7    A    
C10   H12   S    
C29   O3    S    
C12   O5    A    
C32   H24   S    
C4    O9    A    
O6    Zn1   S    
C32   O4    S    
C30   H19   S    
C22   O12   S    
C2    C6    A    
C11   H23   S    
C10   C21   A    
C29   H17   S    
C12   O6    A    
C17   O4    S    
C24   H4    S    
C7    C8    T    
C24   C25   S    
N1    Zn2   S    
C11   C21   A    
O10   Zn1   S    
C34   C39   A    
C9    C14   A    
C25   H7    S    
C29   C30   S    
C26   H8    S    
C11   C16   A    
C9    C20   A    
C29   H16   S    
C36   C40   A    
C36   N1    A    
O1    Zn1   S    
O5    Zn2   S    
C17   C18   A    
C1    C18   S    
C3    O11   A    
C32   H25   S    
C33   H26   S    
C22   H2    S    
C35   H28   S    
O11   Zn2   S    
C30   H18   S    
C16   O3    S    
C40   H34   S    
C37   N2    A    
C26   H9    S    
C28   H15   S    
C31   H21   S    
C35   H29   S    
C26   O2    S    
N2    Zn1   S    
C23   N1    A    
C13   C20   A    
C24   H3    S    
C31   H20   S    
C15   O2    S    
C28   H14   S    
C1    O1    A    
C23   C38   A    
C23   F1    S    
C13   C17   A    
C32   C33   S    
C37   F4    S    
C22   H36   S    
C2    C37   A    
C5    C6    S    
O7    Zn2   S    
C16   C19   A    
C12   C19   S    
C33   C35   S    
C22   C24   S    
C25   H5    S    
C33   H27   S    
C20   C21   S    
C5    C40   A    
C27   C28   S    
C6    C39   A    
C36   F3    S    
C34   N2    A    
C5    C38   A    
C14   O12   S    
C4    O10   A    
