data_mof_unit_17415.cif
_audit_creation_date              2012-12-10T17:50:15-0500
_audit_creation_method            fapswitch 2.2
_symmetry_space_group_name_H-M    P1
_symmetry_Int_Tables_number       1
_space_group_crystal_system       triclinic
_cell_length_a                    10.671549
_cell_length_b                    14.906801
_cell_length_c                    14.730253
_cell_angle_alpha                 64.031649
_cell_angle_beta                  105.228488
_cell_angle_gamma                 102.924131
_cell_volume                      2016.70369346

loop_
_atom_site_label
_atom_site_type_symbol
_atom_type_description
_atom_site_fract_x
_atom_site_fract_y
_atom_site_fract_z
_atom_type_partial_charge
C1    C     C_R   0.482460 0.119757 0.311120 0.821827
C2    C     C_R   0.518978 0.880159 0.688542 0.820830
C3    C     C_R   0.480814 0.290776 0.170047 -0.246479
C4    C     C_R   0.502568 0.708280 0.825464 -0.161181
C5    C     C_R   0.443999 0.357944 0.067324 -0.004110
C6    C     C_R   0.466878 0.636947 0.918824 0.033758
C7    C     C_R   0.421462 0.322439 0.988660 0.118266
C8    C     C_R   0.466114 0.671054 0.995032 0.031530
C9    C     C_R   0.435968 0.461068 0.041602 -0.039518
C10   C     C_R   0.437639 0.531938 0.939143 0.024450
C11   C     C_R   0.399599 0.495215 0.860223 0.073527
C12   C     C_R   0.416934 0.495497 0.112578 0.122039
C13   C     C_R   0.392400 0.391490 0.884753 0.118182
C14   C     C_R   0.433798 0.598854 0.089962 0.139572
C15   C     C_R   0.757332 0.311196 0.620951 -0.281104
C16   C     C_R   0.261172 0.707396 0.346031 -0.287259
C17   C     C_R   0.708898 0.219198 0.615542 0.347673
C18   C     C_R   0.300932 0.790365 0.369467 0.342521
C19   C     C_R   0.504634 0.278368 0.519701 0.266487
C20   C     C_R   0.490341 0.718164 0.486047 0.283369
C21   C     C_R   0.551991 0.376880 0.520834 -0.068028
C22   C     C_R   0.456939 0.633517 0.457263 -0.065155
C23   C     C_R   0.260673 0.998080 0.503243 0.857472
C24   C     C_R   0.739325 0.001163 0.497862 0.854604
C25   C     C_R   0.682331 0.390146 0.572412 0.081620
C26   C     C_R   0.335531 0.628679 0.390892 0.082617
C27   C     C_R   0.478625 0.462202 0.475655 0.079167
C28   C     C_R   0.534132 0.552509 0.492372 0.075153
C29   C     C_R   0.668117 0.562563 0.533967 -0.226976
C30   C     C_R   0.356239 0.464559 0.409123 -0.243648
C31   C     C_R   0.739653 0.482643 0.575201 -0.161869
C32   C     C_R   0.286639 0.545026 0.368669 -0.175632
C33   C     C_3   0.021773 0.031138 0.404496 -0.328969
C34   C     C_3   0.977370 0.966390 0.597961 -0.336644
C35   C     C_3   0.971015 0.093339 0.445719 0.011264
C36   C     C_3   0.028592 0.904451 0.556905 0.015332
C37   C     C_3   0.875297 0.001245 0.497205 -0.087202
C38   C     C_3   0.124354 0.996653 0.505332 -0.085333
C39   C     C_3   0.926385 0.939327 0.457770 0.151540
C40   C     C_3   0.072788 0.058014 0.545084 0.161360
C41   C     C_R   0.471955 0.187224 0.199204 -0.141739
C42   C     C_R   0.513567 0.811910 0.797737 -0.191188
C43   C     C_R   0.427307 0.218714 0.016415 0.116551
C44   C     C_R   0.492842 0.776753 0.971616 0.116726
C45   C     C_R   0.449696 0.151073 0.121241 -0.070887
C46   C     C_R   0.510024 0.846273 0.872269 -0.018251
Cu1   Cu    Cu3+1 0.465750 0.918270 0.475680 0.996626
Cu2   Cu    Cu3+1 0.534250 0.081730 0.524320 0.990817
H1    H     H_    0.855909 0.321064 0.662855 0.159110
H2    H     H_    0.168936 0.703755 0.293763 0.165881
H3    H     H_    0.722674 0.633266 0.530624 0.177438
H4    H     H_    0.312440 0.409965 0.378519 0.181522
H5    H     H_    0.040048 0.056070 0.325666 0.162816
H6    H     H_    0.958910 0.941435 0.676744 0.163173
H7    H     H_    0.524150 0.683936 0.772880 0.199517
H8    H     H_    0.518892 0.318905 0.229090 0.179001
H9    H     H_    0.842060 0.493776 0.609235 0.156505
H10   H     H_    0.193437 0.542258 0.317192 0.158224
N1    N     N_R   0.585750 0.204560 0.560800 -0.175920
N2    N     N_R   0.414250 0.795440 0.439200 -0.176602
O1    O     O_R   0.454850 0.022100 0.338110 -0.589876
O2    O     O_R   0.545150 0.977900 0.661890 -0.594882
O3    O     O_R   0.512700 0.160150 0.379180 -0.568410
O4    O     O_R   0.487300 0.839850 0.620820 -0.524334
O5    O     O_R   0.287930 0.931000 0.479440 -0.591381
O6    O     O_R   0.712070 0.069000 0.520560 -0.587325
O7    O     O_R   0.345780 0.069050 0.520520 -0.524900
O8    O     O_R   0.654220 0.930950 0.479480 -0.555674
C47   C     C_2   0.945393 0.200479 0.382940 0.838362
O9    O     O_2   0.036009 0.265166 0.353038 -0.605087
O10   O     O_R   0.818740 0.225895 0.357747 -0.759780
H11   H     H_    0.814321 0.300390 0.314911 0.328506
C48   C     C_2   0.056220 0.798165 0.621006 0.829340
O11   O     O_2   0.966100 0.732135 0.649049 -0.609927
O12   O     O_R   0.184603 0.775364 0.650630 -0.751902
H12   H     H_    0.190601 0.701793 0.696730 0.345938
N3    N     N_3   0.588126 0.718011 0.573919 -0.543841
H13   H     H_    0.592600 0.645572 0.631810 0.194904
H14   H     H_    0.678613 0.751114 0.552491 0.260820
N4    N     N_3   0.370572 0.249753 0.485980 -0.510090
H15   H     H_    0.309633 0.272932 0.514486 0.247660
H16   H     H_    0.349546 0.268305 0.406962 0.222607
N5    N     N_3   0.211461 0.863651 0.325061 -0.582844
H17   H     H_    0.258049 0.936667 0.297559 0.270704
H18   H     H_    0.153192 0.851056 0.377380 0.231032
N6    N     N_3   0.793140 0.142143 0.670114 -0.586302
H19   H     H_    0.740950 0.070850 0.692623 0.270227
H20   H     H_    0.858275 0.150614 0.624151 0.222880
N7    N     N_3   0.844537 0.873462 0.409955 -0.567770
H21   H     H_    0.906824 0.842316 0.390629 0.212238
H22   H     H_    0.789963 0.918700 0.340941 0.266012
N8    N     N_3   0.152793 0.121839 0.595690 -0.546416
H23   H     H_    0.204851 0.075286 0.665273 0.271626
H24   H     H_    0.089478 0.153045 0.613966 0.206043
N9    N     N_3   0.353996 0.356718 0.803342 -0.546493
H25   H     H_    0.259903 0.374008 0.763724 0.218208
H26   H     H_    0.419855 0.392158 0.752738 0.227677
N10   N     N_3   0.411372 0.629437 0.163333 -0.617146
H27   H     H_    0.313782 0.605679 0.171876 0.255369
H28   H     H_    0.473259 0.595781 0.233562 0.245039
C49   C     C_2   0.521476 0.954745 0.848845 0.912968
O13   O     O_2   0.430444 0.002506 0.794269 -0.599221
O14   O     O_R   0.635079 0.001226 0.891629 -0.741323
H29   H     H_    0.631395 0.075307 0.870140 0.331155
C50   C     C_2   0.459043 0.044540 0.147019 0.855182
O15   O     O_2   0.562084 0.009832 0.193785 -0.585783
O16   O     O_R   0.350343 0.984298 0.117487 -0.772821
H30   H     H_    0.368173 0.912665 0.141361 0.335719
N11   N     N_3   0.415620 0.182553 0.938331 -0.533642
H31   H     H_    0.499150 0.149529 0.951905 0.230966
H32   H     H_    0.333221 0.128811 0.941276 0.269456
N12   N     N_3   0.501592 0.817196 0.045822 -0.553839
H33   H     H_    0.570881 0.783858 0.111215 0.258071
H34   H     H_    0.409350 0.807411 0.063160 0.248993
N13   N     N_3   0.350362 0.560796 0.756556 -0.600921
H35   H     H_    0.251452 0.536315 0.736656 0.222039
H36   H     H_    0.401710 0.557897 0.706730 0.217808
N14   N     N_3   0.357470 0.429705 0.199927 -0.611248
H37   H     H_    0.299948 0.366900 0.189896 0.248365
H38   H     H_    0.430262 0.409670 0.265847 0.202893

loop_
_geom_bond_atom_site_label_1
_geom_bond_atom_site_label_2
_ccdc_geom_bond_type
C25   C31   A    
C38   C40   S    
C26   C32   A    
C49   O13   D    
C34   C37   S    
C48   O11   D    
N9    H25   S    
C32   H10   S    
N12   H34   S    
N3    H13   S    
C50   O16   S    
C33   C39   S    
C20   N3    S    
C13   N9    S    
C34   C40   S    
C28   C29   A    
C35   C37   S    
C16   H2    S    
N11   H32   S    
N6    H20   S    
C15   C25   A    
N13   H35   S    
C42   C46   A    
C23   O7    A    
C47   O10   S    
N14   H37   S    
C21   C25   A    
Cu1   N2    S    
N5    H17   S    
C45   C50   S    
N13   H36   S    
O16   H30   S    
C7    C43   A    
C20   N2    A    
C11   N13   S    
C9    C10   A    
C24   O6    A    
C21   C27   A    
C49   O14   S    
C22   C28   A    
C27   C30   A    
C33   H5    S    
C48   O12   S    
C47   O9    D    
C1    O3    A    
N12   H33   S    
C2    O4    A    
C14   N10   S    
N3    H14   S    
C16   C26   A    
C46   C49   S    
C17   N6    S    
Cu1   O1    S    
C4    C6    A    
C10   C11   A    
Cu1   O4    S    
C5    C7    A    
N6    H19   S    
Cu2   O3    S    
C6    C8    A    
C44   C46   A    
C19   N1    A    
O12   H12   S    
C5    C9    A    
C3    H8    S    
Cu2   O2    S    
Cu1   Cu2   S    
N8    H24   S    
C18   N5    S    
C16   C18   A    
C40   N8    S    
C43   C45   A    
C17   N1    A    
C12   N14   S    
C44   N12   S    
C18   N2    A    
N5    H18   S    
C12   C14   A    
C34   H6    S    
N10   H28   S    
C4    H7    S    
N7    H22   S    
Cu1   O8    S    
O14   H29   S    
Cu2   N1    S    
C29   H3    S    
C1    C41   S    
C24   C37   S    
C15   C17   A    
C30   H4    S    
C3    C41   A    
C8    C14   A    
C19   C21   A    
C36   C39   S    
C8    C44   A    
C20   C22   A    
N4    H15   S    
C3    C5    A    
C1    O1    A    
C6    C10   A    
N9    H26   S    
C23   C38   S    
C50   O15   D    
C33   C38   S    
C23   O5    A    
C36   C38   S    
C35   C40   S    
O10   H11   S    
C37   C39   S    
N11   H31   S    
C30   C32   A    
C11   C13   A    
C31   H9    S    
C4    C42   A    
C2    C42   S    
N8    H23   S    
C33   C35   S    
N4    H16   S    
Cu1   O5    S    
C34   C36   S    
C15   H1    S    
Cu2   O7    S    
C19   N4    S    
C9    C12   A    
N14   H38   S    
C36   C48   S    
C24   O8    A    
C7    C13   A    
C35   C47   S    
C29   C31   A    
N10   H27   S    
C22   C26   A    
C27   C28   A    
C41   C45   A    
C43   N11   S    
Cu2   O6    S    
N7    H21   S    
C39   N7    S    
C2    O2    A    
