data_mof_unit_57282.cif
_audit_creation_date              2012-12-11T16:24:12-0500
_audit_creation_method            fapswitch 2.2
_symmetry_space_group_name_H-M    P1
_symmetry_Int_Tables_number       1
_space_group_crystal_system       triclinic
_cell_length_a                    14.690449
_cell_length_b                    14.732076
_cell_length_c                    33.22946
_cell_angle_alpha                 95.950043
_cell_angle_beta                  95.970336
_cell_angle_gamma                 61.267775
_cell_volume                      6260.00600457

loop_
_atom_site_label
_atom_site_type_symbol
_atom_type_description
_atom_site_fract_x
_atom_site_fract_y
_atom_site_fract_z
_atom_type_partial_charge
C1    C     C_R   0.390539 0.700808 0.446179 0.538804
C2    C     C_R   0.342280 0.359545 0.306431 0.020164
C3    C     C_R   0.435487 0.286152 0.324873 0.279145
C4    C     C_R   0.448651 0.288542 0.367319 -0.132840
C5    C     C_R   0.404755 0.269080 0.162614 0.021173
C6    C     C_R   0.390603 0.245227 0.121390 -0.196975
C7    C     C_R   0.222351 0.399061 0.117554 0.233080
C8    C     C_R   0.230412 0.419630 0.159952 0.048437
C9    C     C_R   0.320711 0.351368 0.182712 -0.057595
C10   C     C_1   0.325124 0.359901 0.226514 0.096914
C11   C     C_1   0.330756 0.361845 0.262981 0.098005
C12   C     C_R   0.405282 0.385927 0.433950 0.564639
C13   C     C_R   0.296869 0.304270 0.099415 -0.032150
C14   C     C_R   0.767454 0.368026 0.411839 -0.023065
C15   C     C_R   0.784498 0.436976 0.390561 0.013118
C16   C     C_R   0.793820 0.419154 0.348106 0.028498
C17   C     C_R   0.800768 0.326276 0.328932 -0.038228
C18   C     C_R   0.807927 0.249005 0.351984 -0.171399
C19   C     C_R   0.791964 0.268233 0.393460 0.008299
C20   C     C_R   0.823830 0.291545 0.203965 0.409320
C21   C     C_R   0.804835 0.307659 0.284841 0.345985
C22   C     C_R   0.819358 0.382601 0.142735 0.006439
C23   C     C_R   0.704526 0.408247 0.448314 0.586268
C24   C     C_R   0.856021 0.375871 0.104185 0.232572
C25   C     C_R   0.920060 0.189617 0.099753 -0.171637
C26   C     C_R   0.891620 0.193994 0.139056 0.239469
C27   C     C_R   0.841817 0.290397 0.160958 -0.017085
C28   C     C_R   0.908421 0.278332 0.082917 -0.034641
C29   C     C_R   0.370341 0.754960 0.408334 -0.087589
C30   C     C_R   0.271805 0.792560 0.386641 -0.056761
C31   C     C_R   0.265705 0.799229 0.344272 0.247087
C32   C     C_R   0.353196 0.786064 0.325092 -0.032059
C33   C     C_R   0.445434 0.765037 0.348298 -0.125637
C34   C     C_R   0.392831 0.701647 0.561193 0.546235
C35   C     C_R   0.454650 0.750186 0.389504 0.234847
C36   C     C_R   0.344122 0.811643 0.200415 0.334532
C37   C     C_R   0.349829 0.794781 0.281078 0.337099
C38   C     C_R   0.262595 0.818154 0.131877 -0.206543
C39   C     C_R   0.246269 0.843476 0.091551 -0.016207
C40   C     C_R   0.392438 0.880802 0.100827 0.266787
C41   C     C_R   0.407811 0.855566 0.141770 0.299646
C42   C     C_R   0.339441 0.827919 0.157400 -0.023739
C43   C     C_R   0.303689 0.887188 0.077341 -0.025531
C44   C     C_R   0.361816 0.362610 0.581599 -0.031726
C45   C     C_R   0.405302 0.387274 0.548190 0.568849
C46   C     C_R   0.266048 0.438816 0.597148 0.225673
C47   C     C_R   0.239565 0.430576 0.635753 0.061305
C48   C     C_R   0.309570 0.345553 0.658680 -0.054784
C49   C     C_R   0.394631 0.263074 0.640192 -0.148054
C50   C     C_R   0.419423 0.268621 0.601440 -0.001886
C51   C     C_R   0.302614 0.339517 0.783981 0.350265
C52   C     C_R   0.301618 0.343579 0.702572 0.369692
C53   C     C_R   0.209296 0.400957 0.848160 0.270169
C54   C     C_R   0.205259 0.387735 0.889108 0.214910
C55   C     C_R   0.382752 0.245140 0.889061 0.208449
C56   C     C_R   0.702311 0.413309 0.562429 0.556824
C57   C     C_R   0.386798 0.260757 0.848748 -0.175283
C58   C     C_R   0.300007 0.335843 0.827775 -0.057775
C59   C     C_R   0.288449 0.302713 0.908581 -0.036017
C60   C     C_R   0.760171 0.379344 0.601755 -0.007234
C61   C     C_R   0.787418 0.446326 0.626901 -0.113543
C62   C     C_R   0.822552 0.425048 0.667040 -0.110255
C63   C     C_R   0.832494 0.335995 0.682622 0.010776
C64   C     C_R   0.814001 0.262862 0.656940 0.053725
C65   C     C_R   0.776886 0.286302 0.616566 -0.119525
C66   C     C_R   0.932882 0.212174 0.818344 0.263975
C67   C     C_R   0.372139 0.366312 0.391544 -0.037005
C68   C     C_R   0.947482 0.196074 0.859834 0.246409
C69   C     C_R   0.859585 0.382507 0.874806 -0.186376
C70   C     C_R   0.833823 0.399518 0.833289 -0.023090
C71   C     C_R   0.873765 0.312879 0.804947 -0.043292
C72   C     C_1   0.859910 0.323502 0.761911 0.108065
C73   C     C_1   0.849098 0.328709 0.725748 0.084511
C74   C     C_R   0.917864 0.281868 0.888332 -0.051657
C75   C     C_R   0.374188 0.751079 0.602528 -0.032008
C76   C     C_R   0.289695 0.758916 0.621576 -0.109389
C77   C     C_R   0.284647 0.775476 0.663396 0.037109
C78   C     C_R   0.274246 0.434208 0.372682 0.020563
C79   C     C_R   0.360734 0.793571 0.686719 -0.016467
C80   C     C_R   0.442766 0.793722 0.667616 0.038550
C81   C     C_R   0.448728 0.771365 0.625445 -0.131909
C82   C     C_R   0.393273 0.881489 0.832431 0.228067
C83   C     C_R   0.385744 0.896500 0.874761 -0.010507
C84   C     C_R   0.240382 0.857994 0.867750 0.237437
C85   C     C_R   0.249732 0.840147 0.825706 0.028438
C86   C     C_R   0.325250 0.853706 0.808118 -0.074064
C87   C     C_1   0.338835 0.832776 0.765369 0.104166
C88   C     C_1   0.350363 0.815247 0.729661 0.101283
C89   C     C_R   0.261553 0.431198 0.330065 -0.174412
C90   C     C_R   0.299682 0.898711 0.891529 -0.069734
C91   C     C_R   0.963492 0.263939 0.045881 0.562290
C92   C     C_R   0.273874 0.261539 0.059463 0.535990
C93   C     C_R   0.261522 0.954944 0.042465 0.568918
C94   C     C_R   0.963560 0.267106 0.930463 0.563551
C95   C     C_R   0.270984 0.264241 0.945108 0.554993
C96   C     C_R   0.258981 0.960530 0.930001 0.582804
Cr1   Cr    Cr6+3 0.576280 0.580550 0.506370 1.070739
Cr2   Cr    Cr6+3 0.346780 0.572400 0.496520 1.111728
Cr3   Cr    Cr6+3 0.576960 0.347070 0.497150 1.093093
Cr4   Cr    Cr6+3 0.087320 0.083240 0.984860 1.068907
Cr5   Cr    Cr6+3 0.087720 0.316210 0.996740 1.073001
Cr6   Cr    Cr6+3 0.317350 0.090340 0.995890 1.071764
H1    H     H_    0.452597 0.178812 0.106444 0.165376
H2    H     H_    0.823250 0.174319 0.337193 0.164988
H3    H     H_    0.956521 0.114909 0.083141 0.162201
H4    H     H_    0.512377 0.757359 0.334282 0.201406
H5    H     H_    0.215581 0.789551 0.143620 0.185796
H6    H     H_    0.444184 0.194244 0.656528 0.199876
H7    H     H_    0.457538 0.211481 0.833405 0.165309
H8    H     H_    0.757884 0.233441 0.596974 0.176747
H9    H     H_    0.775874 0.518452 0.616328 0.157837
H10   H     H_    0.835656 0.448080 0.896867 0.196913
H11   H     H_    0.521416 0.232307 0.381317 0.162962
H12   H     H_    0.837073 0.481022 0.686561 0.157573
H13   H     H_    0.514459 0.764495 0.610759 0.167471
H14   H     H_    0.232103 0.741938 0.604448 0.199937
H15   H     H_    0.188419 0.484560 0.315138 0.166390
N1    N     N_R   0.734937 0.365051 0.220358 -0.160260
N2    N     N_R   0.257686 0.433112 0.726209 -0.164311
N3    N     N_R   0.347569 0.252046 0.720634 -0.225575
N4    N     N_R   0.347886 0.250034 0.760548 -0.262285
N5    N     N_R   0.725897 0.373396 0.260177 -0.187418
N6    N     N_R   0.891944 0.231568 0.268388 -0.176009
N7    N     N_R   0.901272 0.223909 0.228638 -0.174995
N8    N     N_R   0.255208 0.857317 0.220267 -0.259473
N9    N     N_R   0.258054 0.849245 0.259862 -0.153234
N10   N     N_R   0.438853 0.748403 0.261060 -0.214885
N11   N     N_R   0.436160 0.756783 0.221416 -0.138201
N12   N     N_R   0.257176 0.431184 0.766124 -0.127142
O1    O     O_R   0.679450 0.499830 0.463150 -0.460323
O2    O     O_R   0.356040 0.477400 0.534170 -0.451200
O3    O     O_R   0.495910 0.323070 0.537100 -0.476457
O4    O     O_R   0.663920 0.359620 0.542290 -0.491196
O5    O     O_3   0.500010 0.500010 0.500010 -0.281608
O6    O     O_R   0.170070 0.978950 0.027680 -0.494194
O7    O     O_R   0.001760 0.175230 0.026640 -0.523011
O8    O     O_R   0.984760 0.333570 0.037150 -0.464828
O9    O     O_R   0.183410 0.309240 0.041890 -0.461937
O10   O     O_R   0.340240 0.172500 0.045430 -0.548107
O11   O     O_R   0.309670 0.000990 0.032050 -0.466981
O12   O     O_R   0.480650 0.664000 0.464630 -0.452041
O13   O     O_R   0.168330 0.982130 0.939200 -0.434752
O14   O     O_R   0.000140 0.178170 0.944610 -0.460641
O15   O     O_R   0.983010 0.336750 0.948660 -0.489736
O16   O     O_R   0.181800 0.312190 0.959860 -0.466047
O17   O     O_R   0.338500 0.175680 0.956950 -0.458744
O18   O     O_R   0.308050 0.003930 0.950020 -0.475941
O19   O     O_3   0.164130 0.163270 0.992500 -0.279495
O20   O     O_R   0.323930 0.675950 0.455370 -0.489834
O21   O     O_R   0.354700 0.475360 0.451930 -0.467872
O22   O     O_R   0.494470 0.320860 0.448390 -0.508566
O23   O     O_R   0.662580 0.357570 0.460050 -0.480275
O24   O     O_R   0.680900 0.502040 0.551870 -0.512077
O25   O     O_R   0.481990 0.666040 0.546870 -0.508703
O26   O     O_R   0.325370 0.678160 0.544080 -0.486535
C97   C     C_2   0.805720 0.181686 0.417091 0.617336
O27   O     O_2   0.788548 0.112694 0.400709 -0.508364
O28   O     O_R   0.842317 0.176868 0.457813 -0.654624
H16   H     H_    0.849272 0.114008 0.470535 0.353033
O29   O     O_3   0.839729 0.464553 0.086868 -0.525032
C98   C     C_3   0.911924 0.496564 0.105018 -0.005515
H17   H     H_    0.989880 0.430372 0.112629 0.147628
H18   H     H_    0.881576 0.547962 0.132623 0.161098
H19   H     H_    0.922670 0.542465 0.083304 0.185212
C99   C     C_2   0.801485 0.493634 0.323625 0.638609
O30   O     O_2   0.728582 0.581129 0.320701 -0.454767
O31   O     O_R   0.890664 0.461882 0.302656 -0.646599
H20   H     H_    0.886461 0.518882 0.286651 0.362086
C100  C     C_2   0.763378 0.486067 0.164202 0.606972
O32   O     O_2   0.686899 0.555149 0.147460 -0.424673
O33   O     O_R   0.800268 0.505629 0.202858 -0.678984
H21   H     H_    0.755824 0.579175 0.214164 0.364909
O34   O     O_3   0.906341 0.104917 0.155644 -0.531750
C101  C     C_3   0.013813 0.035523 0.160777 -0.062718
H22   H     H_    0.058121 0.074458 0.176117 0.127488
H23   H     H_    0.046494 0.996985 0.131339 0.141961
H24   H     H_    0.024655 0.973957 0.180298 0.191335
C102  C     C_2   0.174829 0.826926 0.408047 0.667982
O35   O     O_2   0.106735 0.806907 0.392890 -0.377298
O36   O     O_R   0.159349 0.883556 0.445500 -0.629930
H25   H     H_    0.216290 0.902701 0.454518 0.291660
O37   O     O_3   0.550193 0.721439 0.410081 -0.501078
C103  C     C_3   0.551246 0.811894 0.428087 -0.040271
H26   H     H_    0.489254 0.853423 0.449934 0.103518
H27   H     H_    0.543385 0.864573 0.404702 0.132392
H28   H     H_    0.627117 0.789234 0.445309 0.174530
C104  C     C_2   0.172583 0.818211 0.064983 0.588979
O38   O     O_2   0.188848 0.790689 0.029260 -0.518957
O39   O     O_R   0.087335 0.820693 0.081295 -0.712214
H29   H     H_    0.044153 0.799978 0.060405 0.337778
C105  C     C_2   0.507569 0.204974 0.183815 0.596840
O40   O     O_2   0.537879 0.241528 0.213554 -0.486322
O41   O     O_R   0.571863 0.103749 0.168766 -0.737643
H30   H     H_    0.640058 0.068439 0.185545 0.357482
O42   O     O_3   0.173445 0.820461 0.321956 -0.504534
C106  C     C_3   0.177886 0.725391 0.306548 -0.039434
H31   H     H_    0.192841 0.673142 0.331135 0.153232
H32   H     H_    0.238103 0.684790 0.284028 0.116171
H33   H     H_    0.101661 0.741683 0.290830 0.176521
O43   O     O_3   0.469328 0.885780 0.081652 -0.518115
C107  C     C_3   0.480395 0.973261 0.096510 -0.025709
H34   H     H_    0.406162 0.040468 0.106159 0.096952
H35   H     H_    0.507220 0.998031 0.071813 0.155417
H36   H     H_    0.541883 0.952383 0.121458 0.194631
O44   O     O_3   0.491428 0.854707 0.165561 -0.516854
C108  C     C_3   0.456773 0.947135 0.190871 -0.093076
H37   H     H_    0.423227 0.941398 0.218273 0.152894
H38   H     H_    0.399131 0.017386 0.175095 0.081566
H39   H     H_    0.524846 0.958719 0.201362 0.184854
O45   O     O_3   0.199569 0.524172 0.575440 -0.509442
C109  C     C_3   0.137399 0.496020 0.547235 -0.058831
H40   H     H_    0.089528 0.471896 0.562733 0.125936
H41   H     H_    0.185359 0.433437 0.524913 0.134904
H42   H     H_    0.083266 0.564631 0.530106 0.154135
C110  C     C_2   0.505099 0.173916 0.583012 0.606768
O46   O     O_2   0.496390 0.147411 0.547318 -0.492866
O47   O     O_R   0.593677 0.112086 0.607029 -0.644874
H43   H     H_    0.645991 0.048952 0.591197 0.361462
O48   O     O_3   0.114410 0.451449 0.908136 -0.521958
C111  C     C_3   0.124334 0.535294 0.928536 -0.068619
H44   H     H_    0.134318 0.582184 0.906879 0.144117
H45   H     H_    0.189907 0.508279 0.952140 0.085356
H46   H     H_    0.051903 0.586603 0.944077 0.149728
C112  C     C_2   0.137172 0.509185 0.650780 0.609853
O49   O     O_2   0.087300 0.482308 0.669322 -0.518314
O50   O     O_R   0.096403 0.613455 0.642872 -0.615559
H47   H     H_    0.026075 0.658949 0.654441 0.355959
O51   O     O_3   0.510931 0.209984 0.300884 -0.534316
C113  C     C_3   0.604396 0.215926 0.307714 -0.068062
H48   H     H_    0.645942 0.181698 0.336574 0.140748
H49   H     H_    0.591178 0.296926 0.307211 0.128869
H50   H     H_    0.656216 0.169247 0.283119 0.191749
O52   O     O_3   0.123087 0.476595 0.828022 -0.503945
C114  C     C_3   0.056504 0.434997 0.813010 -0.051333
H51   H     H_    0.028628 0.411790 0.837980 0.145656
H52   H     H_    0.095076 0.367820 0.790856 0.097952
H53   H     H_    0.987240 0.495564 0.796914 0.175520
O53   O     O_3   0.468856 0.166042 0.907586 -0.496707
C115  C     C_3   0.528235 0.208805 0.929405 -0.079873
H54   H     H_    0.483454 0.267219 0.953566 0.106840
H55   H     H_    0.556415 0.243790 0.908856 0.109104
H56   H     H_    0.597526 0.145657 0.944414 0.154258
O54   O     O_3   0.001379 0.095758 0.872088 -0.519799
C116  C     C_3   0.929616 0.057945 0.872420 -0.026223
H57   H     H_    0.899046 0.048008 0.841141 0.159842
H58   H     H_    0.864318 0.109194 0.891927 0.081846
H59   H     H_    0.969802 0.980832 0.885334 0.194543
O55   O     O_3   0.977688 0.128277 0.790671 -0.504830
C117  C     C_3   0.079750 0.109570 0.785714 -0.047242
H60   H     H_    0.131016 0.078402 0.813439 0.129037
H61   H     H_    0.081395 0.180395 0.777766 0.076092
H62   H     H_    0.112108 0.050781 0.760244 0.195190
C118  C     C_2   0.830161 0.163497 0.671456 0.592103
O56   O     O_2   0.786996 0.117017 0.653007 -0.467983
O57   O     O_R   0.896767 0.121138 0.705480 -0.655419
H63   H     H_    0.901921 0.052955 0.711903 0.373561
C119  C     C_2   0.769458 0.508115 0.820736 0.582329
O58   O     O_2   0.758191 0.581015 0.844766 -0.477609
O59   O     O_R   0.719997 0.527981 0.781924 -0.692024
H64   H     H_    0.678477 0.604836 0.777456 0.374118
C120  C     C_2   0.471102 0.902937 0.901134 0.657519
O60   O     O_2   0.515373 0.947912 0.890608 -0.435342
O61   O     O_R   0.503039 0.854133 0.937766 -0.671009
H65   H     H_    0.561743 0.863371 0.953065 0.343194
O62   O     O_3   0.471155 0.888399 0.814984 -0.496508
C121  C     C_3   0.430165 0.989653 0.801802 -0.044116
H66   H     H_    0.494316 0.998095 0.790824 0.178417
H67   H     H_    0.395998 0.050006 0.826864 0.136534
H68   H     H_    0.370939 0.003772 0.776134 0.107788
C122  C     C_2   0.525869 0.811676 0.690668 0.573060
O63   O     O_2   0.575102 0.841710 0.673352 -0.498655
O64   O     O_R   0.550127 0.792156 0.731738 -0.674913
H69   H     H_    0.608566 0.806705 0.743636 0.360451
C123  C     C_2   0.174772 0.814568 0.800478 0.641249
O65   O     O_2   0.159784 0.744402 0.809204 -0.461686
O66   O     O_R   0.118059 0.873841 0.767719 -0.688284
H70   H     H_    0.064062 0.854120 0.754587 0.358733
O67   O     O_3   0.164837 0.845826 0.884556 -0.523196
C124  C     C_3   0.214030 0.755833 0.906674 -0.062181
H71   H     H_    0.265494 0.762820 0.932456 0.138353
H72   H     H_    0.258922 0.685524 0.886711 0.139781
H73   H     H_    0.153225 0.745517 0.919607 0.143373
C125  C     C_2   0.204889 0.762295 0.682007 0.612588
O68   O     O_2   0.113857 0.807941 0.669316 -0.475508
O69   O     O_R   0.235190 0.692763 0.712463 -0.656944
H74   H     H_    0.175405 0.684162 0.720738 0.369755
C126  C     C_2   0.183289 0.505829 0.396313 0.619601
O70   O     O_2   0.117087 0.587379 0.382563 -0.480658
O71   O     O_R   0.170716 0.478084 0.433544 -0.679002
H75   H     H_    0.105155 0.532662 0.446454 0.336643
C127  C     C_2   0.142918 0.510725 0.179975 0.585838
O72   O     O_2   0.094527 0.592033 0.163023 -0.485682
O73   O     O_R   0.114614 0.503453 0.217942 -0.712586
H76   H     H_    0.054175 0.570398 0.228179 0.345297
O74   O     O_3   0.136164 0.466970 0.094853 -0.562463
C128  C     C_3   0.165501 0.525751 0.073436 -0.059772
H77   H     H_    0.095525 0.583010 0.056470 0.140384
H78   H     H_    0.223375 0.476076 0.050940 0.102309
H79   H     H_    0.196618 0.569791 0.094401 0.162966
C129  C     C_2   0.805321 0.518286 0.413609 0.637510
O75   O     O_2   0.773804 0.603274 0.400307 -0.443072
O76   O     O_R   0.863254 0.495953 0.450819 -0.675221
H80   H     H_    0.873033 0.556372 0.463741 0.333336

loop_
_geom_bond_atom_site_label_1
_geom_bond_atom_site_label_2
_ccdc_geom_bond_type
C8    C9    A    
C66   C68   A    
O33   H21   S    
Cr5   O19   S    
C21   N6    A    
C99   O30   D    
C55   C59   A    
C54   O48   S    
C125  O69   S    
C100  O33   S    
C41   C42   A    
C74   C94   S    
C36   C42   S    
C36   N8    A    
C95   O16   A    
C87   C88   T    
C23   O23   A    
C92   O9    A    
C112  O49   D    
C49   C50   A    
C111  H45   S    
C56   O4    A    
C51   N12   A    
C25   H3    S    
N6    N7    A    
Cr4   O13   S    
C66   O55   S    
C53   C54   A    
C76   H14   S    
C35   O37   S    
C67   C78   A    
Cr5   O16   S    
C26   C27   A    
O69   H74   S    
C114  H52   S    
Cr3   O3    S    
C94   O14   A    
C97   O27   D    
C127  O73   S    
Cr1   O1    S    
C18   C19   A    
C113  H50   S    
C103  H27   S    
Cr2   O21   S    
C5    C6    A    
C33   C35   A    
Cr5   O15   S    
C108  H38   S    
Cr2   O26   S    
C16   C17   A    
C68   O54   S    
C68   C74   A    
C69   H10   S    
C21   N5    A    
C122  O64   S    
C116  H57   S    
Cr3   O4    S    
C123  O65   D    
N1    N5    A    
C124  H73   S    
C38   H5    S    
C96   O18   A    
O37   C103  S    
C79   C88   S    
Cr6   O19   S    
C91   O8    A    
O45   C109  S    
C40   C43   A    
C57   H7    S    
C91   O7    A    
C115  H54   S    
C44   C46   A    
O64   H69   S    
C84   O67   S    
O54   C116  S    
O43   C107  S    
C56   O24   A    
C124  H71   S    
C126  O71   S    
C1    O20   A    
C70   C71   A    
Cr1   O24   S    
C28   C91   S    
C29   C30   A    
C24   C28   A    
O62   C121  S    
C16   C99   S    
C123  O66   S    
C61   C62   A    
O67   C124  S    
Cr4   O6    S    
C34   C75   S    
C72   C73   T    
C39   C104  S    
C127  O72   D    
C128  H78   S    
N8    N9    A    
C10   C11   T    
C99   O31   S    
O34   C101  S    
C121  H66   S    
C20   N7    A    
C19   C97   S    
C107  H35   S    
C12   O22   A    
C36   N11   A    
C95   O17   A    
C59   C95   S    
Cr1   O5    S    
Cr4   O14   S    
C106  H33   S    
C34   O26   A    
C2    C11   S    
C9    C10   S    
C20   N1    A    
O51   C113  S    
C98   H18   S    
C113  H48   S    
C129  O76   S    
O71   H75   S    
C49   H6    S    
C54   C59   A    
C70   C119  S    
C78   C89   A    
C30   C102  S    
C38   C39   A    
C12   C67   S    
Cr4   O7    S    
C117  H61   S    
C32   C37   S    
C85   C123  S    
C105  O40   D    
C22   C100  S    
C100  O32   D    
C12   O21   A    
C4    H11   S    
C7    C8    A    
C84   C85   A    
C5    C105  S    
C106  H32   S    
O53   C115  S    
C103  H28   S    
O31   H20   S    
C120  O61   S    
C6    H1    S    
Cr5   O8    S    
C108  H37   S    
C80   C81   A    
C39   C43   A    
C63   C73   S    
C26   O34   S    
C109  H40   S    
C25   C26   A    
C85   C86   A    
Cr3   O22   S    
C82   C83   A    
C77   C125  S    
C3    C4    A    
O42   C106  S    
C23   O1    A    
Cr6   O11   S    
C60   C61   A    
C119  O59   S    
C114  H53   S    
C14   C23   S    
Cr2   O2    S    
C2    C89   A    
C75   C76   A    
C105  O41   S    
C103  H26   S    
C5    C9    A    
O73   H76   S    
C118  O56   D    
Cr6   O18   S    
C47   C48   A    
C14   C15   A    
C48   C52   S    
C30   C31   A    
Cr5   O9    S    
C81   H13   S    
C62   C63   A    
C1    C29   S    
C17   C18   A    
C117  H60   S    
C77   C79   A    
C69   C74   A    
C115  H55   S    
C51   C58   S    
C18   H2    S    
Cr1   O25   S    
C76   C77   A    
C90   C96   S    
C101  H24   S    
Cr1   O12   S    
C121  H67   S    
C66   C71   A    
C52   N3    A    
C40   C41   A    
C109  H41   S    
C89   H15   S    
C15   C129  S    
C45   O2    A    
C34   O25   A    
C22   C27   A    
C55   C57   A    
C13   C92   S    
C96   O13   A    
O28   H16   S    
C51   N4    A    
C128  H79   S    
C22   C24   A    
C79   C80   A    
C83   C120  S    
C114  H51   S    
O59   H64   S    
C61   H9    S    
C53   O52   S    
C78   C126  S    
C119  O58   D    
C98   H19   S    
C44   C45   S    
C118  O57   S    
C37   N9    A    
O52   C114  S    
C84   C90   A    
C44   C50   A    
O39   H29   S    
O48   C111  S    
C83   C90   A    
O44   C108  S    
O76   H80   S    
C48   C49   A    
C117  H62   S    
C7    O74   S    
C47   C112  S    
C111  H46   S    
C86   C87   S    
C14   C19   A    
C31   C32   A    
C75   C81   A    
C33   H4    S    
O50   H47   S    
C106  H31   S    
C93   O6    A    
C121  H68   S    
C112  O50   S    
Cr2   O5    S    
C60   C65   A    
C4    C67   A    
C102  O36   S    
C53   C58   A    
C24   O29   S    
C62   H12   S    
N10   N11   A    
C20   C27   S    
C107  H36   S    
C40   O43   S    
Cr3   O23   S    
C29   C35   A    
C116  H59   S    
C52   N2    A    
C43   C93   S    
C94   O15   A    
C32   C33   A    
C46   O45   S    
C110  O47   S    
C2    C3    A    
O47   H43   S    
C71   C72   S    
O74   C128  S    
C93   O11   A    
C82   C86   A    
O55   C117  S    
C64   C65   A    
C6    C13   A    
C31   O42   S    
O66   H70   S    
C108  H39   S    
C57   C58   A    
C120  O60   D    
C98   H17   S    
C50   C110  S    
Cr4   O19   S    
C8    C127  S    
O61   H65   S    
C15   C16   A    
C97   O28   S    
N2    N12   A    
C116  H58   S    
C111  H44   S    
C122  O63   D    
C115  H56   S    
C80   C122  S    
Cr6   O10   S    
C124  H72   S    
C110  O46   D    
C41   O44   S    
C69   C70   A    
O29   C98   S    
C101  H23   S    
C65   H8    S    
C104  O39   S    
C46   C47   A    
C1    O12   A    
C38   C42   A    
C25   C28   A    
C63   C64   A    
C126  O70   D    
C128  H77   S    
C7    C13   A    
C109  H42   S    
C56   C60   S    
C107  H34   S    
Cr3   O5    S    
C45   O3    A    
C113  H49   S    
O41   H30   S    
C125  O68   D    
C55   O53   S    
N3    N4    A    
C104  O38   D    
C129  O75   D    
C92   O10   A    
C64   C118  S    
C3    O51   S    
Cr2   O20   S    
C82   O62   S    
Cr6   O17   S    
O36   H25   S    
O57   H63   S    
C102  O35   D    
C37   N10   A    
C101  H22   S    
C17   C21   S    
