data_mof_unit_27485.cif
_audit_creation_date              2012-12-10T16:48:48-0500
_audit_creation_method            fapswitch 2.2
_symmetry_space_group_name_H-M    P1
_symmetry_Int_Tables_number       1
_space_group_crystal_system       triclinic
_cell_length_a                    17.287977
_cell_length_b                    8.73175
_cell_length_c                    7.419665
_cell_angle_alpha                 101.809872
_cell_angle_beta                  90.333066
_cell_angle_gamma                 92.732602
_cell_volume                      1094.93615204

loop_
_atom_site_label
_atom_site_type_symbol
_atom_type_description
_atom_site_fract_x
_atom_site_fract_y
_atom_site_fract_z
_atom_type_partial_charge
C1    C     C_R   0.501422 0.201310 0.455796 0.902258
C2    C     C_R   0.499971 0.798789 0.544197 0.836975
C3    C     C_2   0.517918 0.039892 0.439313 -0.037225
C4    C     C_2   0.485794 0.960802 0.562475 -0.061316
C5    C     C_R   0.351280 0.505094 0.526434 0.782836
C6    C     C_R   0.648745 0.495219 0.473652 0.776262
C7    C     C_R   0.267646 0.515727 0.543845 -0.022981
C8    C     C_R   0.732207 0.480957 0.455985 -0.024030
C9    C     C_R   0.224162 0.543316 0.394590 -0.205676
C10   C     C_R   0.775087 0.451599 0.605258 -0.205532
C11   C     C_R   0.144421 0.548686 0.405223 -0.150509
C12   C     C_R   0.854554 0.440810 0.593745 -0.149867
C13   C     C_R   0.106776 0.524207 0.564547 0.194381
C14   C     C_R   0.892634 0.461930 0.433654 0.194438
C15   C     C_R   0.150236 0.503593 0.717051 -0.168883
C16   C     C_R   0.849660 0.483815 0.280975 -0.166079
C17   C     C_R   0.230549 0.498907 0.706764 -0.197469
C18   C     C_R   0.769558 0.493566 0.292002 -0.199692
C19   C     C_2   0.022205 0.519082 0.574022 -0.228723
C20   C     C_2   0.977218 0.464425 0.424428 -0.229674
Cu1   Cu    Cu3+1 0.508700 0.517250 0.683000 0.938462
Cu2   Cu    Cu3+1 0.491300 0.482750 0.317000 0.933627
H1    H     H_    0.251697 0.560927 0.269101 0.153048
H2    H     H_    0.747282 0.436512 0.731387 0.152970
H3    H     H_    0.737239 0.513928 0.174326 0.145482
H4    H     H_    0.263268 0.479054 0.824117 0.147150
H5    H     H_    0.121856 0.487013 0.841981 0.118224
H6    H     H_    0.878323 0.497784 0.155424 0.117502
H7    H     H_    0.885843 0.416006 0.710415 0.120901
H8    H     H_    0.112596 0.572400 0.288719 0.121447
H9    H     H_    0.436725 0.386706 0.960234 0.221176
H10   H     H_    0.562292 0.615732 0.040506 0.220231
N1    N     N_2   0.478180 0.456750 0.041980 -0.221493
N2    N     N_2   0.521820 0.543250 0.958020 -0.220007
O1    O     O_R   0.505650 0.286040 0.618880 -0.595498
O2    O     O_R   0.494350 0.713960 0.381120 -0.595561
O3    O     O_R   0.490960 0.256910 0.309800 -0.587471
O4    O     O_R   0.509040 0.743090 0.690200 -0.589056
O5    O     O_R   0.394600 0.516230 0.672450 -0.592390
O6    O     O_R   0.605400 0.483770 0.327550 -0.603987
O7    O     O_R   0.379910 0.487100 0.363380 -0.586883
O8    O     O_R   0.620090 0.512900 0.636620 -0.584045
H11   H     H_    0.002609 0.425358 0.290372 0.142698
H12   H     H_    0.996880 0.558292 0.708108 0.142709
C21   C     C_3   0.578360 0.974155 0.296434 -0.433385
C22   C     C_3   0.649713 0.085125 0.298330 -0.835291
H13   H     H_    0.635499 0.185938 0.236857 0.270374
H14   H     H_    0.672300 0.127519 0.441236 0.247735
H15   H     H_    0.695937 0.022577 0.214268 0.242176
H16   H     H_    0.601728 0.863906 0.319972 0.215580
H17   H     H_    0.550987 0.949979 0.156941 0.224067
C23   C     C_3   0.424970 0.023275 0.704958 -0.409910
C24   C     C_3   0.348766 0.053439 0.615419 -0.833272
H18   H     H_    0.355746 0.150953 0.541034 0.241576
H19   H     H_    0.326822 0.945923 0.517762 0.251878
H20   H     H_    0.304905 0.085635 0.723598 0.241099
H21   H     H_    0.410469 0.936366 0.791708 0.215151
H22   H     H_    0.447423 0.128206 0.804416 0.223494

loop_
_geom_bond_atom_site_label_1
_geom_bond_atom_site_label_2
_ccdc_geom_bond_type
C16   H6    S    
C2    C4    S    
H9    N1    S    
C15   C17   A    
Cu1   O1    S    
C14   C20   S    
C12   H7    S    
C11   C13   A    
C2    O4    A    
C15   H5    S    
C19   C20   D    
Cu1   O5    S    
C13   C15   A    
C1    O3    A    
Cu2   O6    S    
C24   H19   S    
N1    N2    D    
C11   H8    S    
C21   C22   S    
C23   C24   S    
C9    C11   A    
C22   H15   S    
C18   H3    S    
C10   C12   A    
C21   H16   S    
C4    C23   S    
C21   H17   S    
C17   H4    S    
C16   C18   A    
C12   C14   A    
C14   C16   A    
C5    O5    A    
C23   H22   S    
C6    O6    A    
Cu2   O7    S    
C23   H21   S    
C13   C19   S    
C3    C4    D    
C22   H14   S    
C7    C9    A    
C20   H11   S    
Cu2   O2    S    
C19   H12   S    
C1    O1    A    
C8    C10   A    
C6    O8    A    
C24   H20   S    
C2    O2    A    
C1    C3    S    
C5    C7    S    
Cu2   N1    S    
C5    O7    A    
C22   H13   S    
C9    H1    S    
C6    C8    S    
Cu1   N2    S    
C10   H2    S    
Cu1   Cu2   S    
Cu2   O3    S    
C3    C21   S    
C8    C18   A    
Cu1   O4    S    
Cu1   O8    S    
C24   H18   S    
C7    C17   A    
H10   N2    S    
