data_mof_unit_8489.cif
_audit_creation_date              2012-12-11T15:10:36-0500
_audit_creation_method            fapswitch 2.2
_symmetry_space_group_name_H-M    P1
_symmetry_Int_Tables_number       1
_space_group_crystal_system       triclinic
_cell_length_a                    13.681113
_cell_length_b                    13.72617
_cell_length_c                    28.288011
_cell_angle_alpha                 89.99742
_cell_angle_beta                  89.444079
_cell_angle_gamma                 120.007756
_cell_volume                      4599.83772623

loop_
_atom_site_label
_atom_site_type_symbol
_atom_type_description
_atom_site_fract_x
_atom_site_fract_y
_atom_site_fract_z
_atom_type_partial_charge
C1    C     C_R   0.545368 0.433794 0.184264 0.540142
C2    C     C_R   0.566710 0.111673 0.184163 0.543531
C3    C     C_R   0.890563 0.455933 0.184485 0.540523
C4    C     C_R   0.432587 0.545435 0.816264 0.533707
C5    C     C_R   0.109481 0.565432 0.815368 0.529998
C6    C     C_R   0.453814 0.887182 0.816239 0.534615
C7    C     C_3   0.495763 0.910235 0.465143 -0.252665
C8    C     C_3   0.090157 0.589201 0.464375 -0.250943
C9    C     C_3   0.406195 0.495112 0.465714 -0.251913
C10   C     C_3   0.911231 0.502415 0.535441 -0.250895
C11   C     C_3   0.592726 0.089087 0.534337 -0.252067
C12   C     C_3   0.505344 0.415008 0.534887 -0.252520
C13   C     C_1   0.468629 0.931839 0.637177 -0.005512
C14   C     C_1   0.070456 0.537095 0.636805 -0.006198
C15   C     C_1   0.465234 0.534887 0.636737 -0.006878
C16   C     C_1   0.929596 0.466307 0.363210 -0.006573
C17   C     C_1   0.534770 0.069588 0.363240 -0.006733
C18   C     C_1   0.531086 0.462939 0.362806 -0.005451
C19   C     C_3   0.499701 0.023381 0.454710 0.030738
C20   C     C_3   0.977576 0.478848 0.454414 0.031666
C21   C     C_3   0.519647 0.499607 0.453860 0.030756
C22   C     C_3   0.022366 0.501568 0.545638 0.031512
C23   C     C_3   0.479821 0.979804 0.546100 0.030466
C24   C     C_3   0.500057 0.523541 0.545248 0.030897
C25   C     C_3   0.372915 0.982827 0.527772 0.212105
C26   C     C_3   0.021492 0.393578 0.526078 0.211581
C27   C     C_3   0.603868 0.633052 0.523989 0.212001
C28   C     C_3   0.975604 0.370675 0.474465 0.211605
C29   C     C_3   0.395012 0.028040 0.475791 0.212156
C30   C     C_3   0.626011 0.609925 0.472014 0.212031
C31   C     C_1   0.473677 0.956333 0.596430 -0.041604
C32   C     C_1   0.046342 0.518198 0.596012 -0.041261
C33   C     C_1   0.484657 0.530856 0.595785 -0.041328
C34   C     C_1   0.953701 0.471367 0.404010 -0.041344
C35   C     C_1   0.515269 0.046121 0.404182 -0.041255
C36   C     C_1   0.525828 0.482236 0.403548 -0.041698
C37   C     C_R   0.544957 0.432670 0.316655 0.541840
C38   C     C_R   0.566525 0.112431 0.316799 0.539073
C39   C     C_R   0.886703 0.454068 0.316891 0.539406
C40   C     C_R   0.433462 0.545966 0.683191 0.541992
C41   C     C_R   0.113313 0.567488 0.683117 0.542293
C42   C     C_R   0.454986 0.887771 0.683339 0.543440
C43   C     C_3   0.368461 0.932720 0.033486 0.179941
C44   C     C_3   0.920865 0.385657 0.025208 0.184920
C45   C     C_3   0.445013 0.379232 0.025243 0.176280
C46   C     C_3   0.138649 0.528442 0.977957 0.179374
C47   C     C_3   0.549936 0.928543 0.976694 0.175271
C48   C     C_3   0.621111 0.565727 0.969194 0.182931
C49   C     C_3   0.557239 0.943242 0.031200 -0.218379
C50   C     C_3   0.126027 0.520701 0.033427 -0.213523
C51   C     C_3   0.628134 0.568219 0.024230 -0.223281
C52   C     C_3   0.926633 0.393808 0.970355 -0.226845
C53   C     C_3   0.361095 0.922707 0.978455 -0.225255
C54   C     C_3   0.434214 0.386796 0.970883 -0.224925
C55   C     C_1   0.467664 0.934263 0.862557 -0.015786
C56   C     C_1   0.058378 0.532488 0.861307 -0.032312
C57   C     C_1   0.463766 0.527847 0.862423 -0.019791
C58   C     C_1   0.951337 0.478634 0.140224 -0.008090
C59   C     C_1   0.532674 0.058824 0.138969 -0.015960
C60   C     C_1   0.528177 0.468159 0.138920 -0.012043
C61   C     C_3   0.494660 0.004985 0.047583 0.052955
C62   C     C_3   0.007710 0.500191 0.048400 0.033395
C63   C     C_3   0.508986 0.499245 0.047237 0.059612
C64   C     C_3   0.025857 0.509951 0.954795 0.049520
C65   C     C_3   0.480561 0.979149 0.955009 0.052870
C66   C     C_3   0.495241 0.511069 0.954701 0.054211
C67   C     C_3   0.538575 0.105245 0.966851 -0.208112
C68   C     C_3   0.001538 0.601573 0.973357 -0.203278
C69   C     C_3   0.439451 0.570403 0.981249 -0.208675
C70   C     C_3   0.999695 0.601522 0.027946 -0.221938
C71   C     C_3   0.547845 0.119485 0.021103 -0.210550
C72   C     C_3   0.444634 0.561371 0.035591 -0.205212
C73   C     C_1   0.473490 0.960331 0.903548 -0.043340
C74   C     C_1   0.034889 0.516377 0.902803 -0.067244
C75   C     C_1   0.482146 0.518375 0.903293 -0.037397
C76   C     C_1   0.987570 0.492258 0.100136 -0.041106
C77   C     C_1   0.510808 0.027507 0.098677 -0.050518
C78   C     C_1   0.518401 0.488120 0.098414 -0.038406
C79   C     C_3   0.604730 0.115467 0.480749 -0.269565
C80   C     C_3   0.884388 0.488935 0.482001 -0.270096
C81   C     C_3   0.517142 0.400544 0.481310 -0.270039
C82   C     C_3   0.117000 0.602960 0.517815 -0.270099
C83   C     C_3   0.483635 0.883860 0.518709 -0.270079
C84   C     C_3   0.394308 0.509484 0.519318 -0.269520
Cr1   Cr    Cr6+3 0.748260 0.501860 0.250510 1.031546
Cr2   Cr    Cr6+3 0.498140 0.246400 0.250510 1.035467
Cr3   Cr    Cr6+3 0.753600 0.251740 0.250510 1.044279
Cr4   Cr    Cr6+3 0.501860 0.748260 0.749490 1.040095
Cr5   Cr    Cr6+3 0.246400 0.498140 0.749490 1.033071
Cr6   Cr    Cr6+3 0.251740 0.753600 0.749490 1.030822
H1    H     H_    0.312554 0.833525 0.968511 0.149068
H2    H     H_    0.939740 0.325825 0.955719 0.095156
H3    H     H_    0.470957 0.340549 0.952526 0.059120
H4    H     H_    0.138965 0.451795 0.046844 0.078167
H5    H     H_    0.519607 0.859257 0.048665 0.059654
H6    H     H_    0.683102 0.535824 0.035770 0.044065
H7    H     H_    0.405902 0.801543 0.525617 0.092794
H8    H     H_    0.200505 0.609661 0.523651 0.092163
H9    H     H_    0.383296 0.583610 0.525353 0.092308
H10   H     H_    0.799998 0.413437 0.476324 0.092011
H11   H     H_    0.614754 0.200180 0.474716 0.092373
H12   H     H_    0.595270 0.396534 0.474287 0.092928
H13   H     H_    0.421877 0.118686 0.477605 0.145362
H14   H     H_    0.885101 0.305448 0.476820 0.146181
H15   H     H_    0.694908 0.589733 0.473100 0.146942
H16   H     H_    0.111441 0.416509 0.523856 0.146662
H17   H     H_    0.304656 0.893677 0.526633 0.146788
H18   H     H_    0.576001 0.696149 0.522131 0.145245
H19   H     H_    0.334258 0.845654 0.048061 0.103809
H20   H     H_    0.950925 0.325954 0.034002 0.139804
H21   H     H_    0.496991 0.338918 0.032060 0.074989
H22   H     H_    0.154218 0.459634 0.966444 0.094457
H23   H     H_    0.503166 0.836775 0.968976 0.094140
H24   H     H_    0.653591 0.510943 0.955140 0.090387
H25   H     H_    0.647136 0.991405 0.042208 0.163513
H26   H     H_    0.192648 0.599298 0.050046 0.146238
H27   H     H_    0.668779 0.656653 0.036926 0.147380
H28   H     H_    0.846051 0.380272 0.955356 0.132943
H29   H     H_    0.313308 0.962262 0.964417 0.147608
H30   H     H_    0.343677 0.345327 0.960836 0.151036
H31   H     H_    0.507284 0.168143 0.032928 0.128202
H32   H     H_    0.925541 0.605899 0.041084 0.095827
H33   H     H_    0.357784 0.515959 0.050929 0.166284
H34   H     H_    0.066749 0.686027 0.960082 0.151437
H35   H     H_    0.624050 0.151639 0.950213 0.169780
H36   H     H_    0.482567 0.660413 0.970931 0.141874
H37   H     H_    0.638029 0.166571 0.029984 0.194523
H38   H     H_    0.073578 0.680666 0.040128 0.118218
H39   H     H_    0.487834 0.647063 0.051268 0.094544
H40   H     H_    0.918890 0.585839 0.959935 0.082349
H41   H     H_    0.488928 0.142611 0.952653 0.095724
H42   H     H_    0.349710 0.529791 0.971239 0.137371
H43   H     H_    0.663052 0.075546 0.544863 0.134104
H44   H     H_    0.923256 0.585010 0.546891 0.126826
H45   H     H_    0.424684 0.342411 0.547448 0.130633
H46   H     H_    0.079983 0.660684 0.452592 0.125852
H47   H     H_    0.576984 0.919015 0.452783 0.132227
H48   H     H_    0.336351 0.411141 0.455216 0.132465
H49   H     H_    0.683189 0.119499 0.466901 0.147930
H50   H     H_    0.878774 0.562612 0.469056 0.141942
H51   H     H_    0.445202 0.318766 0.469537 0.145073
H52   H     H_    0.124567 0.683311 0.530421 0.141283
H53   H     H_    0.555940 0.874581 0.530631 0.146409
H54   H     H_    0.316403 0.434820 0.533263 0.146850
H55   H     H_    0.428862 0.838703 0.445342 0.092704
H56   H     H_    0.162468 0.595949 0.443711 0.093702
H57   H     H_    0.394633 0.557344 0.445282 0.091711
H58   H     H_    0.838196 0.438405 0.556211 0.093492
H59   H     H_    0.603366 0.162460 0.554797 0.091603
H60   H     H_    0.572926 0.411165 0.554578 0.093268
O1    O     O_R   0.863770 0.527700 0.199270 -0.515835
O2    O     O_R   0.472300 0.336070 0.199270 -0.502730
O3    O     O_R   0.663930 0.136230 0.199270 -0.501397
O4    O     O_R   0.527700 0.863770 0.800730 -0.501228
O5    O     O_R   0.336070 0.472300 0.800730 -0.512754
O6    O     O_R   0.136230 0.663930 0.800730 -0.511087
O7    O     O_R   0.643280 0.490970 0.202410 -0.501443
O8    O     O_R   0.509030 0.152310 0.202410 -0.500300
O9    O     O_R   0.847690 0.356720 0.202410 -0.485686
O10   O     O_R   0.490970 0.643280 0.797590 -0.493435
O11   O     O_R   0.152310 0.509030 0.797590 -0.498219
O12   O     O_R   0.356720 0.847690 0.797590 -0.504369
O13   O     O_R   0.862920 0.527590 0.302350 -0.506934
O14   O     O_R   0.472410 0.335330 0.302350 -0.506422
O15   O     O_R   0.664670 0.137080 0.302350 -0.506508
O16   O     O_R   0.527590 0.862920 0.697650 -0.504981
O17   O     O_R   0.335330 0.472410 0.697650 -0.504034
O18   O     O_R   0.137080 0.664670 0.697650 -0.505252
O19   O     O_R   0.642490 0.490870 0.297970 -0.490646
O20   O     O_R   0.509130 0.151620 0.297970 -0.492864
O21   O     O_R   0.848380 0.357510 0.297970 -0.492632
O22   O     O_R   0.490870 0.642490 0.702030 -0.490650
O23   O     O_R   0.151620 0.509130 0.702030 -0.489842
O24   O     O_R   0.357510 0.848380 0.702030 -0.489608
O25   O     O_3   0.666667 0.333333 0.250440 -0.261143
O26   O     O_3   0.333333 0.666667 0.749560 -0.263966
O27   O     O_3   0.295799 0.984113 0.447902 -0.549727
C85   C     C_3   0.257562 0.874872 0.430631 -0.105311
H61   H     H_    0.256946 0.816880 0.457855 0.079445
H62   H     H_    0.307033 0.876615 0.399074 0.121465
H63   H     H_    0.169474 0.840803 0.418727 0.152378
O28   O     O_3   0.021117 0.317856 0.445387 -0.549082
C86   C     C_3   0.129930 0.391089 0.427133 -0.105244
H64   H     H_    0.187748 0.448779 0.454069 0.079096
H65   H     H_    0.126393 0.438443 0.396107 0.121943
H66   H     H_    0.165766 0.339219 0.414115 0.152277
O29   O     O_3   0.673043 0.706855 0.442140 -0.549501
C87   C     C_3   0.594240 0.734871 0.424622 -0.107857
H67   H     H_    0.536591 0.734061 0.452439 0.080211
H68   H     H_    0.546354 0.680058 0.394767 0.121079
H69   H     H_    0.641868 0.821282 0.409845 0.150017
O30   O     O_3   0.974032 0.295837 0.555486 -0.548921
C88   C     C_3   0.865988 0.263585 0.573851 -0.105751
H70   H     H_    0.808592 0.264099 0.546810 0.079211
H71   H     H_    0.871090 0.316053 0.604515 0.122237
H72   H     H_    0.828674 0.176368 0.587523 0.151740
O31   O     O_3   0.324838 0.032026 0.557536 -0.549520
C89   C     C_3   0.402709 0.139003 0.574998 -0.107111
H73   H     H_    0.460433 0.195785 0.547229 0.079695
H74   H     H_    0.450536 0.132619 0.605048 0.121792
H75   H     H_    0.354253 0.177388 0.589435 0.150645
O32   O     O_3   0.703212 0.689124 0.551749 -0.549466
C90   C     C_3   0.742809 0.619086 0.568986 -0.104448
H76   H     H_    0.744070 0.562025 0.541773 0.079305
H77   H     H_    0.693855 0.571281 0.600601 0.122223
H78   H     H_    0.830850 0.673695 0.580776 0.153166
O33   O     O_3   0.660352 0.983975 0.956576 -0.574896
C91   C     C_3   0.701495 0.908753 0.951764 -0.108682
H79   H     H_    0.653726 0.845278 0.924150 0.171321
H80   H     H_    0.697858 0.867016 0.986003 0.138028
H81   H     H_    0.791136 0.956799 0.940167 0.142148
O34   O     O_3   0.232433 0.635998 0.966753 -0.612435
C92   C     C_3   0.278227 0.643065 0.920904 -0.141907
H82   H     H_    0.371145 0.694213 0.922255 0.111331
H83   H     H_    0.252207 0.690370 0.897357 0.150554
H84   H     H_    0.257000 0.560628 0.905098 0.114794
O35   O     O_3   0.682726 0.676248 0.950316 -0.591843
C93   C     C_3   0.797735 0.709064 0.944674 -0.159833
H85   H     H_    0.808943 0.657344 0.917234 0.123719
H86   H     H_    0.835270 0.704465 0.978717 0.105366
H87   H     H_    0.844447 0.797795 0.932412 0.134268
O36   O     O_3   0.809498 0.331289 0.044333 -0.583476
C94   C     C_3   0.757404 0.397382 0.043117 -0.120802
H88   H     H_    0.783755 0.455283 0.073621 0.138882
H89   H     H_    0.665678 0.342260 0.048175 0.104201
H90   H     H_    0.769919 0.441582 0.008901 0.098320
O37   O     O_3   0.306874 0.984732 0.049362 -0.598652
C95   C     C_3   0.237495 0.927427 0.088726 -0.148771
H91   H     H_    0.285105 0.914493 0.117307 0.122235
H92   H     H_    0.165462 0.845722 0.077826 0.110684
H93   H     H_    0.202554 0.978645 0.103481 0.134024
O38   O     O_3   0.335705 0.318414 0.046172 -0.581443
C96   C     C_3   0.301060 0.203308 0.049620 -0.106480
H94   H     H_    0.352138 0.189854 0.076422 0.163529
H95   H     H_    0.306448 0.168465 0.014781 0.143686
H96   H     H_    0.211627 0.156898 0.061592 0.146183

loop_
_geom_bond_atom_site_label_1
_geom_bond_atom_site_label_2
_ccdc_geom_bond_type
C38   O15   A    
C7    C83   S    
C90   H76   S    
Cr4   O22   S    
C46   H22   S    
C8    H46   S    
C27   O32   S    
C9    C21   S    
C5    C56   S    
C79   H49   S    
C94   H88   S    
C24   C27   S    
Cr5   O23   S    
C6    C55   S    
C82   H52   S    
C71   H37   S    
C26   H16   S    
C29   H13   S    
C95   H92   S    
C85   H61   S    
C94   H90   S    
C58   C76   T    
C72   H39   S    
C47   C49   S    
C21   C36   S    
Cr3   O15   S    
C92   H82   S    
C10   C22   S    
C90   H77   S    
C60   C78   T    
C8    C20   S    
C22   C32   S    
Cr6   O12   S    
C87   H69   S    
C8    C82   S    
C64   C68   S    
C47   C65   S    
C18   C37   S    
Cr4   O4    S    
C54   H30   S    
C11   H43   S    
C37   O19   A    
C46   O34   S    
Cr5   O5    S    
C66   C69   S    
C84   H54   S    
C41   O18   A    
Cr6   O26   S    
C65   C73   S    
C70   H32   S    
C62   C70   S    
C1    O2    A    
C87   H68   S    
Cr2   O25   S    
C25   H17   S    
C11   C23   S    
C28   O28   S    
O28   C86   S    
Cr5   O17   S    
C40   O17   A    
C39   O21   A    
C16   C34   T    
C43   C53   S    
C48   C51   S    
C6    O12   A    
C61   C77   S    
C91   H79   S    
C88   H71   S    
C12   H45   S    
C4    C57   S    
C53   H1    S    
Cr3   O3    S    
C89   H73   S    
C11   C79   S    
C45   O38   S    
C53   C65   S    
C96   H94   S    
C50   H26   S    
C51   H6    S    
C81   H12   S    
C20   C34   S    
C44   C52   S    
C81   H51   S    
O34   C92   S    
C29   O27   S    
C80   H10   S    
C27   C30   S    
C3    O9    A    
C82   H8    S    
C59   C77   T    
O36   C94   S    
Cr1   O7    S    
Cr5   O11   S    
C13   C42   S    
C11   H59   S    
C38   O20   A    
C48   O35   S    
C92   H83   S    
C25   C29   S    
C90   H78   S    
C67   H41   S    
C56   C74   T    
O32   C90   S    
C20   C80   S    
O33   C91   S    
C12   H60   S    
C49   C61   S    
C42   O24   A    
C1    C60   S    
C7    H47   S    
C26   O30   S    
C2    C59   S    
C50   H4    S    
C43   H19   S    
C20   C28   S    
C65   C67   S    
O35   C93   S    
C80   H50   S    
C45   C63   S    
Cr1   O19   S    
C46   C64   S    
C87   H67   S    
C5    O11   A    
C69   C72   S    
C19   C79   S    
C86   H64   S    
Cr1   O1    S    
Cr2   O2    S    
C86   H65   S    
Cr2   O8    S    
C9    H48   S    
C28   H14   S    
C93   H86   S    
O37   C95   S    
C2    O8    A    
C88   H72   S    
Cr3   O21   S    
C68   H34   S    
C43   O37   S    
C89   H75   S    
C45   H21   S    
C51   C63   S    
C49   H5    S    
C68   H40   S    
C96   H95   S    
C6    O4    A    
C23   C83   S    
C14   C41   S    
C68   C70   S    
C49   H25   S    
C21   C81   S    
C69   H36   S    
O27   C85   S    
C2    O3    A    
C7    C19   S    
C37   O14   A    
C72   H33   S    
C52   C64   S    
Cr1   O13   S    
C9    C84   S    
C52   H2    S    
C44   O36   S    
Cr6   O6    S    
C19   C29   S    
C22   C82   S    
C53   H29   S    
C40   O22   A    
C43   C61   S    
C93   H87   S    
C48   H24   S    
C92   H84   S    
C70   H38   S    
C47   H23   S    
C41   O23   A    
C10   C80   S    
C62   C76   S    
Cr6   O18   S    
Cr2   O20   S    
C84   H9    S    
C26   C28   S    
C13   C31   T    
C8    H56   S    
C83   H7    S    
C10   H44   S    
C14   C32   T    
C3    O1    A    
C4    O5    A    
C45   C54   S    
C85   H62   S    
C94   H89   S    
C54   C66   S    
C5    O6    A    
Cr3   O25   S    
C21   C30   S    
C46   C50   S    
Cr4   O16   S    
C24   C33   S    
Cr4   O26   S    
C47   O33   S    
C86   H66   S    
C44   C62   S    
O30   C88   S    
C57   C75   T    
C52   H28   S    
C67   H35   S    
C24   C84   S    
C69   H42   S    
C54   H3    S    
O29   C87   S    
C30   H15   S    
C19   C35   S    
C30   O29   S    
C83   H53   S    
C61   C71   S    
C93   H85   S    
C4    O10   A    
C18   C36   T    
C27   H18   S    
Cr3   O9    S    
C91   H81   S    
C50   C62   S    
C66   C75   S    
C1    O7    A    
O38   C96   S    
Cr1   O25   S    
C9    H57   S    
C12   C81   S    
C67   C71   S    
C17   C38   S    
Cr4   O10   S    
O31   C89   S    
C96   H96   S    
C15   C40   S    
C85   H63   S    
C25   O31   S    
Cr6   O24   S    
C16   C39   S    
C95   H91   S    
C55   C73   T    
C3    C58   S    
C71   H31   S    
C23   C25   S    
Cr2   O14   S    
C63   C72   S    
C91   H80   S    
C88   H70   S    
C22   C26   S    
C10   H58   S    
C51   H27   S    
C64   C74   S    
C79   H11   S    
C89   H74   S    
C12   C24   S    
C17   C35   T    
Cr5   O26   S    
C48   C66   S    
C39   O13   A    
C15   C33   T    
C95   H93   S    
C42   O16   A    
C23   C31   S    
C7    H55   S    
C63   C78   S    
C44   H20   S    
