data_mof_unit_57222.cif
_audit_creation_date              2012-12-10T20:31:57-0500
_audit_creation_method            fapswitch 2.2
_symmetry_space_group_name_H-M    P1
_symmetry_Int_Tables_number       1
_space_group_crystal_system       triclinic
_cell_length_a                    9.878735
_cell_length_b                    10.753649
_cell_length_c                    15.481896
_cell_angle_alpha                 90.945356
_cell_angle_beta                  67.837109
_cell_angle_gamma                 90.893091
_cell_volume                      1522.87756487

loop_
_atom_site_label
_atom_site_type_symbol
_atom_type_description
_atom_site_fract_x
_atom_site_fract_y
_atom_site_fract_z
_atom_type_partial_charge
C1    C     C_R   0.502015 0.740273 0.498910 0.888719
C2    C     C_R   0.742090 0.481368 0.028647 0.175638
C3    C     C_R   0.597599 0.442484 0.083509 0.094021
C4    C     C_R   0.407935 0.494338 0.676223 0.865728
C5    C     C_R   0.840944 0.513591 0.071068 -0.225850
C6    C     C_R   0.794574 0.515946 0.167956 -0.165335
C7    C     C_R   0.553780 0.446280 0.180347 -0.266169
C8    C     C_R   0.378986 0.934576 0.503006 0.191364
C9    C     C_R   0.501765 0.873173 0.504163 -0.180929
C10   C     C_R   0.615313 0.941791 0.518574 0.187765
C11   C     C_R   0.605131 0.069708 0.526486 -0.276989
C12   C     C_R   0.427022 0.433422 0.906889 0.098716
C13   C     C_R   0.490821 0.129660 0.512612 -0.151070
C14   C     C_R   0.373829 0.061755 0.506797 0.109898
C15   C     C_3   0.305864 0.068861 0.435737 -0.494456
C16   C     C_R   0.497937 0.260467 0.502027 0.891597
C17   C     C_3   0.312582 0.928300 0.430504 -0.428802
C18   C     C_R   0.882283 0.525590 0.580051 0.019814
C19   C     C_R   0.972715 0.462000 0.423572 0.631671
C20   C     C_R   0.116315 0.461980 0.423663 -0.212848
C21   C     C_R   0.024682 0.525085 0.580105 0.055078
C22   C     C_3   0.999440 0.641232 0.637546 0.473754
C23   C     C_R   0.290508 0.376596 0.956837 0.107874
C24   C     C_3   0.847124 0.643268 0.636067 -0.519008
C25   C     C_R   0.591430 0.497696 0.323995 0.860391
C26   C     C_R   0.351281 0.466259 0.776537 -0.130634
C27   C     C_R   0.649139 0.486256 0.222579 -0.057452
C28   C     C_R   0.187334 0.361190 0.915407 -0.235849
C29   C     C_R   0.217851 0.401842 0.824457 0.199534
C30   C     C_R   0.449153 0.486030 0.820904 -0.290224
C31   C     C_3   0.859548 0.874770 0.426761 -0.720909
C32   C     C_3   0.128336 0.251604 0.740513 -0.725181
C33   C     C_R   0.536148 0.439892 0.945392 0.083543
C34   C     C_R   0.497467 0.411527 0.040562 0.058465
C35   C     C_R   0.359807 0.354645 0.089393 -0.210306
C36   C     C_R   0.259307 0.335377 0.047214 -0.201813
C37   C     C_R   0.683054 0.471855 0.891384 -0.236159
C38   C     C_R   0.784503 0.491291 0.932561 -0.222110
F1    F     F_    0.951230 0.424805 0.345680 -0.677312
F2    F     F_    0.085049 0.739531 0.589593 -0.663396
H1    H     H_    0.155625 0.290400 0.086215 0.165179
H2    H     H_    0.442471 0.425261 0.224579 0.151962
H3    H     H_    0.760843 0.631902 0.706039 0.145663
H4    H     H_    0.829682 0.721142 0.596244 0.247575
H5    H     H_    0.870381 0.545223 0.199963 0.192929
H6    H     H_    0.894724 0.519691 0.889631 0.148764
H7    H     H_    0.083885 0.314781 0.952850 0.159979
H8    H     H_    0.544416 0.542625 0.786444 0.160341
H9    H     H_    0.328889 0.319897 0.159270 0.151506
H10   H     H_    0.723077 0.478876 0.816534 0.142562
H11   H     H_    0.783074 0.926275 0.565751 0.221656
H12   H     H_    0.952227 0.541382 0.029486 0.150176
H13   H     H_    0.899681 0.968496 0.398552 0.228294
H14   H     H_    0.819304 0.823881 0.377975 0.247031
H15   H     H_    0.952125 0.822171 0.431774 0.241323
H16   H     H_    0.093931 0.443303 0.745396 0.226668
H17   H     H_    0.118465 0.178683 0.792550 0.242307
H18   H     H_    0.235561 0.243377 0.681737 0.239830
H19   H     H_    0.039992 0.236478 0.713418 0.230366
H20   H     H_    0.694156 0.121854 0.535051 0.180924
H21   H     H_    0.192424 0.104803 0.466072 0.213247
H22   H     H_    0.378189 0.114553 0.370312 0.204058
H23   H     H_    0.202707 0.883645 0.456136 0.261696
H24   H     H_    0.389474 0.892014 0.362187 0.185526
H25   H     H_    0.205988 0.432534 0.361522 0.162307
H26   H     H_    0.001567 0.627749 0.707963 0.046446
N1    N     N_R   0.856900 0.500860 0.500610 -0.131299
N2    N     N_R   0.142540 0.500820 0.500610 -0.100638
N3    N     N_2   0.744757 0.885733 0.518364 -0.290935
N4    N     N_2   0.114197 0.373629 0.783361 -0.321093
O1    O     O_R   0.385310 0.683210 0.499990 -0.551033
O2    O     O_R   0.614650 0.683240 0.500000 -0.593092
O3    O     O_R   0.319830 0.499970 0.632240 -0.618268
O4    O     O_R   0.549170 0.500000 0.632250 -0.608291
O5    O     O_R   0.385350 0.316760 0.500000 -0.625101
O6    O     O_R   0.614690 0.316790 0.500010 -0.601934
O7    O     O_R   0.450830 0.500000 0.367750 -0.633037
O8    O     O_R   0.680170 0.500030 0.367760 -0.552631
Zn1   Zn    Zn3+2 0.346870 0.499980 0.499990 0.974277
Zn2   Zn    Zn3+2 0.653130 0.500020 0.500010 1.003989

loop_
_geom_bond_atom_site_label_1
_geom_bond_atom_site_label_2
_ccdc_geom_bond_type
C28   H7    S    
C6    H5    S    
C18   C21   A    
C35   C36   A    
C32   H18   S    
O1    Zn1   S    
C12   C23   A    
C1    O1    A    
C18   C24   S    
C30   H8    S    
C28   C29   A    
C3    C7    A    
C17   H24   S    
C5    C6    A    
O8    Zn2   S    
C16   O5    A    
C7    C27   A    
C34   C35   A    
C7    H2    S    
C22   H26   S    
C19   C20   A    
C8    C9    A    
C35   H9    S    
C5    H12   S    
C19   N1    A    
C9    C10   A    
C4    O4    A    
N2    Zn1   S    
O4    Zn2   S    
C13   C14   A    
C36   H1    S    
C32   H17   S    
O7    Zn1   S    
O3    Zn1   S    
C1    O2    A    
C25   O8    A    
C20   H25   S    
C1    C9    S    
C32   N4    S    
C3    C34   A    
C18   N1    A    
C33   C37   A    
C37   C38   A    
C2    C38   A    
C6    C27   A    
C22   F2    S    
C33   C34   A    
C15   H21   S    
C23   C28   A    
C31   H13   S    
C4    O3    A    
C19   F1    S    
C26   C30   A    
H16   N4    S    
C21   N2    A    
C24   H4    S    
C25   O7    A    
C2    C5    A    
C11   H20   S    
C29   N4    S    
C15   C17   S    
C8    C14   A    
C12   C30   A    
C16   O6    A    
C20   N2    A    
N1    Zn2   S    
O6    Zn2   S    
C4    C26   S    
C25   C27   S    
C8    C17   S    
C2    C3    A    
O2    Zn2   S    
C17   H23   S    
C37   H10   S    
C11   C13   A    
C15   H22   S    
C22   C24   S    
C31   H14   S    
C38   H6    S    
C10   C11   A    
C10   N3    S    
C31   N3    S    
C26   C29   A    
C23   C36   A    
C13   C16   S    
C24   H3    S    
C14   C15   S    
H11   N3    S    
C32   H19   S    
C31   H15   S    
C12   C33   A    
C21   C22   S    
O5    Zn1   S    
