data_mof_unit_22238.cif
_audit_creation_date              2012-12-10T18:00:45-0500
_audit_creation_method            fapswitch 2.2
_symmetry_space_group_name_H-M    P1
_symmetry_Int_Tables_number       1
_space_group_crystal_system       triclinic
_cell_length_a                    15.869872
_cell_length_b                    10.775414
_cell_length_c                    9.527632
_cell_angle_alpha                 90.106309
_cell_angle_beta                  90.105893
_cell_angle_gamma                 90.230241
_cell_volume                      1629.24861917

loop_
_atom_site_label
_atom_site_type_symbol
_atom_type_description
_atom_site_fract_x
_atom_site_fract_y
_atom_site_fract_z
_atom_type_partial_charge
C1    C     C_R   0.500216 0.262520 0.499811 0.902158
C2    C     C_R   0.499784 0.737480 0.500189 0.902157
C3    C     C_R   0.570540 0.934720 0.448460 0.342930
C4    C     C_R   0.429460 0.065280 0.551540 0.342930
C5    C     C_R   0.499529 0.871508 0.500520 -0.199086
C6    C     C_R   0.500471 0.128491 0.499480 -0.199086
C7    C     C_R   0.445994 0.425181 0.074024 -0.016213
C8    C     C_R   0.554005 0.574819 0.925976 -0.016213
C9    C     C_R   0.446012 0.425212 0.925260 -0.003922
C10   C     C_R   0.553988 0.574788 0.074740 -0.003922
C11   C     C_R   0.339807 0.499965 0.499869 0.849515
C12   C     C_R   0.660193 0.500035 0.500131 0.849516
C13   C     C_3   0.971342 0.394576 0.439503 -0.200174
C14   C     C_3   0.028658 0.605424 0.560497 -0.200175
C15   C     C_3   0.027260 0.493776 0.368694 0.217083
C16   C     C_3   0.972740 0.506224 0.631306 0.217083
C17   C     C_1   0.250146 0.500020 0.499677 -0.135249
C18   C     C_1   0.749854 0.499980 0.500323 -0.135249
C19   C     C_3   0.028165 0.400930 0.572494 -0.180019
C20   C     C_3   0.971835 0.599070 0.427505 -0.180019
C21   C     C_3   0.082969 0.500044 0.499911 0.129882
C22   C     C_3   0.917031 0.499955 0.500089 0.129882
C23   C     C_1   0.174627 0.500050 0.499716 -0.029043
C24   C     C_1   0.825372 0.499950 0.500284 -0.029043
C25   C     C_R   0.571535 0.064785 0.447979 0.052861
C26   C     C_R   0.428465 0.935215 0.552021 0.052860
Cu1   Cu    Cu3+1 0.500000 0.500020 0.640660 0.977101
Cu2   Cu    Cu3+1 0.500000 0.499980 0.359340 0.977101
H1    H     H_    0.946987 0.308735 0.388863 0.151554
H2    H     H_    0.053013 0.691265 0.611137 0.151554
H3    H     H_    0.947882 0.679593 0.367075 0.160621
H4    H     H_    0.052118 0.320407 0.632925 0.160621
H5    H     H_    0.402785 0.365103 0.129736 0.138218
H6    H     H_    0.597214 0.634897 0.870264 0.138218
H7    H     H_    0.402818 0.365144 0.868972 0.164984
H8    H     H_    0.597182 0.634856 0.131028 0.164984
N1    N     N_R   0.500020 0.500030 0.852070 -0.170605
N2    N     N_R   0.499980 0.499970 0.147930 -0.170605
O1    O     O_R   0.500000 0.319660 0.618740 -0.557032
O2    O     O_R   0.500000 0.680340 0.381260 -0.557032
O3    O     O_R   0.499990 0.319630 0.381170 -0.588916
O4    O     O_R   0.500010 0.680370 0.618830 -0.588916
O5    O     O_R   0.379080 0.500000 0.618760 -0.570060
O6    O     O_R   0.620920 0.500000 0.381240 -0.570060
O7    O     O_R   0.379080 0.499970 0.381190 -0.585998
O8    O     O_R   0.620920 0.500030 0.618810 -0.585998
C27   C     C_3   0.058965 0.486677 0.218435 -0.862081
H9    H     H_    0.004575 0.483051 0.145140 0.234867
H10   H     H_    0.097944 0.569754 0.194801 0.236732
H11   H     H_    0.097680 0.401998 0.204704 0.242336
C28   C     C_3   0.941035 0.513322 0.781565 -0.862081
H12   H     H_    0.995425 0.516947 0.854860 0.234867
H13   H     H_    0.902321 0.598002 0.795296 0.242336
H14   H     H_    0.902055 0.430246 0.805198 0.236732
C29   C     C_3   0.647695 0.137208 0.396667 -0.742701
H15   H     H_    0.669682 0.201674 0.480264 0.194955
H16   H     H_    0.702049 0.078518 0.368096 0.274516
H17   H     H_    0.630486 0.191695 0.302207 0.234360
C30   C     C_3   0.352305 0.862792 0.603333 -0.742701
H18   H     H_    0.330318 0.798326 0.519736 0.194955
H19   H     H_    0.369514 0.808304 0.697793 0.234360
H20   H     H_    0.297951 0.921482 0.631904 0.274516
Cl1   Cl    Cl    0.658374 0.848698 0.387302 -0.663572
Cl2   Cl    Cl    0.341626 0.151302 0.612698 -0.663572

loop_
_geom_bond_atom_site_label_1
_geom_bond_atom_site_label_2
_ccdc_geom_bond_type
C4    C26   A    
C29   H15   S    
C11   O5    A    
C14   C16   S    
C14   C20   S    
C2    O4    A    
C26   C30   S    
C4    Cl2   S    
C27   H9    S    
C16   C28   S    
C3    C25   A    
C10   N2    A    
C28   H14   S    
C7    C9    A    
C13   C15   S    
C30   H18   S    
C27   H10   S    
C8    H6    S    
C25   C29   S    
C7    H5    S    
Cu1   O4    S    
C17   C23   T    
Cu1   N1    S    
C16   C19   S    
C18   C24   T    
C19   H4    S    
C14   C21   S    
C1    O3    A    
C19   C21   S    
C7    N2    A    
C20   C22   S    
C13   C22   S    
C27   H11   S    
C3    Cl1   S    
C29   H16   S    
C21   C23   S    
C15   C20   S    
C20   H3    S    
C22   C24   S    
Cu2   O7    S    
C30   H19   S    
C6    C25   A    
C11   O7    A    
C8    N1    A    
C1    O1    A    
C28   H13   S    
C12   C18   S    
C5    C26   A    
C2    C5    S    
C2    O2    A    
Cu2   O3    S    
C15   C21   S    
Cu1   O8    S    
C4    C6    A    
C9    N1    A    
C29   H17   S    
C13   H1    S    
Cu1   Cu2   S    
C9    H7    S    
Cu1   O5    S    
Cu2   O2    S    
C15   C27   S    
C12   O6    A    
C13   C19   S    
C16   C22   S    
C1    C6    S    
C10   H8    S    
C3    C5    A    
Cu2   N2    S    
C14   H2    S    
Cu2   O6    S    
C8    C10   A    
C11   C17   S    
C28   H12   S    
Cu1   O1    S    
C30   H20   S    
C12   O8    A    
