data_mof_unit_21516.cif
_audit_creation_date              2012-12-10T17:24:46-0500
_audit_creation_method            fapswitch 2.2
_symmetry_space_group_name_H-M    P1
_symmetry_Int_Tables_number       1
_space_group_crystal_system       triclinic
_cell_length_a                    23.51389
_cell_length_b                    10.863328
_cell_length_c                    9.569321
_cell_angle_alpha                 90.418901
_cell_angle_beta                  90.025812
_cell_angle_gamma                 92.561858
_cell_volume                      2441.86969384

loop_
_atom_site_label
_atom_site_type_symbol
_atom_type_description
_atom_site_fract_x
_atom_site_fract_y
_atom_site_fract_z
_atom_type_partial_charge
C1    C     C_R   0.504578 0.263090 0.500285 0.808809
C2    C     C_R   0.122110 0.611934 0.481948 0.565037
C3    C     C_R   0.238754 0.498606 0.626237 -0.163376
C4    C     C_R   0.390935 0.499716 0.499990 0.820275
C5    C     C_R   0.298003 0.497812 0.626455 -0.214562
C6    C     C_R   0.328279 0.500188 0.499860 -0.061377
C7    C     C_R   0.298172 0.503225 0.373059 -0.267350
C8    C     C_R   0.238632 0.504150 0.372600 0.202682
C9    C     C_R   0.208936 0.502012 0.499851 0.379911
C10   C     C_R   0.761171 0.501071 0.626417 -0.164166
C11   C     C_R   0.701888 0.499679 0.626595 -0.222933
C12   C     C_R   0.965349 0.284101 0.543177 -0.157522
C13   C     C_R   0.671715 0.503016 0.500009 -0.055922
C14   C     C_R   0.701928 0.508639 0.373326 -0.273997
C15   C     C_R   0.761505 0.510226 0.372909 0.202016
C16   C     C_R   0.496954 0.737664 0.501612 0.786120
C17   C     C_R   0.791127 0.506251 0.500108 0.379615
C18   C     C_R   0.537983 0.123096 0.754312 -0.150859
C19   C     C_R   0.531818 0.065444 0.883267 -0.154429
C20   C     C_R   0.503784 0.950593 0.891196 -0.138217
C21   C     C_R   0.487242 0.888170 0.768991 -0.156776
C22   C     C_R   0.499106 0.939839 0.635648 0.094882
C23   C     C_R   0.024671 0.283472 0.543134 -0.158648
C24   C     C_R   0.516132 0.065682 0.630700 0.097549
C25   C     C_R   0.509789 0.129344 0.502904 -0.118395
C26   C     C_R   0.500618 0.062924 0.378526 -0.203924
C27   C     C_R   0.495788 0.935741 0.380164 -0.206275
C28   C     C_R   0.609058 0.500941 0.500006 0.787527
C29   C     C_R   0.494874 0.872389 0.507194 -0.111182
C30   C     C_R   0.575842 0.663923 0.145581 -0.165952
C31   C     C_R   0.612899 0.743760 0.073773 -0.224076
C32   C     C_R   0.612958 0.743482 0.929841 -0.192431
C33   C     C_R   0.575877 0.663539 0.856898 -0.154208
C34   C     C_R   0.057456 0.393176 0.522811 -0.017685
C35   C     C_R   0.537264 0.580549 0.925747 0.192344
C36   C     C_R   0.537245 0.580607 0.075519 0.209643
C37   C     C_R   0.464705 0.423051 0.073307 -0.073156
C38   C     C_R   0.464722 0.423081 0.925211 -0.070171
C39   C     C_R   0.882934 0.614467 0.482209 0.565029
C40   C     C_R   0.878002 0.397268 0.521949 0.546054
C41   C     C_R   0.937587 0.394446 0.522907 -0.017792
C42   C     C_R   0.970046 0.505031 0.502584 -0.015471
C43   C     C_R   0.942636 0.616218 0.482154 -0.020844
C44   C     C_R   0.030055 0.504394 0.502526 -0.015403
C45   C     C_R   0.062521 0.614945 0.482021 -0.021674
C46   C     C_R   0.034756 0.725340 0.462086 -0.156978
C47   C     C_R   0.975426 0.725971 0.462159 -0.159182
C48   C     C_R   0.117145 0.394752 0.521789 0.547015
Cu1   Cu    Cu3+1 0.500000 0.499990 0.640660 0.922292
Cu2   Cu    Cu3+1 0.500000 0.500010 0.359340 0.932607
H1    H     H_    0.941359 0.197885 0.558976 0.190743
H2    H     H_    0.435817 0.360034 0.128220 0.139236
H3    H     H_    0.044714 0.196794 0.558899 0.188991
H4    H     H_    0.579616 0.671912 0.255706 0.203832
H5    H     H_    0.641809 0.806361 0.130572 0.163761
H6    H     H_    0.641784 0.806108 0.873933 0.164723
H7    H     H_    0.579239 0.671835 0.746868 0.204621
H8    H     H_    0.435861 0.360042 0.869139 0.146711
H9    H     H_    0.058749 0.811542 0.446229 0.191034
H10   H     H_    0.955380 0.812641 0.446358 0.188601
H11   H     H_    0.215873 0.496849 0.724440 0.146663
H12   H     H_    0.679752 0.495638 0.725802 0.167596
H13   H     H_    0.320029 0.495325 0.725742 0.162326
H14   H     H_    0.320618 0.504912 0.274192 0.158554
H15   H     H_    0.783981 0.498027 0.724579 0.147571
H16   H     H_    0.781050 0.594171 0.190760 0.230025
H17   H     H_    0.778454 0.438598 0.183161 0.220577
H18   H     H_    0.218709 0.429605 0.184211 0.219897
H19   H     H_    0.222206 0.585264 0.188902 0.230113
H20   H     H_    0.679541 0.511634 0.274502 0.164238
H21   H     H_    0.497080 0.109203 0.279185 0.161696
H22   H     H_    0.560966 0.211461 0.752802 0.163538
H23   H     H_    0.547290 0.111551 0.977447 0.138424
H24   H     H_    0.495883 0.908484 0.991962 0.139707
H25   H     H_    0.463372 0.802028 0.782372 0.170604
H26   H     H_    0.491743 0.887077 0.281173 0.164118
N1    N     N_R   0.852078 0.506063 0.501545 -0.456970
N2    N     N_R   0.148008 0.502949 0.501304 -0.457238
N3    N     N_R   0.500540 0.501210 0.147910 -0.197444
N4    N     N_R   0.500560 0.501290 0.852040 -0.203465
N5    N     N_3   0.792117 0.514826 0.243659 -0.571191
N6    N     N_3   0.208088 0.506577 0.243298 -0.571858
O1    O     O_R   0.500000 0.319640 0.618810 -0.586887
O2    O     O_R   0.582120 0.500020 0.618760 -0.605401
O3    O     O_R   0.582120 0.500050 0.381190 -0.597720
O4    O     O_2   0.855864 0.720037 0.463408 -0.532462
O5    O     O_2   0.846157 0.292220 0.540470 -0.531650
O6    O     O_2   0.144195 0.289124 0.540372 -0.530223
O7    O     O_2   0.153982 0.716874 0.462983 -0.528733
O8    O     O_R   0.500000 0.319660 0.381240 -0.579036
O9    O     O_R   0.417880 0.499950 0.618810 -0.582326
O10   O     O_R   0.417880 0.499980 0.381240 -0.578739
O11   O     O_R   0.500000 0.680340 0.618760 -0.612957
O12   O     O_R   0.500000 0.680360 0.381190 -0.598074

loop_
_geom_bond_atom_site_label_1
_geom_bond_atom_site_label_2
_ccdc_geom_bond_type
C1    O8    A    
C22   C29   A    
C46   H9    S    
C28   O2    A    
C41   C42   A    
C19   C20   A    
C11   H12   S    
Cu2   N3    S    
C7    C8    A    
C15   N5    S    
C45   C46   A    
C30   H4    S    
C12   C23   A    
C16   O11   A    
C37   C38   A    
C8    N6    S    
C39   N1    A    
C40   O5    S    
C30   C31   A    
C27   C29   A    
C10   C17   A    
C35   N4    A    
C5    H13   S    
C18   C19   A    
C48   N2    A    
H19   N6    S    
Cu2   O3    S    
C47   H10   S    
C38   H8    S    
Cu2   O8    S    
C35   C36   A    
C8    C9    A    
C48   O6    S    
C13   C28   S    
C18   C24   A    
C4    O9    A    
C13   C14   A    
C1    C25   S    
C26   H21   S    
C14   H20   S    
C42   C44   A    
Cu1   O9    S    
C23   H3    S    
C3    H11   S    
C2    C45   A    
C18   H22   S    
C19   H23   S    
C34   C44   A    
C24   C25   A    
C4    C6    S    
C37   H2    S    
Cu2   O12   S    
C39   C43   A    
C25   C26   A    
C2    O7    S    
C12   C41   A    
C3    C9    A    
C37   N3    A    
C31   C32   A    
C23   C34   A    
C17   N1    S    
C26   C27   A    
C20   H24   S    
C31   H5    S    
Cu2   O10   S    
C40   C41   A    
H17   N5    S    
C22   C24   A    
C34   C48   A    
C42   C43   A    
C27   H26   S    
C12   H1    S    
C44   C45   A    
Cu1   O2    S    
C2    N2    A    
C10   H15   S    
C15   C17   A    
C46   C47   A    
C33   H7    S    
C40   N1    A    
C3    C5    A    
C36   N3    A    
C6    C7    A    
C1    O1    A    
C21   H25   S    
C16   O12   A    
Cu1   N4    S    
C30   C36   A    
H18   N6    S    
C32   C33   A    
Cu1   O1    S    
C16   C29   S    
H16   N5    S    
C11   C13   A    
C5    C6    A    
C38   N4    A    
C33   C35   A    
C9    N2    S    
C7    H14   S    
C10   C11   A    
C20   C21   A    
Cu1   Cu2   S    
C28   O3    A    
C14   C15   A    
C39   O4    S    
Cu1   O11   S    
C21   C22   A    
C43   C47   A    
C32   H6    S    
C4    O10   A    
