data_mof_unit_53495.cif
_audit_creation_date              2012-12-11T14:58:38-0500
_audit_creation_method            fapswitch 2.2
_symmetry_space_group_name_H-M    P1
_symmetry_Int_Tables_number       1
_space_group_crystal_system       triclinic
_cell_length_a                    10.882595
_cell_length_b                    10.966524
_cell_length_c                    18.820201
_cell_angle_alpha                 90.136262
_cell_angle_beta                  90.825999
_cell_angle_gamma                 59.839814
_cell_volume                      1941.78465437

loop_
_atom_site_label
_atom_site_type_symbol
_atom_type_description
_atom_site_fract_x
_atom_site_fract_y
_atom_site_fract_z
_atom_type_partial_charge
C1    C     C_R   0.357138 0.775113 0.397862 0.539447
C2    C     C_R   0.202212 0.381860 0.213066 -0.160343
C3    C     C_R   0.214796 0.411869 0.283911 -0.035129
C4    C     C_R   0.380837 0.350538 0.390376 0.541738
C5    C     C_R   0.906310 0.800064 0.380715 -0.106349
C6    C     C_R   0.939374 0.670779 0.411279 0.006721
C7    C     C_R   0.033201 0.544834 0.376648 -0.054851
C8    C     C_R   0.102096 0.547159 0.314349 0.045466
C9    C     C_R   0.340625 0.318077 0.321581 0.001386
C10   C     C_R   0.854619 0.230331 0.295972 -0.143657
C11   C     C_R   0.874039 0.218788 0.223191 -0.151167
C12   C     C_R   0.583572 0.081765 0.182184 0.061339
C13   C     C_R   0.858688 0.334451 0.183660 0.019638
C14   C     C_R   0.818296 0.462193 0.216889 -0.154625
C15   C     C_R   0.804111 0.472377 0.289354 -0.146090
C16   C     C_R   0.774711 0.381072 0.402161 0.540051
C17   C     C_R   0.821593 0.356660 0.329456 0.026377
C18   C     C_R   0.434967 0.740751 0.274523 -0.147275
C19   C     C_R   0.417817 0.785272 0.204151 -0.137671
C20   C     C_R   0.312601 0.922627 0.186218 0.025010
C21   C     C_R   0.230420 0.017185 0.239360 -0.152037
C22   C     C_R   0.245299 0.971653 0.309762 -0.139758
C23   C     C_R   0.319426 0.275084 0.176954 -0.008341
C24   C     C_R   0.346166 0.832345 0.327019 0.036256
C25   C     C_R   0.466046 0.281570 0.716312 -0.113299
C26   C     C_R   0.449518 0.278517 0.788524 -0.027071
C27   C     C_R   0.310624 0.334324 0.815184 0.051192
C28   C     C_R   0.342144 0.772810 0.604059 0.542987
C29   C     C_R   0.190214 0.407230 0.768704 -0.046078
C30   C     C_R   0.211449 0.410852 0.696422 -0.128277
C31   C     C_R   0.348119 0.341937 0.670500 0.013715
C32   C     C_R   0.702415 0.466639 0.733190 -0.128797
C33   C     C_R   0.723541 0.449292 0.806073 -0.150196
C34   C     C_R   0.447907 0.198096 0.287604 -0.140143
C35   C     C_R   0.827789 0.319357 0.833391 0.007623
C36   C     C_R   0.907710 0.205671 0.787385 -0.154036
C37   C     C_R   0.886315 0.223643 0.714320 -0.162815
C38   C     C_R   0.786480 0.355151 0.687225 0.030165
C39   C     C_R   0.199273 0.825941 0.714377 0.007884
C40   C     C_R   0.373139 0.351985 0.597046 0.536667
C41   C     C_R   0.210644 0.809924 0.788454 -0.003304
C42   C     C_R   0.306021 0.839182 0.825260 -0.000276
C43   C     C_R   0.405359 0.858958 0.787482 -0.138891
C44   C     C_R   0.408472 0.855506 0.713842 -0.045693
C45   C     C_R   0.445888 0.183387 0.215108 -0.029952
C46   C     C_R   0.310255 0.830344 0.676515 0.032958
C47   C     C_R   0.911385 0.314812 0.112008 0.525781
C48   C     C_R   0.302433 0.255927 0.101420 0.546008
C49   C     C_R   0.273315 0.962144 0.112181 0.541374
C50   C     C_R   0.879838 0.309746 0.905522 0.537655
C51   C     C_R   0.295426 0.290717 0.885883 0.556785
C52   C     C_R   0.759354 0.379061 0.611650 0.538633
C53   C     C_R   0.277290 0.891505 0.898267 0.550182
C54   C     C_R   0.839517 0.891375 0.116741 -0.117297
C55   C     C_R   0.774661 0.034956 0.101401 -0.117875
C56   C     C_R   0.071765 0.678950 0.285333 0.027145
C57   C     C_R   0.651234 0.130672 0.136587 -0.055439
C58   C     C_3   0.879175 0.668936 0.482230 -0.359833
C59   C     C_3   0.582497 0.210087 0.834646 -0.379370
C60   C     C_3   0.039173 0.469672 0.792175 -0.370098
C61   C     C_3   0.065483 0.843531 0.677865 -0.374317
C62   C     C_3   0.120947 0.762251 0.827267 -0.377243
C63   C     C_3   0.512376 0.886380 0.676915 -0.385131
C64   C     C_3   0.149954 0.688660 0.222105 -0.377421
C65   C     C_R   0.971366 0.804023 0.318226 -0.088614
C66   C     C_R   0.651324 0.937275 0.198687 -0.097534
C67   C     C_R   0.779827 0.843157 0.166598 -0.113912
Cr1   Cr    Cr6+3 0.601770 0.606860 0.505860 0.973428
Cr2   Cr    Cr6+3 0.291380 0.601660 0.495070 1.015836
Cr3   Cr    Cr6+3 0.606880 0.291510 0.499120 0.997082
Cr4   Cr    Cr6+3 0.062440 0.063090 0.008210 0.972133
Cr5   Cr    Cr6+3 0.062880 0.375170 0.998920 0.987604
Cr6   Cr    Cr6+3 0.374700 0.061720 0.992470 1.010070
H1    H     H_    0.544801 0.123830 0.315634 0.142899
H2    H     H_    0.950913 0.138018 0.678975 0.113895
H3    H     H_    0.945795 0.905243 0.296258 0.104035
H4    H     H_    0.936665 0.817754 0.090411 0.114525
H5    H     H_    0.605060 0.897883 0.236316 0.114683
H6    H     H_    0.102974 0.448542 0.184924 0.146063
H7    H     H_    0.911008 0.723417 0.521929 0.098235
H8    H     H_    0.761372 0.724637 0.478353 0.150235
H9    H     H_    0.919117 0.559526 0.501466 0.151067
H10   H     H_    0.058379 0.444428 0.399913 0.099860
H11   H     H_    0.864919 0.141621 0.326035 0.118374
H12   H     H_    0.832585 0.898108 0.406315 0.103444
H13   H     H_    0.908713 0.117382 0.198885 0.140663
H14   H     H_    0.772397 0.573784 0.313189 0.146665
H15   H     H_    0.511282 0.632067 0.287474 0.126629
H16   H     H_    0.152244 0.124704 0.225787 0.112918
H17   H     H_    0.675406 0.195053 0.804764 0.130097
H18   H     H_    0.570072 0.276759 0.881558 0.142868
H19   H     H_    0.608904 0.102627 0.851366 0.154128
H20   H     H_    0.025308 0.381784 0.809492 0.184302
H21   H     H_    0.015185 0.546359 0.835731 0.152615
H22   H     H_    0.961002 0.525887 0.748483 0.113593
H23   H     H_    0.801706 0.552891 0.186919 0.124406
H24   H     H_    0.121808 0.463184 0.659751 0.113883
H25   H     H_    0.621393 0.567722 0.712430 0.142460
H26   H     H_    0.971766 0.899211 0.712643 0.105075
H27   H     H_    0.037597 0.911038 0.629694 0.142127
H28   H     H_    0.079231 0.738948 0.663942 0.155915
H29   H     H_    0.100037 0.692285 0.793143 0.127739
H30   H     H_    0.177998 0.698972 0.875176 0.149553
H31   H     H_    0.017624 0.854574 0.842269 0.141318
H32   H     H_    0.478743 0.882529 0.815378 0.144424
H33   H     H_    0.461639 0.953140 0.629084 0.144360
H34   H     H_    0.481083 0.710933 0.163444 0.131892
H35   H     H_    0.547152 0.945366 0.712035 0.119899
H36   H     H_    0.608417 0.786589 0.661585 0.153513
H37   H     H_    0.820192 0.071943 0.062308 0.144927
H38   H     H_    0.603803 0.242352 0.125344 0.121458
H39   H     H_    0.124328 0.798806 0.212145 0.152508
H40   H     H_    0.266280 0.622955 0.231485 0.152432
H41   H     H_    0.120244 0.651616 0.173576 0.125479
H42   H     H_    0.834089 0.732899 0.180401 0.107598
H43   H     H_    0.177263 0.043505 0.350121 0.107948
H44   H     H_    0.572526 0.237110 0.695609 0.147316
H45   H     H_    0.663443 0.538253 0.840774 0.122983
H46   H     H_    0.992137 0.105785 0.807719 0.149501
O1    O     O_R   0.748800 0.497470 0.428000 -0.540635
O2    O     O_R   0.417600 0.174890 0.067840 -0.512683
O3    O     O_R   0.375320 0.946260 0.070860 -0.503225
O4    O     O_R   0.476420 0.724060 0.429470 -0.508455
O5    O     O_R   0.160600 0.919630 0.926660 -0.521536
O6    O     O_R   0.933060 0.190520 0.936020 -0.509330
O7    O     O_R   0.908880 0.403460 0.925020 -0.523404
O8    O     O_R   0.179600 0.361450 0.918490 -0.507287
O9    O     O_R   0.391510 0.170860 0.907530 -0.523975
O10   O     O_R   0.351130 0.942530 0.922260 -0.504186
O11   O     O_3   0.166667 0.166667 0.999870 -0.276573
O12   O     O_R   0.300070 0.471040 0.567100 -0.506639
O13   O     O_R   0.264580 0.744340 0.416750 -0.502322
O14   O     O_R   0.309380 0.472470 0.418200 -0.488331
O15   O     O_R   0.501710 0.260430 0.414300 -0.532924
O16   O     O_R   0.728090 0.305600 0.428960 -0.501425
O17   O     O_R   0.738760 0.495930 0.588610 -0.538640
O18   O     O_R   0.467110 0.722640 0.578360 -0.510084
O19   O     O_R   0.254530 0.742800 0.577360 -0.527807
O20   O     O_R   0.491670 0.258900 0.574910 -0.532254
O21   O     O_R   0.718780 0.304180 0.577850 -0.505906
O22   O     O_3   0.500010 0.500010 0.500020 -0.238555
O23   O     O_R   0.186690 0.923650 0.086970 -0.519340
O24   O     O_R   0.957250 0.194250 0.084630 -0.540241
O25   O     O_R   0.934970 0.407490 0.085330 -0.532599
O26   O     O_R   0.203780 0.365190 0.067090 -0.508280

loop_
_geom_bond_atom_site_label_1
_geom_bond_atom_site_label_2
_ccdc_geom_bond_type
C25   C31   A    
C7    H10   S    
Cr3   O21   S    
C23   C45   A    
C27   C29   A    
C41   C42   A    
C6    C58   S    
C35   C36   A    
C1    O13   A    
C8    C56   A    
C7    C8    A    
C39   C41   A    
C21   H16   S    
C23   C48   S    
C30   H24   S    
C28   C46   S    
C26   C27   A    
C37   C38   A    
C65   H3    S    
C18   C24   A    
C51   O9    A    
C4    O15   A    
C36   C37   A    
C58   H9    S    
C42   C53   S    
C30   C31   A    
C64   H39   S    
C38   C52   S    
C10   C17   A    
Cr2   O22   S    
Cr5   O26   S    
C40   O20   A    
C47   O24   A    
C31   C40   S    
C15   C17   A    
C18   C19   A    
C43   H32   S    
C36   H46   S    
C67   H42   S    
C2    H6    S    
C52   O21   A    
Cr6   O11   S    
C19   C20   A    
C27   C51   S    
C16   C17   S    
C56   C64   S    
C50   O7    A    
C32   C38   A    
C29   C30   A    
C26   C59   S    
C58   H7    S    
C54   H4    S    
C5    H12   S    
C60   H20   S    
C22   H43   S    
C66   C67   A    
C37   H2    S    
Cr3   O20   S    
C13   C14   A    
C48   O26   A    
Cr1   O18   S    
C61   H26   S    
C41   C62   S    
C39   C61   S    
Cr1   O4    S    
C14   H23   S    
C44   C46   A    
C57   H38   S    
C62   H31   S    
C44   C63   S    
C66   H5    S    
Cr6   O10   S    
C64   H41   S    
Cr5   O8    S    
Cr4   O5    S    
Cr1   O17   S    
C28   O19   A    
C5    C65   A    
C3    C8    S    
C58   H8    S    
C48   O2    A    
C13   C47   S    
C54   C67   A    
C25   C26   A    
C12   C66   A    
C47   O25   A    
C18   H15   S    
Cr5   O7    S    
C59   H17   S    
C63   H36   S    
C61   H28   S    
C43   C44   A    
C1    O4    A    
C20   C49   S    
C3    C9    A    
C29   C60   S    
Cr2   O12   S    
C49   O23   A    
C35   C50   S    
Cr1   O22   S    
C50   O6    A    
C59   H18   S    
C63   H33   S    
C34   C45   A    
C34   H1    S    
C39   C46   A    
C12   C57   A    
C40   O12   A    
Cr6   O2    S    
C55   C57   A    
C55   H37   S    
C9    C34   A    
C52   O17   A    
C22   C24   A    
C61   H27   S    
C53   O10   A    
C42   C43   A    
Cr4   O23   S    
C15   H14   S    
C62   H30   S    
Cr2   O19   S    
Cr5   O25   S    
C54   C55   A    
Cr3   O22   S    
Cr2   O14   S    
C64   H40   S    
C28   O18   A    
C12   C45   S    
C53   O5    A    
C25   H44   S    
Cr5   O11   S    
C6    C7    A    
Cr6   O9    S    
C51   O8    A    
C32   C33   A    
C16   O1    A    
C2    C3    A    
C4    C9    S    
Cr1   O1    S    
Cr4   O11   S    
C11   C13   A    
C5    C6    A    
Cr4   O24   S    
Cr2   O13   S    
C49   O3    A    
C10   H11   S    
C33   C35   A    
C32   H25   S    
C59   H19   S    
C10   C11   A    
C60   H22   S    
C33   H45   S    
C20   C21   A    
C1    C24   S    
Cr6   O3    S    
Cr3   O16   S    
C2    C23   A    
Cr3   O15   S    
C14   C15   A    
Cr4   O6    S    
C11   H13   S    
C63   H35   S    
C21   C22   A    
C16   O16   A    
C56   C65   A    
C19   H34   S    
C4    O14   A    
C62   H29   S    
C60   H21   S    
