data_mof_unit_60944.cif
_audit_creation_date              2013-03-05T16:25:02-0500
_audit_creation_method            fapswitch 2.2
_symmetry_space_group_name_H-M    P1
_symmetry_Int_Tables_number       1
_space_group_crystal_system       triclinic
_cell_length_a                    23.421585
_cell_length_b                    23.503394
_cell_length_c                    16.38946
_cell_angle_alpha                 89.648776
_cell_angle_beta                  94.058023
_cell_angle_gamma                 89.727722
_cell_volume                      8999.27015844

loop_
_atom_site_label
_atom_site_type_symbol
_atom_site_description
_atom_site_fract_x
_atom_site_fract_y
_atom_site_fract_z
_atom_type_partial_charge
O1    O     O_R   0.445750 0.057890 0.422600 -0.616331
O2    O     O_R   0.554250 0.942110 0.577400 -0.619602
O3    O     O_R   0.554250 0.057890 0.577400 -0.616787
O4    O     O_R   0.445750 0.942110 0.422600 -0.623560
O5    O     O_R   0.945750 0.557890 0.422600 -0.623456
O6    O     O_R   0.054250 0.442110 0.577400 -0.612714
O7    O     O_R   0.054250 0.557890 0.577400 -0.614406
O8    O     O_R   0.945750 0.442110 0.422600 -0.614795
O9    O     O_R   0.439220 0.057900 0.561040 -0.582923
O10   O     O_R   0.560780 0.942100 0.438960 -0.581572
O11   O     O_R   0.560780 0.057900 0.438960 -0.584101
O12   O     O_R   0.439220 0.942100 0.561040 -0.600630
O13   O     O_R   0.939220 0.557900 0.561040 -0.582728
O14   O     O_R   0.060780 0.442100 0.438960 -0.585082
O15   O     O_R   0.060780 0.557900 0.438960 -0.581942
O16   O     O_R   0.939220 0.442100 0.561040 -0.587734
C1    C     C_R   0.422521 0.075265 0.487546 0.866164
C2    C     C_R   0.574896 0.922223 0.511993 0.861208
C3    C     C_R   0.577336 0.075216 0.512170 0.864876
C4    C     C_R   0.423714 0.923434 0.488131 0.866045
C5    C     C_R   0.922687 0.575392 0.487557 0.848940
C6    C     C_R   0.074786 0.422132 0.511937 0.861269
C7    C     C_R   0.073883 0.578279 0.511245 0.865813
C8    C     C_R   0.925219 0.422345 0.488379 0.852038
Zn1   Zn    Zn3+2 0.504350 0.000000 0.407560 0.991215
Zn2   Zn    Zn3+2 0.495650 0.000000 0.592440 0.983518
Zn3   Zn    Zn3+2 0.004350 0.500000 0.407560 0.989415
Zn4   Zn    Zn3+2 0.995650 0.500000 0.592440 0.992637
C9    C     C_R   0.377293 0.882616 0.478415 -0.058290
C10   C     C_R   0.630038 0.107092 0.523711 -0.044798
C11   C     C_R   0.605616 0.868736 0.519832 -0.039992
C12   C     C_R   0.369245 0.106769 0.475619 -0.044908
C13   C     C_R   0.894914 0.369011 0.481677 -0.041731
C14   C     C_R   0.099744 0.633800 0.515432 -0.023063
C15   C     C_R   0.104885 0.368292 0.519380 -0.045563
C16   C     C_R   0.869617 0.607049 0.475585 -0.039869
C17   C     C_R   0.355158 0.858093 0.547513 -0.138534
C18   C     C_R   0.643037 0.149382 0.468068 -0.143728
C19   C     C_R   0.653607 0.859119 0.476157 -0.145978
C20   C     C_R   0.355860 0.149193 0.530285 -0.145236
C21   C     C_R   0.844752 0.361059 0.521052 -0.146884
C22   C     C_R   0.075190 0.677053 0.464843 -0.154867
C23   C     C_R   0.154117 0.359144 0.478234 -0.142666
C24   C     C_R   0.857196 0.650715 0.528748 -0.146555
C25   C     C_R   0.307668 0.823234 0.538332 -0.094383
C26   C     C_R   0.695794 0.176148 0.476831 -0.099646
C27   C     C_R   0.679044 0.805646 0.478769 -0.101817
C28   C     C_R   0.302389 0.175135 0.522043 -0.103933
C29   C     C_R   0.819060 0.307965 0.519092 -0.100715
C30   C     C_R   0.099654 0.730623 0.465315 -0.047503
C31   C     C_R   0.179145 0.305479 0.480192 -0.103163
C32   C     C_R   0.803800 0.676767 0.520798 -0.098375
C33   C     C_R   0.281774 0.813095 0.460125 0.132988
C34   C     C_R   0.736998 0.158901 0.539049 0.103367
C35   C     C_R   0.654968 0.760691 0.521955 0.107596
C36   C     C_R   0.260891 0.156942 0.461400 0.100760
C37   C     C_R   0.844899 0.261836 0.480979 0.105519
C38   C     C_R   0.149577 0.740175 0.514660 0.131115
C39   C     C_R   0.153542 0.259934 0.520162 0.102977
C40   C     C_R   0.761473 0.657407 0.462160 0.103185
C41   C     C_R   0.305090 0.835348 0.390811 -0.045883
C42   C     C_R   0.723538 0.116759 0.594941 -0.032763
C43   C     C_R   0.607424 0.770890 0.566742 -0.040685
C44   C     C_R   0.274748 0.114706 0.406385 -0.021506
C45   C     C_R   0.894803 0.270324 0.440663 -0.037388
C46   C     C_R   0.171681 0.698338 0.569790 -0.106942
C47   C     C_R   0.104616 0.269599 0.562292 -0.035406
C48   C     C_R   0.774481 0.614106 0.408360 -0.036070
C49   C     C_R   0.352676 0.870245 0.399850 -0.174556
C50   C     C_R   0.670058 0.091324 0.587781 -0.176903
C51   C     C_R   0.583121 0.824907 0.566272 -0.182628
C52   C     C_R   0.328911 0.090072 0.412986 -0.169006
C53   C     C_R   0.919515 0.323920 0.440484 -0.189852
C54   C     C_R   0.146187 0.645099 0.570933 -0.157519
C55   C     C_R   0.080600 0.323763 0.562426 -0.191026
C56   C     C_R   0.828579 0.589376 0.414531 -0.176271
C57   C     C_2   0.231328 0.777019 0.451047 0.115947
C58   C     C_2   0.792722 0.187851 0.548498 0.127349
C59   C     C_2   0.681670 0.703790 0.523013 0.126062
C60   C     C_2   0.204374 0.185085 0.452604 0.131196
C61   C     C_2   0.817877 0.205380 0.480831 0.124703
C62   C     C_2   0.185889 0.787808 0.495739 0.100784
C63   C     C_2   0.180026 0.202917 0.520594 0.126126
C64   C     C_2   0.704748 0.685069 0.454539 0.126903
H1    H     H_    0.373955 0.866403 0.608531 0.174711
H2    H     H_    0.612379 0.161786 0.418471 0.161291
H3    H     H_    0.671287 0.892818 0.440458 0.172511
H4    H     H_    0.386721 0.162238 0.578860 0.159300
H5    H     H_    0.825545 0.395784 0.552749 0.170298
H6    H     H_    0.037864 0.668885 0.423732 0.152234
H7    H     H_    0.173084 0.393364 0.445020 0.170227
H8    H     H_    0.888702 0.664554 0.575974 0.160501
H9    H     H_    0.660682 0.057872 0.630553 0.163735
H10   H     H_    0.369218 0.888553 0.345539 0.175204
H11   H     H_    0.338586 0.056423 0.371118 0.161376
H12   H     H_    0.545324 0.831927 0.599460 0.157426
H13   H     H_    0.164258 0.612139 0.611576 0.157956
H14   H     H_    0.959021 0.329750 0.410843 0.168055
H15   H     H_    0.837647 0.554852 0.373782 0.161887
H16   H     H_    0.041757 0.330448 0.593387 0.168209
H17   H     H_    0.285725 0.826675 0.330192 0.172292
H18   H     H_    0.754496 0.103285 0.643536 0.183119
H19   H     H_    0.588693 0.736976 0.600873 0.175412
H20   H     H_    0.243571 0.100499 0.358990 0.183476
H21   H     H_    0.914973 0.235429 0.410571 0.183425
H22   H     H_    0.210631 0.705874 0.607804 0.146246
H23   H     H_    0.084640 0.235188 0.593851 0.183773
H24   H     H_    0.742659 0.599040 0.362457 0.181064
H25   H     H_    0.704471 0.210272 0.434842 0.156738
H26   H     H_    0.290660 0.804588 0.592111 0.144719
H27   H     H_    0.293385 0.209340 0.563276 0.156008
H28   H     H_    0.717257 0.799225 0.446364 0.158065
H29   H     H_    0.082794 0.762819 0.422426 0.162708
H30   H     H_    0.779242 0.302731 0.548044 0.157045
H31   H     H_    0.795414 0.711821 0.560902 0.157342
H32   H     H_    0.218283 0.299379 0.449811 0.156250
N1    N     N_R   0.489810 0.000000 0.715580 -0.140792
N2    N     N_R   0.510190 0.000000 0.284420 -0.136831
N3    N     N_R   0.989810 0.500000 0.715580 -0.140119
N4    N     N_R   0.010190 0.500000 0.284420 -0.140267
C65   C     C_R   0.540468 0.002403 0.761339 -0.088349
C66   C     C_R   0.459523 0.996474 0.238864 -0.094725
C67   C     C_R   0.040456 0.496753 0.761378 -0.085913
C68   C     C_R   0.959443 0.502389 0.238762 -0.085353
C69   C     C_R   0.541984 0.009163 0.846574 0.240958
C70   C     C_R   0.457995 0.989436 0.153678 0.242416
C71   C     C_R   0.041946 0.489819 0.846707 0.240782
C72   C     C_R   0.957717 0.509240 0.153406 0.241222
C73   C     C_R   0.489423 0.011839 0.884166 -0.007465
C74   C     C_R   0.510530 0.987523 0.115955 -0.007290
C75   C     C_R   0.989380 0.487707 0.884299 -0.009612
C76   C     C_R   0.010180 0.512072 0.115618 -0.007470
C77   C     C_R   0.438151 0.009160 0.835504 -0.270762
C78   C     C_R   0.561807 0.991414 0.164386 -0.264088
C79   C     C_R   0.938119 0.491293 0.835630 -0.263349
C80   C     C_R   0.061545 0.509434 0.164181 -0.263174
C81   C     C_R   0.438841 0.003106 0.751146 0.290501
C82   C     C_R   0.561129 0.997850 0.248685 0.304128
C83   C     C_R   0.938837 0.497639 0.751208 0.304582
C84   C     C_R   0.061042 0.503266 0.248648 0.310842
C85   C     C_2   0.485287 0.016811 0.973386 -0.049494
C86   C     C_2   0.514594 0.982335 0.026773 -0.047148
C87   C     C_2   0.985281 0.482594 0.973570 -0.042045
C88   C     C_2   0.014138 0.517147 0.026301 -0.050611
H33   H     H_    0.579860 0.001594 0.730622 0.178800
H34   H     H_    0.420182 0.996658 0.269727 0.172422
H35   H     H_    0.079851 0.497085 0.730663 0.185678
H36   H     H_    0.920112 0.501513 0.269619 0.179260
H37   H     H_    0.545604 0.952467 0.005112 0.176092
H38   H     H_    0.454263 0.046635 0.995139 0.175305
H39   H     H_    0.044758 0.547063 0.003979 0.173817
H40   H     H_    0.954671 0.452636 0.995797 0.178153
H41   H     H_    0.397528 0.011370 0.863192 0.211465
H42   H     H_    0.602406 0.989931 0.136549 0.212128
H43   H     H_    0.897495 0.489646 0.863366 0.211927
H44   H     H_    0.102097 0.511766 0.136339 0.210183
N5    N     N_R   0.403824 0.981157 0.108371 0.202886
O17   O     O_R   0.399167 0.945038 0.048436 -0.354772
O18   O     O_R   0.357516 0.003710 0.133887 -0.361910
N6    N     N_R   0.596224 0.016537 0.892064 0.204226
O19   O     O_R   0.642160 0.993052 0.866817 -0.355481
O20   O     O_R   0.601451 0.052829 0.951739 -0.348943
N7    N     N_R   0.903328 0.516543 0.107941 0.204530
O21   O     O_R   0.857721 0.492972 0.133751 -0.354625
O22   O     O_R   0.897577 0.552830 0.047596 -0.349235
N8    N     N_R   0.096165 0.481837 0.892377 0.205384
O23   O     O_R   0.101316 0.445625 0.952862 -0.344531
O24   O     O_R   0.142133 0.504819 0.866783 -0.359776
N9    N     N_R   0.176790 0.842112 0.533518 0.213488
O25   O     O_R   0.193716 0.888953 0.500218 -0.335372
O26   O     O_R   0.144578 0.845476 0.594843 -0.324954
N10   N     N_R   0.809836 0.174683 0.404812 0.203289
O27   O     O_R   0.811914 0.201145 0.335110 -0.343301
O28   O     O_R   0.803412 0.119697 0.405134 -0.326018
N11   N     N_R   0.680442 0.701721 0.374399 0.201678
O29   O     O_R   0.712795 0.706907 0.313440 -0.348525
O30   O     O_R   0.625492 0.709629 0.361436 -0.334387
N12   N     N_R   0.189293 0.172304 0.597140 0.203430
O31   O     O_R   0.188051 0.198864 0.666439 -0.344124
O32   O     O_R   0.196336 0.117324 0.597784 -0.309130
N13   N     N_R   0.814036 0.206276 0.628885 0.202441
O33   O     O_R   0.779328 0.212952 0.686724 -0.347262
O34   O     O_R   0.868595 0.214183 0.645412 -0.336797
N14   N     N_R   0.235278 0.725619 0.403839 0.210751
O35   O     O_R   0.191303 0.707511 0.358554 -0.353322
O36   O     O_R   0.284919 0.701830 0.396450 -0.338908
N15   N     N_R   0.181709 0.203197 0.372276 0.203303
O37   O     O_R   0.215369 0.209398 0.313018 -0.348949
O38   O     O_R   0.126961 0.211505 0.357375 -0.334689
N16   N     N_R   0.692629 0.674318 0.600210 0.202062
O39   O     O_R   0.693215 0.701957 0.668826 -0.349632
O40   O     O_R   0.699674 0.619340 0.602244 -0.330566
I1    I     I_    0.641372 0.002999 0.315987 -0.213449
I2    I     I_    0.358535 0.000327 0.683505 -0.185559
I3    I     I_    0.141365 0.500587 0.316159 -0.207633
I4    I     I_    0.858573 0.502330 0.683614 -0.208772

loop_
_geom_bond_atom_site_label_1
_geom_bond_atom_site_label_2
_geom_bond_distance
_ccdc_geom_bond_type
O16   Zn4   1.947565 S    
C21   H5    1.083119 S    
C77   C81   1.391984 A    
N5    O17   1.301303 A    
O2    C2    1.295683 A    
N9    O25   1.301718 A    
O16   C8    1.301632 A    
C33   C57   1.457152 S    
N7    O21   1.301388 A    
C14   C22   1.402939 A    
Zn2   N1    2.032464 S    
C19   H3    1.082989 S    
C80   C84   1.391941 A    
C47   H23   1.083173 S    
Zn1   N2    2.032462 S    
O4    Zn1   1.964006 S    
C69   N6    1.438525 S    
C29   C37   1.409773 A    
C12   C52   1.404059 A    
C5    C16   1.446372 S    
Zn3   N4    2.032462 S    
C83   I4    2.115489 S    
C56   H15   1.083798 S    
C79   C83   1.392029 A    
C6    C15   1.445888 S    
C68   H36   1.082012 S    
O11   C3    1.302824 A    
N16   O39   1.301433 A    
C18   H2    1.083436 S    
C77   H41   1.083909 S    
C86   H37   1.086777 S    
C17   H1    1.083039 S    
N7    O22   1.301313 A    
C39   C63   1.473781 S    
C88   H39   1.086884 S    
C75   C79   1.395535 A    
C38   C62   1.454279 S    
C59   C64   1.354570 D    
C80   H44   1.083912 S    
C32   H31   1.082929 S    
C73   C85   1.477611 S    
O11   Zn1   1.947562 S    
C27   H28   1.083010 S    
C46   C54   1.389606 A    
C57   N14   1.444704 S    
C79   H43   1.083906 S    
N14   O35   1.301021 A    
C10   C18   1.394051 A    
C44   H20   1.083189 S    
N2    C66   1.359724 A    
C61   N10   1.444797 S    
C45   H21   1.083190 S    
C27   C35   1.410072 A    
N1    C65   1.359643 A    
C16   C56   1.403734 A    
C39   C47   1.397473 A    
O5    Zn3   1.957049 S    
C52   H11   1.083810 S    
C33   C41   1.394839 A    
C38   C46   1.403353 A    
O6    Zn4   1.957049 S    
C11   C19   1.392956 A    
C59   N16   1.445017 S    
C35   C43   1.397004 A    
O9    Zn2   1.934332 S    
C36   C44   1.397535 A    
O13   Zn4   1.934332 S    
O3    C3    1.296039 A    
N4    C84   1.366513 A    
O14   Zn3   1.934333 S    
C64   N11   1.445055 S    
C15   C23   1.392877 A    
C24   H8    1.083494 S    
C68   C72   1.404910 A    
C24   C32   1.387330 A    
C44   C52   1.388909 A    
C29   H30   1.083073 S    
C62   N9    1.443481 S    
C25   C33   1.400933 A    
C76   C88   1.477465 S    
N5    O18   1.301421 A    
N8    O24   1.301376 A    
N9    O26   1.301290 A    
C42   C50   1.388267 A    
C26   C34   1.409756 A    
C74   C78   1.395649 A    
C70   N5    1.438684 S    
C46   H22   1.083608 S    
C60   C63   1.354978 D    
C72   C76   1.416282 A    
C21   C29   1.387539 A    
C10   C50   1.403988 A    
N10   O28   1.301810 A    
C85   H38   1.086893 S    
N12   O31   1.301416 A    
C54   H13   1.083326 S    
C9    C49   1.405744 A    
C4    C9    1.454354 S    
N13   O34   1.301806 A    
C53   H14   1.083939 S    
N15   O38   1.301817 A    
C30   C38   1.393750 A    
C50   H9    1.083739 S    
C43   H19   1.083184 S    
C49   H10   1.083184 S    
C45   C53   1.388882 A    
C25   H26   1.083628 S    
C66   H34   1.082080 S    
C51   H12   1.083815 S    
C34   C42   1.397241 A    
N13   O33   1.301446 A    
C72   N7    1.438550 S    
C23   H7    1.082967 S    
O7    Zn4   1.964003 S    
O12   Zn2   1.947565 S    
C22   H6    1.083953 S    
O5    C5    1.295777 A    
N6    O20   1.301312 A    
C66   C70   1.404883 A    
C41   H17   1.083471 S    
C65   C69   1.404903 A    
C58   N13   1.445158 S    
C35   C59   1.473149 S    
O15   Zn3   1.947562 S    
N11   O29   1.301439 A    
C76   C80   1.395640 A    
C7    C14   1.441236 S    
C15   C55   1.403567 A    
O12   C4    1.303366 A    
O13   C5    1.302247 A    
O2    Zn2   1.957049 S    
O9    C1    1.302395 A    
C40   C48   1.397178 A    
C43   C51   1.388636 A    
C22   C30   1.385639 A    
C73   C77   1.395671 A    
O10   Zn1   1.934333 S    
C13   C53   1.403194 A    
C87   H40   1.086780 S    
C14   C54   1.395304 A    
N11   O30   1.301793 A    
N8    O23   1.301315 A    
C1    C12   1.448591 S    
C65   H33   1.082007 S    
C16   C24   1.393230 A    
C31   C39   1.409878 A    
C17   C25   1.384758 A    
C67   C71   1.404922 A    
C75   C87   1.477211 S    
N10   O27   1.301411 A    
C19   C27   1.387423 A    
C82   I1    2.115182 S    
C41   C49   1.386970 A    
C20   C28   1.387887 A    
C81   I2    2.116121 S    
N16   O40   1.301807 A    
C63   N12   1.444852 S    
O3    Zn2   1.964003 S    
N1    C81   1.366876 A    
C8    C13   1.444414 S    
C37   C45   1.397301 A    
Zn4   N3    2.032464 S    
C78   C82   1.391987 A    
N12   O32   1.301811 A    
O1    Zn1   1.957049 S    
N3    C67   1.359691 A    
C48   C56   1.388404 A    
O1    C1    1.296517 A    
C31   H32   1.083053 S    
C36   C60   1.474456 S    
C30   H29   1.083509 S    
N3    C83   1.366837 A    
N6    O19   1.301399 A    
O14   C6    1.301741 A    
C67   H35   1.081933 S    
C13   C21   1.392701 A    
N15   O37   1.301436 A    
C85   C86   1.339552 D    
C40   C64   1.473349 S    
C58   C61   1.354987 D    
C23   C31   1.387569 A    
C78   H42   1.083910 S    
C57   C62   1.357748 D    
O10   C2    1.302301 A    
C71   N8    1.438607 S    
O7    C7    1.297301 A    
O15   C7    1.297708 A    
C55   H16   1.083896 S    
O8    C8    1.295627 A    
C60   N15   1.445109 S    
N14   O36   1.301424 A    
C37   C61   1.472759 S    
C12   C20   1.393906 A    
C74   C86   1.477182 S    
C84   I3    2.114446 S    
C71   C75   1.416114 A    
C18   C26   1.388040 A    
N4    C68   1.359706 A    
O4    C4    1.298994 A    
C69   C73   1.416381 A    
C28   H27   1.082902 S    
C47   C55   1.389399 A    
C28   C36   1.409899 A    
C32   C40   1.410060 A    
C26   H25   1.082904 S    
C9    C17   1.400510 A    
O8    Zn3   1.964006 S    
C70   C74   1.416254 A    
C2    C11   1.445995 S    
C48   H24   1.083183 S    
C34   C58   1.473601 S    
N2    C82   1.366623 A    
C3    C10   1.448522 S    
C20   H4    1.083461 S    
C87   C88   1.339555 D    
C11   C51   1.403703 A    
C42   H18   1.083209 S    
O6    C6    1.296150 A    
