data_mof_unit_19865.cif
_audit_creation_date              2012-12-10T18:18:19-0500
_audit_creation_method            fapswitch 2.2
_symmetry_space_group_name_H-M    P1
_symmetry_Int_Tables_number       1
_space_group_crystal_system       triclinic
_cell_length_a                    14.01087
_cell_length_b                    15.014662
_cell_length_c                    15.501076
_cell_angle_alpha                 89.958623
_cell_angle_beta                  68.068059
_cell_angle_gamma                 90.02234
_cell_volume                      3024.93619586

loop_
_atom_site_label
_atom_site_type_symbol
_atom_type_description
_atom_site_fract_x
_atom_site_fract_y
_atom_site_fract_z
_atom_type_partial_charge
C1    C     C_R   0.500050 0.673548 0.499867 0.901436
C2    C     C_R   0.499951 0.326455 0.500130 0.900823
C3    C     C_R   0.374397 0.438509 0.104533 -0.232466
C4    C     C_R   0.619498 0.423240 0.899271 -0.227988
C5    C     C_R   0.301843 0.440387 0.063191 -0.238799
C6    C     C_R   0.692059 0.422455 0.940697 -0.236846
C7    C     C_R   0.584055 0.184830 0.506412 -0.258000
C8    C     C_R   0.415941 0.815191 0.493598 -0.258660
C9    C     C_R   0.499871 0.230582 0.500278 -0.078691
C10   C     C_R   0.500134 0.769434 0.499712 -0.080983
C11   C     C_R   0.415656 0.184782 0.494206 -0.257683
C12   C     C_R   0.584361 0.815238 0.505759 -0.258396
C13   C     C_R   0.415089 0.092653 0.494025 0.117815
C14   C     C_R   0.584925 0.907370 0.505947 0.117809
C15   C     C_R   0.499958 0.046348 0.500090 0.061473
C16   C     C_R   0.500052 0.953675 0.499893 0.061572
C17   C     C_R   0.584737 0.092701 0.506345 0.118333
C18   C     C_R   0.415266 0.907321 0.493651 0.118359
C19   C     C_R   0.331234 0.046232 0.487806 -0.217267
C20   C     C_R   0.668779 0.953792 0.512169 -0.217272
C21   C     C_R   0.331326 0.953695 0.487612 -0.217619
C22   C     C_R   0.668678 0.046330 0.512382 -0.217616
C23   C     C_R   0.436125 0.498002 0.676152 0.877881
C24   C     C_R   0.563880 0.498634 0.323792 0.875034
C25   C     C_R   0.174504 0.452558 0.566233 -0.071615
C26   C     C_R   0.825503 0.547432 0.433798 -0.072865
C27   C     C_R   0.229143 0.547390 0.433799 -0.066538
C28   C     C_R   0.770846 0.452497 0.566159 -0.061547
C29   C     C_R   0.129246 0.548316 0.432060 0.012822
C30   C     C_R   0.870736 0.451540 0.567933 0.016025
C31   C     C_R   0.050602 0.499910 0.499996 0.086285
C32   C     C_R   0.949388 0.499953 0.500009 0.085850
C33   C     C_R   0.073111 0.451516 0.567948 0.019154
C34   C     C_R   0.926883 0.548394 0.432079 0.017676
C35   C     C_R   0.106220 0.596322 0.364377 -0.213622
C36   C     C_R   0.893752 0.403548 0.635646 -0.213189
C37   C     C_R   0.005910 0.596383 0.364406 -0.210948
C38   C     C_R   0.994065 0.403533 0.635644 -0.210102
C39   C     C_R   0.397441 0.484021 0.776646 -0.061116
C40   C     C_R   0.602140 0.484601 0.223317 -0.062481
C41   C     C_R   0.260293 0.462277 0.926227 -0.202882
C42   C     C_R   0.736131 0.447448 0.076006 -0.201795
C43   C     C_R   0.292229 0.478402 0.830899 -0.200066
C44   C     C_R   0.706060 0.468401 0.170225 -0.198435
C45   C     C_R   0.469754 0.470631 0.817432 -0.263807
C46   C     C_R   0.529330 0.479042 0.182097 -0.259212
C47   C     C_R   0.439909 0.450887 0.911587 0.092833
C48   C     C_R   0.556426 0.452399 0.090077 0.093160
C49   C     C_R   0.333449 0.450434 0.967254 0.177265
C50   C     C_R   0.662066 0.440256 0.035324 0.177410
C51   C     C_R   0.513924 0.438538 0.952517 0.070778
C52   C     C_R   0.481144 0.442994 0.050193 0.067475
H1    H     H_    0.220771 0.437787 0.106811 0.148761
H2    H     H_    0.772251 0.411041 0.897907 0.144209
H3    H     H_    0.193511 0.415702 0.617721 0.128312
H4    H     H_    0.806509 0.584341 0.382337 0.129250
H5    H     H_    0.290460 0.584576 0.382423 0.132032
H6    H     H_    0.709533 0.415256 0.617483 0.127435
H7    H     H_    0.165752 0.633826 0.311449 0.142895
H8    H     H_    0.834221 0.366053 0.688592 0.135763
H9    H     H_    0.990160 0.633961 0.311522 0.141195
H10   H     H_    0.009795 0.366007 0.688570 0.138271
H11   H     H_    0.763482 0.471612 0.201371 0.154415
H12   H     H_    0.235135 0.487305 0.800019 0.153280
H13   H     H_    0.345022 0.431404 0.179242 0.152297
H14   H     H_    0.647644 0.409384 0.825648 0.137504
H15   H     H_    0.649016 0.220721 0.511370 0.162346
H16   H     H_    0.350969 0.779300 0.488662 0.162813
H17   H     H_    0.350645 0.220637 0.489356 0.163887
H18   H     H_    0.649381 0.779384 0.510591 0.164466
H19   H     H_    0.265833 0.081446 0.483108 0.147236
H20   H     H_    0.734183 0.918579 0.516861 0.147574
H21   H     H_    0.265987 0.918444 0.482783 0.147071
H22   H     H_    0.734012 0.081582 0.517220 0.146824
N1    N     N_R   0.249980 0.499930 0.499960 -0.099089
N2    N     N_R   0.750020 0.500070 0.500040 -0.098972
O1    O     O_R   0.419720 0.632140 0.499980 -0.621923
O2    O     O_R   0.580280 0.367860 0.500020 -0.623467
O3    O     O_R   0.580270 0.632160 0.499970 -0.620980
O4    O     O_R   0.419730 0.367840 0.500030 -0.622384
O5    O     O_R   0.373870 0.499980 0.632250 -0.618717
O6    O     O_R   0.626130 0.500020 0.367750 -0.619152
O7    O     O_R   0.534420 0.500000 0.632240 -0.623321
O8    O     O_R   0.465580 0.500000 0.367760 -0.624004
Zn1   Zn    Zn3+2 0.392800 0.499980 0.500010 0.941753
Zn2   Zn    Zn3+2 0.607200 0.500020 0.499990 0.942285
H23   H     H_    0.451029 0.497698 0.222576 0.155504
H24   H     H_    0.550039 0.479316 0.775207 0.159058
H25   H     H_    0.178691 0.460453 0.968045 0.133409
H26   H     H_    0.816959 0.436804 0.035044 0.133405

loop_
_geom_bond_atom_site_label_1
_geom_bond_atom_site_label_2
_ccdc_geom_bond_type
C41   H25   S    
C27   C29   A    
C34   C37   A    
C1    O1    A    
C19   H19   S    
C47   C49   A    
C40   C46   A    
C23   O7    A    
C5    H1    S    
C19   C21   A    
C15   C16   A    
C18   C21   A    
C21   H21   S    
C35   H7    S    
C24   O6    A    
C26   C34   A    
C7    C17   A    
C26   N2    A    
C31   C33   A    
C39   C45   A    
O2    Zn2   S    
C48   C50   A    
O1    Zn1   S    
C41   C43   A    
C5    C49   A    
C3    H13   S    
C42   C44   A    
C6    H2    S    
C27   N1    A    
C41   C49   A    
N1    Zn1   S    
C43   H12   S    
C45   C47   A    
C44   H11   S    
C46   C48   A    
C13   C19   A    
C4    C51   A    
C51   C52   A    
C14   C20   A    
C45   H24   S    
O8    Zn1   S    
C4    C6    A    
C27   H5    S    
C39   C43   A    
C36   H8    S    
O6    Zn2   S    
C8    C18   A    
C42   H26   S    
C32   C34   A    
O4    Zn1   S    
C2    O2    A    
C37   H9    S    
C31   C32   A    
C40   C44   A    
C6    C50   A    
C9    C11   A    
C10   C12   A    
C42   C50   A    
C16   C18   A    
C12   C14   A    
C8    H16   S    
C13   C15   A    
C1    O3    A    
C14   C16   A    
C22   H22   S    
C28   N2    A    
N2    Zn2   S    
C46   H23   S    
C15   C17   A    
C12   H18   S    
C23   O5    A    
C35   C37   A    
C1    C10   S    
C17   C22   A    
C20   C22   A    
C3    C5    A    
C26   H4    S    
C47   C51   A    
C3    C52   A    
C11   H17   S    
C28   H6    S    
C29   C35   A    
C33   C38   A    
C30   C36   A    
C36   C38   A    
C24   O8    A    
C29   C31   A    
C30   C32   A    
C11   C13   A    
C23   C39   S    
C28   C30   A    
C24   C40   S    
C25   H3    S    
C2    O4    A    
C7    H15   S    
C7    C9    A    
C48   C52   A    
O7    Zn2   S    
C4    H14   S    
C8    C10   A    
C20   H20   S    
C25   N1    A    
C2    C9    S    
O3    Zn2   S    
O5    Zn1   S    
C25   C33   A    
C38   H10   S    
