data_mof_unit_23435.cif
_audit_creation_date              2012-12-11T15:49:53-0500
_audit_creation_method            fapswitch 2.2
_symmetry_space_group_name_H-M    P1
_symmetry_Int_Tables_number       1
_space_group_crystal_system       triclinic
_cell_length_a                    8.249283
_cell_length_b                    19.010972
_cell_length_c                    27.013639
_cell_angle_alpha                 94.806687
_cell_angle_beta                  92.74125
_cell_angle_gamma                 85.50298
_cell_volume                      4204.93847111

loop_
_atom_site_label
_atom_site_type_symbol
_atom_type_description
_atom_site_fract_x
_atom_site_fract_y
_atom_site_fract_z
_atom_type_partial_charge
Ba1   Ba    Ba6+2 0.854000 0.466860 0.523710 1.648054
Ba2   Ba    Ba6+2 0.335820 0.533080 0.476290 1.659631
Br1   Br    Br    0.067992 0.775047 0.256670 -0.490739
Br2   Br    Br    0.720833 0.941789 0.387045 -0.627554
C1    C     C_3   0.704840 0.204321 0.658177 -0.363920
C2    C     C_R   0.949344 0.575073 0.180621 0.610493
C3    C     C_2   0.768456 0.554259 0.272323 -0.104087
C4    C     C_3   0.124695 0.313296 0.660293 0.335288
C5    C     C_3   0.745304 0.573652 0.327032 -0.055219
C6    C     C_1   0.981545 0.490486 0.343601 0.030011
C7    C     C_2   0.020630 0.485485 0.296024 -0.085887
C8    C     C_2   0.907462 0.517648 0.257223 0.209498
C9    C     C_R   0.025833 0.506935 0.103441 -0.081892
C10   C     C_R   0.030098 0.444770 0.128689 -0.035755
C11   C     C_R   0.071815 0.379693 0.102484 -0.053813
C12   C     C_3   0.664425 0.276703 0.638777 0.356711
C13   C     C_R   0.984818 0.572433 0.129761 -0.036451
C14   C     C_2   0.851908 0.528661 0.360637 -0.269808
C15   C     C_2   0.347794 0.479331 0.640867 -0.281125
C16   C     C_3   0.108239 0.291707 0.712647 -0.311637
C17   C     C_R   0.151849 0.434549 0.975304 0.020189
C18   C     C_R   0.083777 0.563112 0.974722 0.020726
C19   C     C_R   0.136034 0.497215 0.949527 0.050611
C20   C     C_R   0.211463 0.370973 0.949054 -0.100552
C21   C     C_R   0.249932 0.368685 0.899314 -0.059172
C22   C     C_R   0.230756 0.429547 0.873101 -0.024751
C23   C     C_3   0.520122 0.632519 0.625639 0.292908
C24   C     C_R   0.173382 0.493932 0.898007 -0.079812
C25   C     C_R   0.154221 0.555016 0.871462 -0.036654
C26   C     C_R   0.191914 0.550848 0.820485 0.597841
C27   C     C_R   0.268877 0.426909 0.822469 0.575148
C28   C     C_3   0.187872 0.318060 0.419251 0.303495
C29   C     C_2   0.427999 0.449116 0.727621 -0.084653
C30   C     C_3   0.446390 0.429460 0.672827 -0.048210
C31   C     C_1   0.210628 0.511912 0.657148 0.029897
C32   C     C_2   0.169364 0.513357 0.704560 -0.103991
C33   C     C_2   0.286734 0.482967 0.743435 0.196758
C34   C     C_3   0.522160 0.649075 0.681701 -0.355407
C35   C     C_R   0.109212 0.437388 0.026219 0.020264
C36   C     C_R   0.062764 0.503669 0.051899 0.052638
C37   C     C_R   0.052921 0.566749 0.026632 0.017968
C38   C     C_R   0.110484 0.375958 0.052604 -0.097473
C39   C     C_R   0.980793 0.634312 0.104840 -0.037210
C40   C     C_3   0.197957 0.238236 0.407379 -0.359751
C41   C     C_R   0.063528 0.623233 0.946732 -0.096362
C42   C     C_R   0.097901 0.619151 0.896464 -0.057765
C43   C     C_R   0.013612 0.631667 0.054595 -0.099663
C44   C     C_R   0.400577 0.299357 0.523686 -0.293806
C45   C     C_3   0.999227 0.701098 0.340898 0.411690
C46   C     C_R   0.538289 0.276725 0.497207 0.064842
C47   C     C_R   0.590872 0.204799 0.492557 -0.124790
C48   C     C_R   0.503626 0.154712 0.513607 -0.008622
C49   C     C_R   0.360159 0.178127 0.538493 -0.130710
C50   C     C_R   0.307358 0.250314 0.542358 0.008169
C51   C     C_R   0.555843 0.034333 0.545904 -0.077538
C52   C     C_3   0.006047 0.682411 0.580781 0.313306
C53   C     C_R   0.607574 0.962426 0.539092 -0.118549
C54   C     C_R   0.660542 0.931936 0.492714 0.026869
C55   C     C_R   0.661611 0.976125 0.453057 0.269731
C56   C     C_3   0.916623 0.750121 0.303853 0.129793
C57   C     C_R   0.610743 0.048177 0.460391 -0.066078
C58   C     C_R   0.557257 0.078056 0.506654 0.019908
C59   C     C_R   0.854710 0.827899 0.464240 -0.100460
C60   C     C_R   0.897940 0.754850 0.459630 0.002499
C61   C     C_R   0.659739 0.733660 0.503293 0.036684
C62   C     C_R   0.613093 0.806236 0.507056 -0.118620
C63   C     C_R   0.708580 0.854337 0.486749 0.021784
C64   C     C_3   0.992182 0.762001 0.593915 -0.383141
C65   C     C_R   0.796703 0.708199 0.477354 -0.274224
C66   C     C_3   0.672657 0.382037 0.376057 0.295953
C67   C     C_3   0.499348 0.720497 0.353489 0.347512
C68   C     C_3   0.670632 0.365482 0.319976 -0.339763
C69   C     C_3   0.451766 0.788072 0.328359 -0.284641
C70   C     C_R   0.990727 0.448811 0.179480 0.596147
H1    H     H_    0.707530 0.275027 0.600299 0.074087
H2    H     H_    0.796309 0.394847 0.389292 0.005021
H3    H     H_    0.585148 0.428289 0.384632 0.080785
H4    H     H_    0.837231 0.189314 0.656531 0.149361
H5    H     H_    0.762408 0.321220 0.310158 0.140548
H6    H     H_    0.699451 0.412608 0.301494 0.071826
H7    H     H_    0.548088 0.350400 0.306225 0.136621
H8    H     H_    0.529705 0.286815 0.638048 -0.062949
H9    H     H_    0.638432 0.164063 0.634908 0.067101
H10   H     H_    0.394804 0.621003 0.612606 0.019747
H11   H     H_    0.604944 0.585109 0.617397 0.070314
H12   H     H_    0.277767 0.223314 0.375627 0.137377
H13   H     H_    0.435174 0.695213 0.691383 0.135612
H14   H     H_    0.646420 0.661295 0.695733 0.132286
H15   H     H_    0.667646 0.204995 0.697196 0.121404
H16   H     H_    0.104548 0.339536 0.739039 0.124311
H17   H     H_    0.065313 0.655174 0.320585 0.085458
H18   H     H_    0.901370 0.680831 0.361161 -0.188201
H19   H     H_    0.862944 0.799106 0.323998 0.106338
H20   H     H_    0.634007 0.713571 0.354699 -0.093180
H21   H     H_    0.457628 0.726997 0.392199 0.083702
H22   H     H_    0.480576 0.780696 0.288429 0.151353
H23   H     H_    0.248762 0.210982 0.439935 0.062627
H24   H     H_    0.520477 0.831569 0.346521 0.123552
H25   H     H_    0.044947 0.362452 0.655787 0.091405
H26   H     H_    0.320492 0.803462 0.331952 0.194438
H27   H     H_    0.074753 0.330803 0.120556 0.128005
H28   H     H_    0.518818 0.427853 0.753890 0.116635
H29   H     H_    0.295253 0.318360 0.881338 0.122897
H30   H     H_    0.232983 0.321695 0.966047 0.072133
H31   H     H_    0.138236 0.323425 0.035604 0.073252
H32   H     H_    0.683463 0.578032 0.245473 0.110241
H33   H     H_    0.951462 0.685657 0.124203 0.151177
H34   H     H_    0.074543 0.220441 0.397610 0.137586
H35   H     H_    0.018498 0.674607 0.962323 0.073753
H36   H     H_    0.253315 0.323719 0.655831 -0.054296
H37   H     H_    0.080066 0.667033 0.877138 0.123996
H38   H     H_    0.050868 0.536770 0.715453 0.126376
H39   H     H_    0.009683 0.682091 0.039024 0.078737
H40   H     H_    0.836021 0.538781 0.400303 0.082230
H41   H     H_    0.379291 0.479629 0.602342 0.078568
H42   H     H_    0.504866 0.825147 0.526759 0.078173
H43   H     H_    0.606982 0.930494 0.570446 0.076833
H44   H     H_    0.516649 0.055982 0.582114 0.072610
H45   H     H_    0.884478 0.664505 0.570073 0.001585
H46   H     H_    0.698437 0.187956 0.471945 0.091629
H47   H     H_    0.993731 0.265736 0.715544 0.144228
H48   H     H_    0.609512 0.080688 0.429291 0.110142
H49   H     H_    0.286276 0.140344 0.552722 0.082248
H50   H     H_    0.831800 0.651998 0.474541 0.061533
H51   H     H_    0.358791 0.354876 0.526340 0.071477
H52   H     H_    0.212659 0.254508 0.722908 0.119581
H53   H     H_    0.311579 0.335074 0.427924 0.003210
H54   H     H_    0.110954 0.331408 0.451830 0.065742
H55   H     H_    0.486427 0.602762 0.699931 0.075640
H56   H     H_    0.087894 0.670400 0.549297 0.062395
H57   H     H_    0.817135 0.723208 0.282742 0.065980
H58   H     H_    0.136181 0.458958 0.284990 0.120296
H59   H     H_    0.936833 0.863754 0.451722 0.122508
H60   H     H_    0.905669 0.775437 0.624145 0.132938
H61   H     H_    0.947825 0.790331 0.561224 0.054858
H62   H     H_    0.113304 0.780140 0.606445 0.126079
N1    N     N_R   0.950035 0.513586 0.204995 -0.426962
N2    N     N_R   0.248194 0.487078 0.796178 -0.422208
O1    O     O_2   0.913240 0.537010 0.617740 -0.458713
O2    O     O_2   0.238217 0.749247 0.462555 -0.490083
O3    O     O_3   0.110375 0.737952 0.372397 -0.587379
O4    O     O_3   0.145240 0.536960 0.557560 -0.492479
O5    O     O_3   0.557280 0.416300 0.475860 -0.491113
O6    O     O_2   0.376710 0.670070 0.522470 -0.458953
O7    O     O_3   0.568366 0.691088 0.603229 -0.641791
O8    O     O_2   0.429255 0.524593 0.323178 -0.485501
O9    O     O_3   0.428090 0.663002 0.326867 -0.557068
O10   O     O_2   0.990729 0.394526 0.200717 -0.590111
O11   O     O_2   0.320019 0.370495 0.801776 -0.621033
O12   O     O_3   0.629740 0.322582 0.398207 -0.630270
O13   O     O_2   0.918820 0.632485 0.203346 -0.572188
O14   O     O_2   0.177106 0.604369 0.798083 -0.595627
O15   O     O_3   0.669960 0.410470 0.588880 -0.481229
O16   O     O_2   0.776080 0.465687 0.677734 -0.495423
O17   O     O_3   0.067880 0.649649 0.622731 -0.625469
O18   O     O_3   0.741907 0.328599 0.669628 -0.597764
O19   O     O_2   0.812980 0.329910 0.477500 -0.459966
O20   O     O_3   0.078660 0.374870 0.564770 -0.494690
O21   O     O_2   0.970925 0.249015 0.533369 -0.481664
O22   O     O_3   0.077622 0.258620 0.625775 -0.602883
O23   O     O_2   0.276450 0.462960 0.382230 -0.456712
O24   O     O_3   0.044470 0.462980 0.442430 -0.496389
O25   O     O_3   0.519740 0.589470 0.411120 -0.477572
O26   O     O_3   0.120999 0.350200 0.377523 -0.623813
O27   O     O_3   0.632420 0.583650 0.524140 -0.477934
O28   O     O_3   0.111040 0.625070 0.435230 -0.475720
P1    P     P_3+3 0.082480 0.557670 0.610090 0.993796
P2    P     P_3+3 0.635220 0.340300 0.462910 0.988526
P3    P     P_3+3 0.108029 0.282638 0.566040 0.943963
P4    P     P_3+3 0.107220 0.442270 0.389900 0.997012
P5    P     P_3+3 0.091061 0.717543 0.433717 0.981251
P6    P     P_3+3 0.660121 0.411474 0.653241 0.946118
P7    P     P_3+3 0.561276 0.671810 0.538676 0.949149
P8    P     P_3+3 0.529840 0.585271 0.346348 0.974206

loop_
_geom_bond_atom_site_label_1
_geom_bond_atom_site_label_2
_ccdc_geom_bond_type
C69   H26   S    
C67   O9    S    
C26   N2    Am   
C12   H1    S    
Ba2   O6    S    
C1    H15   S    
O26   P4    S    
C31   C32   D    
C66   O12   S    
C7    H58   S    
Ba2   O24   S    
O9    P8    S    
C67   H20   S    
C49   C50   A    
C61   C65   A    
C44   C50   A    
C4    C16   S    
C45   C56   S    
C62   H42   S    
C59   H59   S    
C28   H53   S    
C70   O10   D    
C24   C25   A    
C4    H25   S    
C6    C14   D    
C68   H5    S    
C1    H9    S    
C41   H35   S    
C18   C37   A    
C67   H21   S    
Ba1   P1    S    
C23   C34   S    
O27   P7    S    
C51   C58   A    
C28   O26   S    
O3    P5    S    
Ba2   O23   S    
C3    C5    S    
Ba1   Ba2   S    
C23   H11   S    
C9    C36   A    
Ba1   O4    S    
C44   H51   S    
O17   P1    S    
C1    C12   S    
C17   C35   A    
O6    P7    D    
C12   O18   S    
C31   P1    S    
O22   P3    S    
C15   H41   S    
Ba2   O28   S    
C68   H7    S    
Ba1   O1    S    
C56   H19   S    
C44   C46   A    
C62   C63   A    
O4    P1    S    
O28   P5    S    
C9    C10   A    
C66   H3    S    
Ba2   O5    S    
C50   P3    S    
C14   H40   S    
C3    C8    D    
C45   H17   S    
C52   O17   S    
C40   H12   S    
O19   P2    D    
C46   C47   A    
C35   C38   A    
C40   H34   S    
C37   C43   A    
C69   H24   S    
C70   N1    Am   
C59   C63   A    
C55   C57   A    
C29   H28   S    
C34   H55   S    
C64   H62   S    
C20   C21   A    
C49   H49   S    
C35   C36   A    
C67   C69   S    
C21   H29   S    
C65   H50   S    
C21   C22   A    
C52   C64   S    
C16   H16   S    
O18   P6    S    
C29   C33   D    
C47   C48   A    
C34   H14   S    
C57   H48   S    
C20   H30   S    
Ba1   O15   S    
C13   C39   A    
C32   H38   S    
C25   C26   A    
Ba1   O5    S    
C4    H36   S    
C40   H23   S    
C5    C14   S    
C26   O14   D    
O24   P4    S    
Ba1   O27   S    
C23   O7    S    
O12   P2    S    
C12   H8    S    
C47   H46   S    
C28   C40   S    
C3    H32   S    
O16   P6    D    
C5    P8    S    
C39   H33   S    
C19   C24   A    
C11   H27   S    
C27   N2    Am   
O1    P1    D    
Ba2   O27   S    
C16   H47   S    
Ba2   P4    S    
O23   P4    D    
O15   P6    S    
C36   C37   A    
O7    P7    S    
Ba1   O24   S    
O2    P5    D    
C33   N2    S    
C51   C53   A    
C66   H2    S    
Ba2   O4    S    
C52   H45   S    
C2    O13   D    
C45   H18   S    
C4    O22   S    
C10   C70   A    
C30   P6    S    
C48   C49   A    
C53   H43   S    
C43   H39   S    
C2    C13   A    
C23   H10   S    
O21   P3    D    
C61   P7    S    
C18   C19   A    
C8    N1    S    
C64   H61   S    
C11   C38   A    
C15   C30   S    
Ba2   O25   S    
C66   C68   S    
C7    C8    S    
O20   P3    S    
C45   O3    S    
C6    P4    S    
C60   C65   A    
C34   H13   S    
C22   C24   A    
Ba1   P2    S    
C9    C13   A    
C25   C42   A    
C28   H54   S    
C60   P5    S    
C17   C19   A    
C54   C55   A    
Ba1   O19   S    
C68   H6    S    
C15   C31   D    
Br1   C56   S    
C46   P2    S    
Ba1   O20   S    
C53   C54   A    
C2    N1    Am   
C27   O11   D    
O8    P8    D    
Br2   C55   S    
C64   H60   S    
C29   C30   S    
C16   H52   S    
C57   C58   A    
C38   H31   S    
C52   H56   S    
O5    P2    S    
C6    C7    D    
C59   C60   A    
C41   C42   A    
C54   C63   S    
C22   C27   A    
C18   C41   A    
C32   C33   S    
C61   C62   A    
C17   C20   A    
C10   C11   A    
C48   C58   S    
C69   H22   S    
C1    H4    S    
C42   H37   S    
O25   P8    S    
C39   C43   A    
C56   H57   S    
C51   H44   S    
