data_mof_unit_51019.cif
_audit_creation_date              2012-12-11T15:07:41-0500
_audit_creation_method            fapswitch 2.2
_symmetry_space_group_name_H-M    P1
_symmetry_Int_Tables_number       1
_space_group_crystal_system       triclinic
_cell_length_a                    21.45149
_cell_length_b                    7.185565
_cell_length_c                    18.822877
_cell_angle_alpha                 90.001643
_cell_angle_beta                  96.391733
_cell_angle_gamma                 90.000657
_cell_volume                      2883.34351658

loop_
_atom_site_label
_atom_site_type_symbol
_atom_type_description
_atom_site_fract_x
_atom_site_fract_y
_atom_site_fract_z
_atom_type_partial_charge
O1    O     O_R   0.449650 0.506500 0.414480 -0.523142
O2    O     O_R   0.550350 0.006500 0.585520 -0.523153
O3    O     O_R   0.432010 0.173150 0.560250 -0.514350
O4    O     O_R   0.567990 0.673150 0.439750 -0.514352
C1    C     C_R   0.416044 0.344653 0.580855 0.875939
C2    C     C_R   0.583957 0.844652 0.419146 0.876011
O5    O     O_R   0.442320 0.176650 0.413480 -0.554647
O6    O     O_R   0.557680 0.676650 0.586520 -0.554657
O7    O     O_R   0.560730 0.008380 0.437700 -0.501719
O8    O     O_R   0.439270 0.508380 0.562300 -0.501711
C3    C     C_R   0.427893 0.345166 0.387952 0.920649
C4    C     C_R   0.572106 0.845171 0.612049 0.920649
O9    O     O_3   0.538840 0.339860 0.508120 -0.379411
O10   O     O_3   0.461160 0.839860 0.491880 -0.379394
V1    V     V_3+5 0.492800 0.064220 0.498490 1.698562
V2    V     V_3+5 0.507200 0.564220 0.501510 1.698548
C5    C     C_R   0.870349 0.070534 0.692384 0.588722
C6    C     C_R   0.129661 0.570636 0.307604 0.588699
C7    C     C_R   0.891541 0.947637 0.813924 -0.189512
C8    C     C_R   0.108461 0.447662 0.186074 -0.189502
C9    C     C_R   0.591548 0.821049 0.743068 0.492755
C10   C     C_R   0.408446 0.320871 0.256939 0.492717
C11   C     C_R   0.629796 0.829851 0.808357 -0.016060
C12   C     C_R   0.370200 0.329627 0.191648 -0.016084
C13   C     C_R   0.694310 0.862965 0.808901 0.522735
C14   C     C_R   0.305694 0.362883 0.191099 0.522823
C15   C     C_R   0.722323 0.876957 0.744397 -0.104233
C16   C     C_R   0.277681 0.376971 0.255600 -0.104238
C17   C     C_R   0.682294 0.885730 0.678693 -0.224766
C18   C     C_R   0.317710 0.385771 0.321303 -0.224781
C19   C     C_R   0.788589 0.902213 0.744511 -0.003846
C20   C     C_R   0.211416 0.402267 0.255483 -0.003839
C21   C     C_R   0.811315 0.980687 0.683565 -0.151927
C22   C     C_R   0.188694 0.480790 0.316425 -0.151903
C23   C     C_R   0.773472 0.968919 0.616628 0.071610
C24   C     C_R   0.226538 0.469058 0.383362 0.071600
C25   C     C_R   0.709268 0.926578 0.615430 0.605837
C26   C     C_R   0.290739 0.426693 0.384562 0.605815
C27   C     C_R   0.833511 0.850314 0.802766 0.155558
C28   C     C_R   0.166490 0.350339 0.197233 0.155524
C29   C     C_R   0.909778 0.059585 0.757434 0.002923
C30   C     C_R   0.090226 0.559639 0.242560 0.002932
C31   C     C_R   0.616481 0.852555 0.678392 -0.224500
C32   C     C_R   0.383519 0.352527 0.321608 -0.224463
C33   C     C_R   0.635417 0.719227 0.315743 0.472123
C34   C     C_R   0.364585 0.219234 0.684259 0.472137
C35   C     C_R   0.632947 0.855386 0.368987 -0.272771
C36   C     C_R   0.367056 0.355392 0.631017 -0.272813
C37   C     C_R   0.675211 0.005429 0.372285 0.572917
C38   C     C_R   0.324795 0.505439 0.627725 0.572920
C39   C     C_R   0.720587 0.017942 0.324173 -0.134796
C40   C     C_R   0.279420 0.517952 0.675837 -0.134805
C41   C     C_R   0.723017 0.881929 0.270116 -0.092791
C42   C     C_R   0.276989 0.381937 0.729890 -0.092784
C43   C     C_R   0.679971 0.730303 0.265148 -0.041239
C44   C     C_R   0.320034 0.230314 0.734857 -0.041239
C45   C     C_R   0.763383 0.166443 0.329076 -0.185010
C46   C     C_R   0.236626 0.666454 0.670938 -0.185012
C47   C     C_R   0.808624 0.181451 0.281666 0.595703
C48   C     C_R   0.191385 0.681461 0.718348 0.595692
C49   C     C_R   0.811783 0.048851 0.227413 -0.021048
C50   C     C_R   0.188223 0.548857 0.772595 -0.021040
C51   C     C_R   0.768413 0.899657 0.220857 0.016238
C52   C     C_R   0.231591 0.399662 0.779148 0.016235
C53   C     C_R   0.769331 0.771806 0.164182 0.090808
C54   C     C_R   0.230669 0.271807 0.835818 0.090812
C55   C     C_R   0.724812 0.626726 0.158466 -0.167154
C56   C     C_R   0.275188 0.126730 0.841533 -0.167125
C57   C     C_R   0.682334 0.597372 0.209185 0.124779
C58   C     C_R   0.317672 0.097390 0.790819 0.124751
C59   C     C_R   0.857711 0.063629 0.179977 -0.224959
C60   C     C_R   0.142293 0.563630 0.820029 -0.224965
C61   C     C_R   0.860764 0.935806 0.124229 -0.129054
C62   C     C_R   0.139236 0.435804 0.875772 -0.129055
C63   C     C_R   0.814441 0.792119 0.114174 0.103430
C64   C     C_R   0.185557 0.292115 0.885824 0.103443
H1    H     H_    0.762063 0.272213 0.369906 0.202120
H2    H     H_    0.237948 0.772226 0.630112 0.202124
H3    H     H_    0.892169 0.174151 0.186985 0.179536
H4    H     H_    0.107836 0.674153 0.813024 0.179537
H5    H     H_    0.722828 0.533648 0.113910 0.145118
H6    H     H_    0.277166 0.033646 0.886084 0.145119
O11   O     O_R   0.060820 0.290050 0.937800 -0.534284
O12   O     O_R   0.939180 0.790050 0.062200 -0.534282
O13   O     O_R   0.057690 0.616620 0.086540 -0.539176
O14   O     O_R   0.942310 0.116620 0.913460 -0.539171
C65   C     C_R   0.070099 0.449233 0.114321 0.738751
C66   C     C_R   0.929902 0.949227 0.885679 0.738754
O15   O     O_R   0.068010 0.619890 0.939770 -0.542487
O16   O     O_R   0.931990 0.119890 0.060230 -0.542485
O17   O     O_R   0.949640 0.787940 0.914460 -0.538207
O18   O     O_R   0.050360 0.287940 0.085540 -0.538205
C67   C     C_R   0.085963 0.450363 0.920987 0.701837
C68   C     C_R   0.914037 0.950364 0.079013 0.701834
O19   O     O_3   0.961210 0.453080 0.991940 -0.375325
O20   O     O_3   0.038790 0.953080 0.008060 -0.375326
V3    V     V_3+5 0.007200 0.728820 0.001500 1.355759
V4    V     V_3+5 0.992800 0.228820 0.998500 1.355763
C69   C     C_3   0.972952 0.159325 0.763155 -0.348226
C70   C     C_3   0.027340 0.022117 0.763705 -0.633553
H7    H     H_    0.028947 0.927050 0.810207 0.189854
H8    H     H_    0.022398 0.938342 0.713803 0.265376
H9    H     H_    0.072344 0.099833 0.767138 0.245440
H10   H     H_    0.976166 0.255857 0.717691 0.246907
H11   H     H_    0.979573 0.249411 0.811028 0.185109
C71   C     C_3   0.027050 0.659362 0.236840 -0.348223
C72   C     C_3   0.972665 0.522142 0.236294 -0.633578
H12   H     H_    0.971058 0.427061 0.189794 0.189862
H13   H     H_    0.977608 0.438384 0.286198 0.265377
H14   H     H_    0.927659 0.599849 0.232860 0.245431
H15   H     H_    0.023836 0.755902 0.282304 0.246910
H16   H     H_    0.020425 0.749438 0.188966 0.185117
F1    F     F_    0.672531 0.139471 0.422849 -0.644077
F2    F     F_    0.327478 0.639486 0.577166 -0.644056
F3    F     F_    0.848888 0.327760 0.288502 -0.704917
F4    F     F_    0.151123 0.827771 0.711516 -0.704924
C73   C     C_3   0.810320 0.670448 0.047714 -0.362324
C74   C     C_3   0.838347 0.476783 0.063271 -0.632811
H17   H     H_    0.886755 0.487468 0.090351 0.242681
H18   H     H_    0.810747 0.394014 0.098236 0.203013
H19   H     H_    0.839142 0.399744 0.012252 0.216020
H20   H     H_    0.761138 0.659309 0.022633 0.180584
H21   H     H_    0.834460 0.738213 0.006056 0.184501
C75   C     C_3   0.189675 0.170445 0.952281 -0.362324
C76   C     C_3   0.161649 0.976778 0.936719 -0.632818
H22   H     H_    0.189245 0.894020 0.901747 0.203024
H23   H     H_    0.160859 0.899732 0.987736 0.216016
H24   H     H_    0.113239 0.987460 0.909645 0.242682
H25   H     H_    0.238856 0.159309 0.977361 0.180533
H26   H     H_    0.165536 0.238206 0.993941 0.184505
C77   C     C_3   0.639856 0.425188 0.203490 -0.227045
C78   C     C_3   0.651175 0.280372 0.146548 -0.834370
H27   H     H_    0.638783 0.338014 0.092047 0.228107
H28   H     H_    0.700732 0.233017 0.153195 0.234512
H29   H     H_    0.620873 0.157225 0.152449 0.246423
H30   H     H_    0.646345 0.350422 0.255451 0.247015
H31   H     H_    0.590233 0.470901 0.192547 0.246305
C79   C     C_3   0.360162 0.925235 0.796522 -0.227035
C80   C     C_3   0.348861 0.780454 0.853481 -0.834357
H32   H     H_    0.361239 0.838163 0.907975 0.228102
H33   H     H_    0.299313 0.733014 0.846834 0.234508
H34   H     H_    0.379187 0.657350 0.847600 0.246432
H35   H     H_    0.353671 0.850430 0.744567 0.247025
H36   H     H_    0.409782 0.970989 0.807455 0.246322
C81   C     C_3   0.800146 0.982856 0.544875 -0.240210
C82   C     C_3   0.794467 0.798408 0.503800 -0.698993
H37   H     H_    0.744880 0.758632 0.488494 0.263134
H38   H     H_    0.817266 0.811946 0.453870 0.222321
H39   H     H_    0.818310 0.685536 0.536797 0.236822
H40   H     H_    0.775460 0.094642 0.512135 0.244788
H41   H     H_    0.850606 0.015617 0.549940 0.241825
C83   C     C_3   0.199866 0.483039 0.455115 -0.240201
C84   C     C_3   0.205532 0.298601 0.496193 -0.698983
H42   H     H_    0.255115 0.258792 0.511493 0.263124
H43   H     H_    0.182738 0.312174 0.546126 0.222315
H44   H     H_    0.181675 0.185737 0.463200 0.236812
H45   H     H_    0.224561 0.594821 0.487852 0.244799
H46   H     H_    0.149409 0.515833 0.450052 0.241823
F5    F     F_    0.886378 0.190273 0.641661 -0.714721
F6    F     F_    0.113639 0.690422 0.358317 -0.714737
C85   C     C_3   0.826836 0.662475 0.838436 -0.272232
C86   C     C_3   0.866881 0.515240 0.806552 -0.742257
H47   H     H_    0.850940 0.496285 0.748797 0.245261
H48   H     H_    0.917156 0.555110 0.812691 0.229807
H49   H     H_    0.861932 0.380661 0.834333 0.223911
H50   H     H_    0.840372 0.671918 0.896332 0.189711
H51   H     H_    0.778081 0.609416 0.830955 0.198360
C87   C     C_3   0.173159 0.162486 0.161569 -0.272249
C88   C     C_3   0.133103 0.015275 0.193449 -0.742235
H52   H     H_    0.149039 0.996331 0.251205 0.245288
H53   H     H_    0.082831 0.055160 0.187304 0.229809
H54   H     H_    0.138049 0.880687 0.165670 0.223902
H55   H     H_    0.159631 0.171917 0.103670 0.189715
H56   H     H_    0.221911 0.109404 0.169058 0.198354
F7    F     F_    0.529139 0.786181 0.742276 -0.675854
F8    F     F_    0.470849 0.285901 0.257740 -0.675888
F9    F     F_    0.728629 0.894798 0.872950 -0.722352
F10   F     F_    0.271382 0.394732 0.127048 -0.722346
C89   C     C_3   0.601931 0.806808 0.878230 -0.247928
C90   C     C_3   0.619574 0.618521 0.912373 -0.724290
H57   H     H_    0.601272 0.504029 0.876228 0.234482
H58   H     H_    0.671281 0.604647 0.923580 0.246076
H59   H     H_    0.598788 0.605514 0.963604 0.205735
H60   H     H_    0.618835 0.920335 0.915628 0.200522
H61   H     H_    0.549950 0.817504 0.870326 0.216142
C91   C     C_3   0.398058 0.306364 0.121780 -0.247942
C92   C     C_3   0.380270 0.118191 0.087620 -0.724323
H62   H     H_    0.398391 0.003587 0.123810 0.234441
H63   H     H_    0.328555 0.104792 0.076303 0.246174
H64   H     H_    0.401133 0.104879 0.036446 0.205716
H65   H     H_    0.381252 0.419999 0.084389 0.200469
H66   H     H_    0.450049 0.316671 0.129696 0.216226
F11   F     F_    0.673029 0.933315 0.551708 -0.710401
F12   F     F_    0.326979 0.433457 0.448284 -0.710367
F13   F     F_    0.591232 0.583384 0.311930 -0.672249
F14   F     F_    0.408766 0.083382 0.688063 -0.672210

loop_
_geom_bond_atom_site_label_1
_geom_bond_atom_site_label_2
_ccdc_geom_bond_type
C33   F13   S    
C54   C56   A    
C51   C53   A    
C15   C17   A    
C61   C63   A    
C88   H52   S    
C37   F1    S    
O1    C3    A    
O2    C4    A    
C2    O7    A    
C59   H3    S    
C85   C86   S    
O19   V4    S    
O18   V4    S    
C35   C37   A    
C71   H16   S    
C87   H56   S    
C62   C64   A    
O12   V3    S    
C48   C50   A    
C23   C25   A    
C55   H5    S    
C12   C14   A    
C86   H47   S    
C4    C31   S    
C79   H35   S    
C6    C30   A    
C81   C82   S    
C8    C28   A    
C80   H34   S    
O14   C66   A    
C45   C47   A    
C71   C72   S    
C46   C48   A    
C86   H49   S    
C8    C65   S    
C18   C26   A    
C12   C91   S    
C23   C81   S    
C33   C35   A    
C91   H65   S    
C49   C51   A    
C74   H17   S    
C92   H64   S    
C50   C52   A    
C21   C23   A    
C9    C31   A    
C10   C32   A    
C90   H58   S    
C78   H27   S    
C53   C55   A    
O11   V4    S    
C63   C73   S    
C76   H24   S    
C38   C40   A    
C72   H12   S    
C29   C69   S    
C39   C45   A    
C27   C85   S    
C11   C89   S    
C85   H50   S    
C90   H59   S    
C57   C77   S    
C49   C59   A    
C36   C38   A    
C69   H10   S    
C73   H21   S    
O6    V2    S    
C65   O18   A    
C17   C31   A    
O15   C67   A    
C72   H13   S    
C62   C67   S    
C18   C32   A    
C5    C21   A    
C61   C68   S    
C5    F5    S    
C40   C42   A    
O16   C68   A    
C82   H38   S    
C71   H15   S    
C41   C43   A    
C87   H55   S    
C69   H11   S    
C1    C36   S    
C42   C44   A    
C47   C49   A    
C92   H63   S    
C2    C35   S    
O13   C65   A    
C15   C19   A    
C80   H33   S    
C64   C75   S    
C45   H1    S    
C16   C20   A    
C6    F6    S    
C60   C62   A    
C7    C66   S    
C59   C61   A    
C24   C83   S    
C37   C39   A    
C40   C46   A    
C70   H9    S    
C26   F12   S    
O15   V3    S    
C38   F2    S    
C74   H19   S    
C20   C22   A    
O4    V2    S    
O5    C3    A    
C73   H20   S    
C77   H31   S    
C82   H39   S    
C30   C71   S    
C10   F8    S    
C69   C70   S    
C66   O17   A    
O6    C4    A    
C54   C64   A    
O20   V3    S    
C70   H8    S    
C50   C60   A    
C3    C32   S    
O1    V2    S    
O12   C68   A    
O17   V3    S    
C84   H44   S    
O2    V1    S    
C6    C22   A    
C52   C54   A    
C85   H51   S    
C7    C27   A    
C83   H46   S    
C74   H18   S    
O4    C2    A    
C87   C88   S    
C9    F7    S    
C77   H30   S    
C44   C58   A    
C9    C11   A    
C76   H22   S    
C72   H14   S    
C10   C12   A    
C48   F4    S    
C84   H43   S    
C17   C25   A    
C77   C78   S    
O3    V1    S    
C90   H57   S    
C82   H37   S    
C89   H60   S    
C83   H45   S    
C19   C21   A    
C81   H40   S    
O3    C1    A    
C8    C30   A    
C80   H32   S    
C34   F14   S    
C89   H61   S    
C81   H41   S    
C13   C15   A    
C14   F10   S    
C14   C16   A    
C53   C63   A    
C56   H6    S    
C43   C57   A    
C16   C18   A    
O7    V1    S    
C92   H62   S    
C60   H4    S    
C86   H48   S    
O8    V2    S    
C73   C74   S    
C75   H26   S    
C24   C26   A    
C41   C51   A    
C58   C79   S    
C42   C52   A    
C78   H29   S    
C78   H28   S    
O5    V1    S    
C70   H7    S    
C88   H54   S    
C19   C27   A    
C75   H25   S    
C22   C24   A    
C20   C28   A    
C91   H66   S    
O14   V4    S    
C5    C29   A    
C28   C87   S    
O13   V3    S    
C79   C80   S    
C46   H2    S    
C39   C41   A    
C89   C90   S    
C34   C36   A    
C1    O8    A    
C11   C13   A    
C83   C84   S    
C33   C43   A    
C47   F3    S    
O9    V2    S    
C34   C44   A    
C76   H23   S    
C56   C58   A    
O10   V1    S    
C79   H36   S    
C55   C57   A    
C91   C92   S    
C13   F9    S    
O16   V4    S    
C7    C29   A    
C25   F11   S    
C75   C76   S    
C84   H42   S    
C88   H53   S    
O11   C67   A    
