data_mof_unit_35597.cif
_audit_creation_date              2013-03-05T16:12:50-0500
_audit_creation_method            fapswitch 2.2
_symmetry_space_group_name_H-M    P1
_symmetry_Int_Tables_number       1
_space_group_crystal_system       triclinic
_cell_length_a                    26.179075
_cell_length_b                    6.885021
_cell_length_c                    21.567203
_cell_angle_alpha                 90.029479
_cell_angle_beta                  95.949349
_cell_angle_gamma                 90.048781
_cell_volume                      3866.40804146

loop_
_atom_site_label
_atom_site_type_symbol
_atom_site_description
_atom_site_fract_x
_atom_site_fract_y
_atom_site_fract_z
_atom_type_partial_charge
O1    O     O_R   0.208650 0.594520 0.175450 -0.581617
O2    O     O_R   0.791350 0.405480 0.824550 -0.577213
O3    O     O_R   0.291350 0.094520 0.324550 -0.577820
O4    O     O_R   0.708650 0.905480 0.675450 -0.577033
O5    O     O_R   0.192980 0.260780 0.300160 -0.582489
O6    O     O_R   0.807020 0.739220 0.699840 -0.581858
O7    O     O_R   0.307020 0.760780 0.199840 -0.584539
O8    O     O_R   0.692980 0.239220 0.800160 -0.582135
C1    C     C_R   0.178062 0.433156 0.317556 1.103074
C2    C     C_R   0.821913 0.566864 0.682396 1.106776
C3    C     C_R   0.322198 0.933371 0.182803 1.108639
C4    C     C_R   0.678114 0.066792 0.817633 1.105977
O9    O     O_R   0.202550 0.264660 0.174420 -0.592608
O10   O     O_R   0.797450 0.735340 0.825580 -0.598233
O11   O     O_R   0.297450 0.764660 0.325580 -0.597793
O12   O     O_R   0.702550 0.235340 0.674420 -0.598059
O13   O     O_R   0.300990 0.096480 0.197920 -0.536910
O14   O     O_R   0.699010 0.903520 0.802080 -0.541111
O15   O     O_R   0.199010 0.596480 0.302080 -0.541074
O16   O     O_R   0.800990 0.403520 0.697920 -0.540932
C5    C     C_R   0.190293 0.433798 0.151436 1.148588
C6    C     C_R   0.809518 0.566148 0.848686 1.154796
C7    C     C_R   0.309620 0.934106 0.348598 1.153016
C8    C     C_R   0.690394 0.065906 0.651393 1.154710
O17   O     O_3   0.282290 0.427760 0.257860 -0.256993
O18   O     O_3   0.717710 0.572240 0.742140 -0.257628
O19   O     O_3   0.217710 0.927760 0.242140 -0.256370
O20   O     O_3   0.782290 0.072240 0.757860 -0.257383
V1    V     V_3+5 0.244010 0.152080 0.248540 1.355485
V2    V     V_3+5 0.755990 0.847920 0.751460 1.349743
V3    V     V_3+5 0.255990 0.652080 0.251460 1.350132
V4    V     V_3+5 0.744010 0.347920 0.748540 1.349474
C9    C     C_R   0.655790 0.057271 0.592067 -0.513696
C10   C     C_R   0.344201 0.942781 0.407943 -0.512867
C11   C     C_R   0.844208 0.558238 0.907942 -0.514735
C12   C     C_R   0.155696 0.440628 0.091996 -0.452964
C13   C     C_R   0.643214 0.139240 0.481649 0.502563
C14   C     C_R   0.356744 0.860819 0.518361 0.502406
C15   C     C_R   0.857215 0.643820 0.018110 0.503385
C16   C     C_R   0.142301 0.343239 0.982457 0.504492
C17   C     C_R   0.676125 0.102386 0.535944 0.232079
C18   C     C_R   0.323852 0.897420 0.464036 0.231820
C19   C     C_R   0.824101 0.605327 0.964060 0.232450
C20   C     C_R   0.175627 0.384529 0.036657 0.131131
C21   C     C_R   0.602267 0.022226 0.591670 0.288654
C22   C     C_R   0.397710 0.978282 0.408396 0.288955
C23   C     C_R   0.897670 0.522872 0.908195 0.288232
C24   C     C_R   0.102368 0.479015 0.091313 0.283039
C25   C     C_R   0.569246 0.035868 0.534316 -0.106853
C26   C     C_R   0.430712 0.964709 0.465773 -0.107071
C27   C     C_R   0.930802 0.536958 0.965457 -0.100146
C28   C     C_R   0.069161 0.461142 0.034192 -0.150328
C29   C     C_R   0.589248 0.124375 0.482557 -0.212073
C30   C     C_R   0.410709 0.876053 0.517512 -0.211798
C31   C     C_R   0.911133 0.627713 0.017023 -0.214623
C32   C     C_R   0.088682 0.366017 0.983115 -0.127136
C33   C     C_R   0.516734 0.970947 0.526583 0.095766
C34   C     C_R   0.483213 0.029778 0.473541 0.095624
C35   C     C_R   0.983110 0.470188 0.973269 0.104141
C36   C     C_R   0.016915 0.529325 0.026070 0.097084
C37   C     C_R   0.502240 0.162874 0.432301 -0.248021
C38   C     C_R   0.497706 0.837935 0.567846 -0.248271
C39   C     C_R   0.998360 0.665599 0.066714 -0.243022
C40   C     C_R   0.001643 0.336398 0.931980 -0.308080
C41   C     C_R   0.554876 0.203414 0.434285 0.552632
C42   C     C_R   0.445079 0.797216 0.565824 0.552341
C43   C     C_R   0.945826 0.707820 0.064821 0.549242
C44   C     C_R   0.054057 0.293552 0.933790 0.622013
H1    H     H_    0.476363 0.238131 0.398235 0.177921
H2    H     H_    0.523582 0.762808 0.601947 0.177732
H3    H     H_    0.024490 0.742053 0.100243 0.177677
H4    H     H_    0.975557 0.263071 0.897624 0.184439
C45   C     C_R   0.442974 0.819986 0.101039 -0.266008
C46   C     C_R   0.557841 0.178415 0.900412 -0.266520
C47   C     C_R   0.057436 0.320648 0.399584 -0.265164
C48   C     C_R   0.942403 0.679193 0.600027 -0.262526
H5    H     H_    0.472978 0.711438 0.101662 0.214817
H6    H     H_    0.527583 0.285985 0.899671 0.213019
H7    H     H_    0.027158 0.212892 0.398582 0.213310
H8    H     H_    0.972669 0.786966 0.600900 0.214041
C49   C     C_R   0.404809 0.803097 0.142385 0.299391
C50   C     C_R   0.595892 0.196254 0.858991 0.304619
C51   C     C_R   0.095650 0.303273 0.358364 0.303889
C52   C     C_R   0.904234 0.696857 0.641297 0.304288
C53   C     C_R   0.365757 0.947734 0.142199 -0.405095
C54   C     C_R   0.635199 0.052811 0.859112 -0.400631
C55   C     C_R   0.134995 0.446891 0.358816 -0.400047
C56   C     C_R   0.864917 0.553132 0.641029 -0.400661
C57   C     C_R   0.368776 0.112215 0.102672 0.449997
C58   C     C_R   0.633219 0.890211 0.899595 0.431894
C59   C     C_R   0.132873 0.609364 0.399353 0.431714
C60   C     C_R   0.866985 0.390516 0.600527 0.431821
C61   C     C_R   0.406344 0.120987 0.059500 0.413934
C62   C     C_R   0.595601 0.880071 0.942693 0.425622
C63   C     C_R   0.095079 0.619124 0.442242 0.424844
C64   C     C_R   0.904731 0.380535 0.557578 0.425376
C65   C     C_R   0.443951 0.976817 0.060056 -0.054525
C66   C     C_R   0.557361 0.022033 0.941650 -0.055125
C67   C     C_R   0.056817 0.476873 0.440921 -0.054962
C68   C     C_R   0.942994 0.522734 0.558783 -0.055667
C69   C     C_1   0.484070 0.991348 0.018360 0.160673
C70   C     C_1   0.517289 0.006581 0.983379 0.159911
C71   C     C_1   0.016562 0.492028 0.482425 0.161551
C72   C     C_1   0.983219 0.507384 0.517242 0.162275
O21   O     O_3   0.572793 0.331898 0.392218 -0.699637
H9    H     H_    0.544000 0.373324 0.361577 0.353221
O22   O     O_3   0.427173 0.668702 0.607891 -0.700615
H10   H     H_    0.455961 0.627427 0.638563 0.352608
O23   O     O_3   0.928347 0.838836 0.106443 -0.699952
H11   H     H_    0.957322 0.880703 0.136796 0.353047
O24   O     O_3   0.071536 0.171751 0.889521 -0.644181
H12   H     H_    0.042648 0.135684 0.858194 0.348461
N1    N     N_R   0.418945 0.997698 0.349816 0.229767
O25   O     O_R   0.458135 0.892489 0.338214 -0.335920
O26   O     O_R   0.399559 0.120773 0.308065 -0.386236
N2    N     N_R   0.581047 0.003304 0.650276 0.229734
O27   O     O_R   0.600402 0.880389 0.692096 -0.386300
O28   O     O_R   0.541923 0.108918 0.661848 -0.336529
N3    N     N_R   0.081375 0.504232 0.149838 0.227761
O29   O     O_R   0.042202 0.400636 0.162628 -0.335509
O30   O     O_R   0.101107 0.630354 0.190466 -0.384941
N4    N     N_R   0.918768 0.503807 0.849507 0.230452
O31   O     O_R   0.899277 0.380845 0.807698 -0.385852
O32   O     O_R   0.958072 0.608693 0.837968 -0.329357
N5    N     N_R   0.269258 0.893199 0.466406 0.265665
O33   O     O_R   0.241415 0.038950 0.444426 -0.397621
O34   O     O_R   0.248198 0.757456 0.497189 -0.295729
N6    N     N_R   0.730715 0.106163 0.533516 0.265592
O35   O     O_R   0.758500 0.960324 0.555547 -0.398211
O36   O     O_R   0.751822 0.241564 0.502641 -0.296128
N7    N     N_R   0.229924 0.360323 0.036526 0.239259
O37   O     O_R   0.260235 0.508923 0.047524 -0.388975
O38   O     O_R   0.248768 0.193531 0.021915 -0.360222
N8    N     N_R   0.769548 0.609485 0.966725 0.265618
O39   O     O_R   0.741638 0.463057 0.945232 -0.397853
O40   O     O_R   0.748606 0.746034 0.997282 -0.296153
O41   O     O_3   0.665239 0.177226 0.427476 -0.623941
H13   H     H_    0.643907 0.114248 0.392445 0.363245
O42   O     O_3   0.334693 0.822678 0.572506 -0.624641
H14   H     H_    0.355957 0.885884 0.607548 0.362551
O43   O     O_3   0.835421 0.684480 0.072257 -0.624172
H15   H     H_    0.856837 0.623058 0.107471 0.363496
O44   O     O_3   0.161146 0.287439 0.927509 -0.630219
H16   H     H_    0.197655 0.325137 0.928184 0.362866
N9    N     N_R   0.408915 0.645805 0.186688 0.261590
O45   O     O_R   0.431107 0.484322 0.173208 -0.372400
O46   O     O_R   0.400868 0.676523 0.244363 -0.319487
N10   N     N_R   0.591667 0.354161 0.814979 0.260768
O47   O     O_R   0.570797 0.517248 0.829514 -0.374763
O48   O     O_R   0.598482 0.323550 0.756915 -0.318948
N11   N     N_R   0.091545 0.145761 0.314149 0.261205
O49   O     O_R   0.070800 0.982124 0.328467 -0.372898
O50   O     O_R   0.098368 0.177152 0.256131 -0.321434
N12   N     N_R   0.908343 0.854929 0.685313 0.261363
O51   O     O_R   0.929187 0.018206 0.670827 -0.372229
O52   O     O_R   0.901450 0.824403 0.743351 -0.318630
O53   O     O_3   0.335318 0.264603 0.107858 -0.658331
H17   H     H_    0.351667 0.386712 0.095866 0.356019
O54   O     O_3   0.668005 0.741520 0.895776 -0.671955
H18   H     H_    0.651855 0.617791 0.906690 0.359604
O55   O     O_3   0.167680 0.758319 0.395774 -0.671496
H19   H     H_    0.151477 0.881910 0.406655 0.359504
O56   O     O_3   0.832159 0.241665 0.604187 -0.671902
H20   H     H_    0.848306 0.118013 0.593263 0.359629
O57   O     O_3   0.406956 0.267953 0.015953 -0.731752
H21   H     H_    0.371341 0.314012 0.004929 0.355114
O58   O     O_3   0.595582 0.734233 0.986714 -0.727834
H22   H     H_    0.631286 0.688891 0.997478 0.361929
O59   O     O_3   0.094902 0.764866 0.486323 -0.727396
H23   H     H_    0.130579 0.810520 0.497269 0.362000
O60   O     O_3   0.904860 0.234617 0.513551 -0.728174
H24   H     H_    0.869167 0.189089 0.502631 0.361660

loop_
_geom_bond_atom_site_label_1
_geom_bond_atom_site_label_2
_geom_bond_distance
_ccdc_geom_bond_type
O17   V3    1.691373 S    
C67   C71   1.455479 S    
O60   H24   0.990260 S    
O1    C5    1.292513 A    
C69   C70   1.213417 T    
C55   C59   1.424066 A    
O19   V1    1.690173 S    
C9    C21   1.420746 A    
O59   H23   0.990264 S    
O21   H9    0.991732 S    
O3    C7    1.291373 A    
O56   H20   0.989979 S    
C10   C18   1.406605 A    
O1    V3    1.989394 S    
C42   O22   1.383496 S    
C11   C23   1.420270 A    
N6    O35   1.301218 A    
C48   C52   1.410665 A    
N9    O45   1.301527 A    
C25   C33   1.438326 A    
C33   C38   1.403836 A    
C46   C66   1.397754 A    
C5    C12   1.491788 S    
C20   N7    1.431623 S    
O7    C3    1.317143 A    
C6    C11   1.490155 S    
C2    C56   1.510190 S    
C35   C40   1.402267 A    
O53   H17   0.989661 S    
C36   C39   1.404586 A    
C40   C44   1.400356 A    
O9    V1    1.994318 S    
N10   O48   1.300219 A    
C14   C18   1.403304 A    
O4    C8    1.291398 A    
C63   C67   1.398466 A    
C62   C66   1.398223 A    
O44   H16   0.988822 S    
C60   C64   1.424433 A    
O13   V1    1.975268 S    
N2    O27   1.301238 A    
C38   H2    1.079363 S    
O2    V4    1.989389 S    
C41   O21   1.383488 S    
C58   O54   1.378819 S    
O3    V1    1.990147 S    
C28   C36   1.439909 A    
C18   N5    1.435683 S    
C52   N12   1.440403 S    
C1    O15   1.309166 A    
C68   C72   1.455485 S    
C15   C31   1.418594 A    
O24   H12   0.991800 S    
C2    O16   1.309296 A    
C16   C32   1.414104 A    
C64   O60   1.382257 S    
O2    C6    1.291530 A    
N11   O49   1.301439 A    
C10   C22   1.420795 A    
C11   C19   1.406760 A    
C16   C20   1.412866 A    
C51   N11   1.440298 S    
C13   C29   1.418554 A    
C34   C37   1.403874 A    
O11   C7    1.294206 A    
O15   V3    1.974989 S    
C35   C36   1.426789 A    
O12   C8    1.294136 A    
C13   O41   1.380449 S    
N11   O50   1.300336 A    
C13   C17   1.403377 A    
C17   N6    1.435709 S    
O10   V2    1.994315 S    
C45   C49   1.411223 A    
N9    O46   1.300196 A    
C43   O23   1.383447 S    
C58   C62   1.424229 A    
C24   N3    1.438431 S    
O5    V1    1.973161 S    
N3    O30   1.301249 A    
O17   V1    2.145213 S    
C39   C43   1.402394 A    
O7    V3    1.972735 S    
C38   C42   1.401968 A    
O19   V3    2.146905 S    
C26   C34   1.438373 A    
C15   O43   1.380466 S    
C48   C68   1.397771 A    
O20   V4    2.146903 S    
N10   O47   1.301455 A    
C54   C58   1.424270 A    
O58   H22   0.990262 S    
C53   C57   1.424862 A    
O18   V4    1.691375 S    
C23   N4    1.438477 S    
C15   C19   1.403715 A    
C32   C44   1.414571 A    
C59   C63   1.424385 A    
O4    V2    1.990152 S    
C44   O24   1.383686 S    
O8    V4    1.972735 S    
C19   N8    1.435558 S    
C45   C65   1.397674 A    
O5    C1    1.316248 A    
C50   N10   1.440395 S    
O54   H18   0.989975 S    
C14   C30   1.418562 A    
C21   C25   1.436943 A    
O8    C4    1.316402 A    
C7    C10   1.490296 S    
C47   C67   1.397876 A    
O9    C5    1.293456 A    
C56   C60   1.424210 A    
N3    O29   1.301583 A    
O11   V3    1.992958 S    
C63   O59   1.382266 S    
C51   C55   1.426521 A    
N12   O51   1.301444 A    
N2    O28   1.301590 A    
O14   V2    1.975264 S    
C60   O56   1.378834 S    
O6    V2    1.973163 S    
C39   H3    1.079048 S    
O18   V2    2.145213 S    
C49   N9    1.441275 S    
N5    O33   1.301216 A    
C12   C20   1.405294 A    
C27   C35   1.438131 A    
O22   H10   0.991732 S    
N4    O32   1.301598 A    
N7    O37   1.300776 A    
C61   C65   1.397834 A    
C46   C50   1.410596 A    
C29   C41   1.413113 A    
N1    O25   1.301602 A    
O16   V4    1.974992 S    
C14   O42   1.380445 S    
C37   H1    1.079362 S    
C3    O13   1.309167 A    
C22   N1    1.438324 S    
N12   O52   1.300225 A    
C48   H8    1.083814 S    
N7    O38   1.301617 A    
N6    O36   1.301477 A    
C62   O58   1.382263 S    
O6    C2    1.316239 A    
C23   C27   1.436864 A    
O42   H14   0.991200 S    
C57   O53   1.379228 S    
N8    O39   1.301224 A    
C30   C42   1.413143 A    
O12   V4    1.992959 S    
O41   H13   0.991198 S    
C22   C26   1.437048 A    
C8    C9    1.490245 S    
C4    C54   1.509989 S    
C9    C17   1.406659 A    
O10   C6    1.293715 A    
O20   V2    1.690172 S    
C31   C43   1.412873 A    
C26   C30   1.418892 A    
C66   C70   1.455146 S    
O23   H11   0.991726 S    
C1    C55   1.509958 S    
C50   C54   1.426682 A    
C21   N2    1.438321 S    
C47   C51   1.410640 A    
C33   C34   1.426821 A    
C52   C56   1.426767 A    
O55   H19   0.990018 S    
C3    C53   1.511261 S    
C25   C29   1.418810 A    
C64   C68   1.398384 A    
N8    O40   1.301494 A    
C12   C24   1.419666 A    
C27   C31   1.418081 A    
C40   H4    1.079072 S    
C57   C61   1.423943 A    
C49   C53   1.427504 A    
C61   O57   1.382123 S    
C37   C41   1.401991 A    
O57   H21   0.990467 S    
C24   C28   1.437446 A    
C46   H6    1.083816 S    
C16   O44   1.384361 S    
C4    O14   1.309241 A    
C71   C72   1.213627 T    
N5    O34   1.301478 A    
C45   H5    1.083749 S    
C59   O55   1.378806 S    
N4    O31   1.301245 A    
O43   H15   0.991168 S    
C47   H7    1.083811 S    
C65   C69   1.455159 S    
C28   C32   1.421315 A    
N1    O26   1.301237 A    
