data_mof_unit_13005.cif
_audit_creation_date              2012-12-10T20:32:39-0500
_audit_creation_method            fapswitch 2.2
_symmetry_space_group_name_H-M    P1
_symmetry_Int_Tables_number       1
_space_group_crystal_system       triclinic
_cell_length_a                    11.511054
_cell_length_b                    10.749909
_cell_length_c                    9.914537
_cell_angle_alpha                 89.998943
_cell_angle_beta                  89.668115
_cell_angle_gamma                 90.062776
_cell_volume                      1226.83108156

loop_
_atom_site_label
_atom_site_type_symbol
_atom_type_description
_atom_site_fract_x
_atom_site_fract_y
_atom_site_fract_z
_atom_type_partial_charge
C1    C     C_R   0.508799 0.260935 0.499562 0.888088
C2    C     C_R   0.526712 0.129671 0.498059 -0.172787
C3    C     C_R   0.560915 0.067271 0.379090 0.148498
C4    C     C_R   0.553509 0.937290 0.375358 0.135716
C5    C     C_R   0.526325 0.872258 0.496432 -0.182289
C6    C     C_R   0.514476 0.937006 0.617440 -0.044606
C7    C     C_3   0.591486 0.934794 0.740230 0.052423
C8    C     C_3   0.578356 0.075680 0.746059 0.007609
C9    C     C_R   0.407705 0.452589 0.070910 0.019782
C10   C     C_R   0.596592 0.533750 0.070253 0.241187
C11   C     C_R   0.596058 0.532251 0.926789 -0.216400
C12   C     C_R   0.282081 0.499285 0.500491 0.917777
C13   C     C_R   0.407787 0.453210 0.929250 0.076248
C14   C     C_3   0.283665 0.492851 0.920892 -0.025304
C15   C     C_3   0.281525 0.488734 0.076074 -0.021350
C16   C     C_R   0.508542 0.739791 0.499204 0.909346
C17   C     C_R   0.717933 0.499730 0.499767 0.880770
C18   C     C_1   0.161606 0.497584 0.502012 -0.194031
C19   C     C_1   0.059308 0.497004 0.502591 -0.037090
C20   C     C_1   0.940644 0.497600 0.501255 -0.021293
C21   C     C_1   0.838393 0.498598 0.499874 -0.188269
C22   C     C_R   0.509805 0.064656 0.617707 -0.048011
H1    H     H_    0.227718 0.411436 0.117626 0.127808
N1    N     N_R   0.499240 0.499140 0.142800 -0.108726
N2    N     N_R   0.499240 0.499180 0.857150 -0.102600
O1    O     O_R   0.500010 0.316790 0.614690 -0.629046
O2    O     O_R   0.500000 0.316760 0.385350 -0.589229
O3    O     O_R   0.334450 0.500030 0.614670 -0.590053
O4    O     O_R   0.334440 0.500000 0.385330 -0.590674
O5    O     O_R   0.500000 0.683240 0.614650 -0.619663
O6    O     O_R   0.499990 0.683210 0.385310 -0.579807
O7    O     O_R   0.665560 0.500000 0.614670 -0.645999
O8    O     O_R   0.665550 0.499970 0.385330 -0.573183
Zn1   Zn    Zn3+2 0.500010 0.500020 0.653130 0.934564
Zn2   Zn    Zn3+2 0.499990 0.499980 0.346870 0.976021
N3    N     N_2   0.618896 0.133582 0.273585 -0.289090
H2    H     H_    0.702522 0.104462 0.253351 0.200612
C23   C     C_3   0.552642 0.164421 0.154691 -0.729613
H3    H     H_    0.575857 0.100525 0.071099 0.205028
H4    H     H_    0.575802 0.259848 0.122235 0.243421
H5    H     H_    0.457528 0.160641 0.174588 0.241337
H6    H     H_    0.228594 0.420818 0.872137 0.130573
N4    N     N_2   0.260697 0.607051 0.142653 -0.232115
H7    H     H_    0.304638 0.682547 0.104589 0.225228
C24   C     C_3   0.141119 0.631893 0.179247 -0.765370
H8    H     H_    0.137227 0.714280 0.246608 0.227879
H9    H     H_    0.102825 0.551263 0.233179 0.244150
H10   H     H_    0.088303 0.650124 0.088527 0.234952
N5    N     N_2   0.576292 0.872622 0.252337 -0.272137
H11   H     H_    0.648691 0.902019 0.199640 0.209209
C25   C     C_3   0.475870 0.855210 0.166862 -0.743899
H12   H     H_    0.454182 0.941218 0.111517 0.212502
H13   H     H_    0.398549 0.828542 0.227813 0.250981
H14   H     H_    0.494715 0.781213 0.091845 0.213559
H15   H     H_    0.551989 0.886530 0.828690 0.120276
N6    N     N_2   0.710753 0.898308 0.709137 -0.254782
H16   H     H_    0.740863 0.916044 0.612743 0.243433
C26   C     C_3   0.752524 0.784774 0.768400 -0.816259
H17   H     H_    0.848522 0.780475 0.758100 0.239123
H18   H     H_    0.714623 0.704998 0.714306 0.267470
H19   H     H_    0.729982 0.780988 0.877417 0.227878
H20   H     H_    0.523532 0.110263 0.830909 0.122284
N7    N     N_2   0.688388 0.142188 0.731576 -0.266455
H21   H     H_    0.686824 0.221241 0.673213 0.248905
C27   C     C_3   0.750969 0.161353 0.855878 -0.776919
H22   H     H_    0.840437 0.193721 0.832458 0.236591
H23   H     H_    0.756909 0.073341 0.914156 0.255862
H24   H     H_    0.706808 0.233521 0.917687 0.229767
N8    N     N_2   0.696677 0.578171 0.137495 -0.245612
H25   H     H_    0.716130 0.669046 0.112790 0.203882
C28   C     C_3   0.797267 0.498022 0.125398 -0.780293
H26   H     H_    0.867961 0.534261 0.190217 0.240954
H27   H     H_    0.829320 0.495466 0.019502 0.211997
H28   H     H_    0.775463 0.402100 0.159070 0.254910
H29   H     H_    0.673149 0.558850 0.872036 0.164954
N9    N     N_2   0.273145 0.615761 0.860108 -0.239296
H30   H     H_    0.334571 0.683134 0.880230 0.222814
C29   C     C_3   0.159580 0.658165 0.818832 -0.744845
H31   H     H_    0.165052 0.693202 0.713749 0.239361
H32   H     H_    0.131057 0.736327 0.884028 0.216884
H33   H     H_    0.094062 0.582218 0.823194 0.234482

loop_
_geom_bond_atom_site_label_1
_geom_bond_atom_site_label_2
_ccdc_geom_bond_type
N7    C27   S    
C12   O4    A    
C19   C20   S    
C7    H15   S    
C7    C8    S    
C24   H8    S    
C16   O6    A    
C12   O3    A    
N3    H2    S    
N9    C29   S    
C1    C2    S    
C5    C6    A    
C29   H32   S    
C27   H23   S    
C11   N2    A    
C26   H18   S    
C6    C22   A    
N6    H16   S    
C18   C19   T    
N8    C28   S    
C9    C13   A    
C5    C16   S    
O1    Zn1   S    
N5    C25   S    
C2    C22   A    
C8    C22   S    
N2    Zn1   S    
C14   H6    S    
C26   H19   S    
C15   H1    S    
O3    Zn1   S    
C13   C14   S    
C13   N2    A    
C17   O8    A    
C7    N6    S    
C24   H9    S    
N1    Zn2   S    
O5    Zn1   S    
C25   H12   S    
N9    H30   S    
C23   H5    S    
C28   H27   S    
C29   H31   S    
O2    Zn2   S    
C26   H17   S    
C17   C21   S    
C25   H13   S    
C14   N9    S    
N4    H7    S    
C27   H24   S    
N4    C24   S    
C8    H20   S    
C27   H22   S    
C1    O1    A    
O6    Zn2   S    
C3    C4    A    
C24   H10   S    
C4    C5    A    
C28   H28   S    
C9    N1    A    
C6    C7    S    
O4    Zn2   S    
C4    N5    S    
C25   H14   S    
C10   N1    A    
N3    C23   S    
C2    C3    A    
C9    C15   S    
C15   N4    S    
C28   H26   S    
C11   H29   S    
C23   H4    S    
C29   H33   S    
C23   H3    S    
C3    N3    S    
O8    Zn2   S    
N6    C26   S    
N8    H25   S    
C10   C11   A    
C8    N7    S    
N7    H21   S    
C10   N8    S    
C20   C21   T    
N5    H11   S    
C12   C18   S    
C1    O2    A    
C17   O7    A    
C14   C15   S    
C16   O5    A    
O7    Zn1   S    
