data_mof_unit_66339.cif
_audit_creation_date              2013-03-05T16:09:19-0500
_audit_creation_method            fapswitch 2.2
_symmetry_space_group_name_H-M    P1
_symmetry_Int_Tables_number       1
_space_group_crystal_system       monoclinic
_cell_length_a                    37.020188
_cell_length_b                    30.396901
_cell_length_c                    21.933623
_cell_angle_alpha                 90.0
_cell_angle_beta                  124.904615
_cell_angle_gamma                 90.0
_cell_volume                      20241.755779

loop_
_atom_site_label
_atom_site_type_symbol
_atom_site_description
_atom_site_fract_x
_atom_site_fract_y
_atom_site_fract_z
_atom_type_partial_charge
O1    O     O_R   0.435730 0.537200 0.935720 -0.589048
O2    O     O_R   0.564270 0.537200 0.064280 -0.589047
O3    O     O_R   0.935730 0.037200 0.935720 -0.589048
O4    O     O_R   0.064270 0.037200 0.064280 -0.589049
O5    O     O_R   0.435730 0.462800 0.935730 -0.583054
O6    O     O_R   0.564270 0.462800 0.064270 -0.583054
O7    O     O_R   0.935730 0.962800 0.935730 -0.583054
O8    O     O_R   0.064270 0.962800 0.064270 -0.583053
C1    C     C_R   0.414888 0.499993 0.914650 0.788818
C2    C     C_R   0.585112 0.499993 0.085350 0.788817
C3    C     C_R   0.914888 0.999993 0.914650 0.788823
C4    C     C_R   0.085112 0.999993 0.085350 0.788819
O9    O     O_R   0.500010 0.537200 0.910980 -0.584790
O10   O     O_R   0.499990 0.537200 0.089020 -0.584791
O11   O     O_R   0.000010 0.037200 0.910980 -0.584789
O12   O     O_R   0.999990 0.037200 0.089020 -0.584789
O13   O     O_R   0.500010 0.462800 0.910980 -0.568886
O14   O     O_R   0.499990 0.462800 0.089020 -0.568886
O15   O     O_R   0.000010 0.962800 0.910980 -0.568896
O16   O     O_R   0.999990 0.962800 0.089020 -0.568894
C5    C     C_R   0.503098 0.500175 0.885759 0.884556
C6    C     C_R   0.496901 0.500175 0.114241 0.884557
C7    C     C_R   0.003099 0.000175 0.885760 0.884567
C8    C     C_R   0.996901 0.000175 0.114240 0.884566
Cu1   Cu    Cu3+1 0.500000 0.544050 0.000000 0.993133
Cu2   Cu    Cu3+1 1.000000 0.044050 0.000000 0.993134
Cu3   Cu    Cu3+1 0.500000 0.455950 0.000000 1.021611
Cu4   Cu    Cu3+1 0.000000 0.955950 0.000000 1.021607
C9    C     C_R   0.000000 0.274107 0.499999 0.147965
C10   C     C_R   0.500000 0.774107 0.500000 0.147967
C11   C     C_R   0.998350 0.297367 0.443199 -0.149591
C12   C     C_R   0.001650 0.297367 0.556800 -0.149591
C13   C     C_R   0.498366 0.797368 0.443214 -0.149591
C14   C     C_R   0.501633 0.797368 0.556785 -0.149591
C15   C     C_R   0.000000 0.366501 0.500000 -0.033074
C16   C     C_R   0.500000 0.866501 0.500000 -0.033076
C17   C     C_R   0.998366 0.343186 0.443196 -0.177007
C18   C     C_R   0.001634 0.343186 0.556804 -0.177009
C19   C     C_R   0.498382 0.843186 0.443211 -0.177008
C20   C     C_R   0.501617 0.843186 0.556789 -0.177007
C21   C     C_2   0.527522 0.469737 0.744242 0.345522
C22   C     C_2   0.472478 0.469737 0.255758 0.345524
C23   C     C_2   0.027513 0.969729 0.744233 0.345502
C24   C     C_2   0.972486 0.969730 0.255766 0.345504
C25   C     C_2   0.495138 0.489053 0.679041 -0.256431
C26   C     C_2   0.504862 0.489054 0.320959 -0.256432
C27   C     C_2   0.995136 0.989060 0.679040 -0.256441
C28   C     C_2   0.004863 0.989058 0.320960 -0.256445
C29   C     C_2   0.523612 0.467040 0.807671 -0.114867
C30   C     C_2   0.476389 0.467040 0.192329 -0.114869
C31   C     C_2   0.023603 0.967034 0.807662 -0.114872
C32   C     C_2   0.976395 0.967035 0.192336 -0.114870
C33   C     C_2   0.509993 0.501837 0.826815 -0.325192
C34   C     C_2   0.490006 0.501837 0.173185 -0.325191
C35   C     C_2   0.009998 0.001836 0.826820 -0.325196
C36   C     C_2   0.990003 0.001836 0.173181 -0.325195
H1    H     H_    0.533064 0.436710 0.839499 0.192129
H2    H     H_    0.466936 0.436710 0.160501 0.192129
H3    H     H_    0.033044 0.936700 0.839478 0.192143
H4    H     H_    0.966953 0.936702 0.160518 0.192141
H5    H     H_    0.504690 0.533240 0.799113 0.150959
H6    H     H_    0.495309 0.533240 0.200886 0.150959
H7    H     H_    0.004706 0.033241 0.799130 0.150964
H8    H     H_    0.995297 0.033241 0.200873 0.150963
C37   C     C_R   0.297046 0.462082 0.812984 -0.147892
C38   C     C_R   0.702953 0.462082 0.187017 -0.147893
C39   C     C_R   0.797046 0.962082 0.812984 -0.147893
C40   C     C_R   0.202953 0.962082 0.187017 -0.147894
H9    H     H_    0.279335 0.432686 0.809245 0.143129
H10   H     H_    0.720665 0.432685 0.190756 0.143129
H11   H     H_    0.779335 0.932686 0.809245 0.143130
H12   H     H_    0.220665 0.932685 0.190755 0.143130
C41   C     C_R   0.342905 0.462132 0.859382 -0.151288
C42   C     C_R   0.657095 0.462132 0.140619 -0.151287
C43   C     C_R   0.842905 0.962132 0.859382 -0.151290
C44   C     C_R   0.157095 0.962132 0.140619 -0.151289
H13   H     H_    0.359814 0.432789 0.891103 0.163687
H14   H     H_    0.640186 0.432788 0.108898 0.163687
H15   H     H_    0.859814 0.932789 0.891103 0.163688
H16   H     H_    0.140186 0.932788 0.108898 0.163688
C45   C     C_R   0.366555 0.499914 0.865417 -0.029619
C46   C     C_R   0.633444 0.499914 0.134583 -0.029620
C47   C     C_R   0.866556 0.999914 0.865417 -0.029621
C48   C     C_R   0.133444 0.999914 0.134583 -0.029621
C49   C     C_R   0.343663 0.537477 0.823698 -0.158363
C50   C     C_R   0.656337 0.537477 0.176301 -0.158362
C51   C     C_R   0.843663 0.037477 0.823698 -0.158357
C52   C     C_R   0.156337 0.037477 0.176301 -0.158358
H17   H     H_    0.361201 0.566937 0.827146 0.161799
H18   H     H_    0.638799 0.566937 0.172852 0.161799
H19   H     H_    0.861201 0.066937 0.827147 0.161800
H20   H     H_    0.138799 0.066937 0.172853 0.161800
C53   C     C_R   0.297798 0.537166 0.776392 -0.143029
C54   C     C_R   0.702202 0.537166 0.223607 -0.143028
C55   C     C_R   0.797798 0.037166 0.776392 -0.143028
C56   C     C_R   0.202202 0.037166 0.223608 -0.143029
H21   H     H_    0.280649 0.566473 0.744793 0.146606
H22   H     H_    0.719351 0.566473 0.255206 0.146605
H23   H     H_    0.780649 0.066473 0.744793 0.146606
H24   H     H_    0.219351 0.066473 0.255207 0.146606
C57   C     C_R   0.274243 0.499554 0.771128 0.091771
C58   C     C_R   0.725758 0.499554 0.228872 0.091771
C59   C     C_R   0.774243 0.999554 0.771128 0.091771
C60   C     C_R   0.225757 0.999554 0.228872 0.091771
C61   C     C_R   0.203286 0.513088 0.648607 -0.147578
C62   C     C_R   0.796714 0.513088 0.351392 -0.147578
C63   C     C_R   0.703286 0.013088 0.648607 -0.147576
C64   C     C_R   0.296714 0.013088 0.351392 -0.147577
H25   H     H_    0.221227 0.523363 0.625690 0.145020
H26   H     H_    0.778773 0.523364 0.374309 0.145020
H27   H     H_    0.721227 0.023363 0.625690 0.145022
H28   H     H_    0.278773 0.023364 0.374309 0.145021
C65   C     C_R   0.157351 0.512794 0.603044 -0.154108
C66   C     C_R   0.842649 0.512794 0.396955 -0.154107
C67   C     C_R   0.657351 0.012794 0.603045 -0.154107
C68   C     C_R   0.342649 0.012794 0.396955 -0.154106
H29   H     H_    0.140535 0.523259 0.545743 0.160348
H30   H     H_    0.859465 0.523260 0.454256 0.160347
H31   H     H_    0.640535 0.023260 0.545744 0.160348
H32   H     H_    0.359465 0.023260 0.454256 0.160347
C69   C     C_R   0.133492 0.499687 0.631730 -0.017723
C70   C     C_R   0.866508 0.499687 0.368270 -0.017722
C71   C     C_R   0.633492 0.999687 0.631730 -0.017721
C72   C     C_R   0.366508 0.999687 0.368270 -0.017720
C73   C     C_R   0.156209 0.486510 0.706348 -0.144900
C74   C     C_R   0.843790 0.486509 0.293652 -0.144901
C75   C     C_R   0.656209 0.986509 0.706348 -0.144899
C76   C     C_R   0.343790 0.986509 0.293652 -0.144900
H33   H     H_    0.138553 0.476133 0.729721 0.160084
H34   H     H_    0.861447 0.476132 0.270280 0.160084
H35   H     H_    0.638552 0.976132 0.729720 0.160084
H36   H     H_    0.361447 0.976132 0.270280 0.160084
C77   C     C_R   0.202059 0.486149 0.751463 -0.147155
C78   C     C_R   0.797941 0.486148 0.248537 -0.147154
C79   C     C_R   0.702059 0.986149 0.751463 -0.147157
C80   C     C_R   0.297941 0.986148 0.248537 -0.147157
H37   H     H_    0.218992 0.475920 0.808917 0.146496
H38   H     H_    0.781008 0.475919 0.191083 0.146497
H39   H     H_    0.718992 0.975920 0.808917 0.146495
H40   H     H_    0.281008 0.975919 0.191083 0.146494
C81   C     C_R   0.225864 0.499582 0.722973 0.090681
C82   C     C_R   0.774136 0.499582 0.277027 0.090681
C83   C     C_R   0.725864 0.999582 0.722973 0.090681
C84   C     C_R   0.274136 0.999582 0.277027 0.090681
H41   H     H_    0.996512 0.280094 0.398309 0.143925
H42   H     H_    0.003488 0.280094 0.601690 0.143925
H43   H     H_    0.496542 0.780095 0.398336 0.143922
H44   H     H_    0.503458 0.780095 0.601664 0.143922
O17   O     O_R   0.537200 0.435730 0.537210 -0.543731
O18   O     O_R   0.462800 0.435730 0.462790 -0.543732
O19   O     O_R   0.037200 0.935730 0.537210 -0.543712
O20   O     O_R   0.962800 0.935730 0.462790 -0.543711
C85   C     C_R   0.500000 0.415034 0.500000 0.928825
C86   C     C_R   0.000000 0.915034 0.500001 0.928852
O21   O     O_R   0.537190 0.500000 0.626220 -0.550777
O22   O     O_R   0.462810 0.500000 0.373780 -0.550781
O23   O     O_R   0.037190 0.000000 0.626220 -0.550796
O24   O     O_R   0.962810 0.000000 0.373780 -0.550794
O25   O     O_R   0.462790 0.500000 0.551820 -0.568264
O26   O     O_R   0.537210 0.500000 0.448180 -0.568263
O27   O     O_R   0.962790 0.000000 0.551820 -0.568248
O28   O     O_R   0.037210 0.000000 0.448180 -0.568251
C87   C     C_R   0.499221 0.497020 0.616866 0.859495
C88   C     C_R   0.500779 0.497020 0.383134 0.859500
C89   C     C_R   0.999221 0.997021 0.616866 0.859518
C90   C     C_R   0.000779 0.997020 0.383134 0.859512
Cu5   Cu    Cu3+1 0.544050 0.500000 0.544060 1.134538
Cu6   Cu    Cu3+1 0.455950 0.500000 0.455940 1.134536
Cu7   Cu    Cu3+1 0.044050 0.000000 0.544060 1.134534
Cu8   Cu    Cu3+1 0.955950 0.000000 0.455940 1.134538
O29   O     O_R   0.537200 0.564270 0.537200 -0.563312
O30   O     O_R   0.462800 0.564270 0.462800 -0.563313
O31   O     O_R   0.037200 0.064270 0.537200 -0.563324
O32   O     O_R   0.962800 0.064270 0.462800 -0.563326
C91   C     C_R   0.500000 0.584968 0.500000 0.911115
C92   C     C_R   0.000000 0.084968 0.500000 0.911121
O33   O     O_R   0.000000 0.435740 0.448480 -0.595028
O34   O     O_R   0.000000 0.435740 0.551520 -0.595029
O35   O     O_R   0.500000 0.935740 0.448480 -0.595030
O36   O     O_R   0.500000 0.935740 0.551520 -0.595031
C93   C     C_R   0.000000 0.414872 0.500000 0.770515
C94   C     C_R   0.500000 0.914872 0.500000 0.770518
O37   O     O_R   0.064280 0.500010 0.512760 -0.598083
O38   O     O_R   0.935720 0.500010 0.487240 -0.598083
O39   O     O_R   0.564280 0.000010 0.512760 -0.598084
O40   O     O_R   0.435720 0.000010 0.487240 -0.598085
O41   O     O_R   0.064270 0.500010 0.615800 -0.562825
O42   O     O_R   0.935730 0.500010 0.384200 -0.562824
O43   O     O_R   0.564270 0.000010 0.615800 -0.562824
O44   O     O_R   0.435730 0.000010 0.384200 -0.562823
C95   C     C_R   0.085133 0.499921 0.584514 0.816790
C96   C     C_R   0.914867 0.499921 0.415486 0.816789
C97   C     C_R   0.585133 0.999921 0.584514 0.816793
C98   C     C_R   0.414867 0.999921 0.415486 0.816793
Cu9   Cu    Cu3+1 0.000010 0.500010 0.438990 1.029961
Cu10  Cu    Cu3+1 0.999990 0.500010 0.561010 1.029960
Cu11  Cu    Cu3+1 0.500010 0.000010 0.438990 1.029958
Cu12  Cu    Cu3+1 0.499990 0.000010 0.561010 1.029957
O45   O     O_R   0.000010 0.564280 0.448470 -0.548475
O46   O     O_R   0.999990 0.564280 0.551530 -0.548475
O47   O     O_R   0.500010 0.064280 0.448470 -0.548477
O48   O     O_R   0.499990 0.064280 0.551530 -0.548477
C99   C     C_R   0.000000 0.585077 0.500000 0.923335
C100  C     C_R   0.500000 0.085077 0.500000 0.923339
C101  C     C_R   0.506795 0.297441 0.452255 -0.186825
C102  C     C_R   0.493205 0.297441 0.547745 -0.186823
C103  C     C_R   0.006813 0.797441 0.452277 -0.186813
C104  C     C_R   0.993186 0.797440 0.547723 -0.186818
H45   H     H_    0.512718 0.279376 0.416175 0.191466
H46   H     H_    0.487283 0.279376 0.583825 0.191464
H47   H     H_    0.012748 0.779375 0.416213 0.191469
H48   H     H_    0.987251 0.779374 0.583786 0.191474
C105  C     C_R   0.507851 0.343468 0.452664 0.296509
C106  C     C_R   0.492149 0.343468 0.547336 0.296508
C107  C     C_R   0.007869 0.843468 0.452687 0.296512
C108  C     C_R   0.992129 0.843467 0.547313 0.296515
C109  C     C_R   0.500000 0.366826 0.500000 -0.244314
C110  C     C_R   1.000000 0.866826 0.500001 -0.244311
C111  C     C_R   0.500000 0.274403 0.500000 0.007710
C112  C     C_R   0.000000 0.774402 0.500000 0.007695
C113  C     C_R   0.026692 0.702973 0.566688 -0.192977
C114  C     C_R   0.973309 0.702973 0.433312 -0.192976
C115  C     C_R   0.526694 0.202973 0.566688 -0.192985
C116  C     C_R   0.473306 0.202973 0.433312 -0.192985
H49   H     H_    0.048069 0.720992 0.618031 0.193849
H50   H     H_    0.951932 0.720992 0.381969 0.193849
H51   H     H_    0.548073 0.220991 0.618030 0.193841
H52   H     H_    0.451927 0.220991 0.381970 0.193841
C117  C     C_R   0.027882 0.656964 0.567390 0.291214
C118  C     C_R   0.972118 0.656964 0.432609 0.291214
C119  C     C_R   0.527883 0.156964 0.567390 0.291215
C120  C     C_R   0.472116 0.156964 0.432610 0.291216
C121  C     C_R   0.000000 0.633507 0.500000 -0.277483
C122  C     C_R   0.500000 0.133507 0.500000 -0.277481
H53   H     H_    0.996931 0.360291 0.398547 0.163025
H54   H     H_    0.003069 0.360291 0.601453 0.163025
H55   H     H_    0.496962 0.860291 0.398575 0.163028
H56   H     H_    0.503038 0.860291 0.601425 0.163028
C123  C     C_R   0.000000 0.726017 0.500000 0.008952
C124  C     C_R   0.500000 0.226017 0.500000 0.008969
C125  C     C_R   0.473434 0.702513 0.515440 -0.209949
C126  C     C_R   0.526565 0.702513 0.484560 -0.209949
C127  C     C_R   0.973440 0.202513 0.515452 -0.209948
C128  C     C_R   0.026560 0.202513 0.484547 -0.209949
H57   H     H_    0.452886 0.720369 0.527504 0.181492
H58   H     H_    0.547114 0.720369 0.472496 0.181493
H59   H     H_    0.952896 0.220369 0.527526 0.181495
H60   H     H_    0.047103 0.220369 0.472473 0.181495
C129  C     C_R   0.473603 0.656527 0.516841 0.303921
C130  C     C_R   0.526397 0.656527 0.483159 0.303922
C131  C     C_R   0.973608 0.156528 0.516851 0.303927
C132  C     C_R   0.026392 0.156527 0.483148 0.303923
C133  C     C_R   0.500000 0.633203 0.500000 -0.262213
C134  C     C_R   0.000000 0.133204 0.500000 -0.262203
C135  C     C_R   0.500000 0.725642 0.500000 -0.031985
C136  C     C_R   1.000000 0.225643 0.499999 -0.031996
N1    N     N_R   0.565891 0.450230 0.753760 0.143019
O49   O     O_R   0.603237 0.450939 0.818909 -0.334437
O50   O     O_R   0.561882 0.424483 0.702827 -0.299961
N2    N     N_R   0.434110 0.450228 0.246241 0.143017
O51   O     O_R   0.396764 0.450937 0.181092 -0.334437
O52   O     O_R   0.438120 0.424481 0.297175 -0.299965
N3    N     N_R   0.065871 0.950201 0.753737 0.143019
O53   O     O_R   0.103215 0.950882 0.818888 -0.334429
O54   O     O_R   0.061847 0.924464 0.702782 -0.300017
N4    N     N_R   0.934126 0.950205 0.246259 0.143021
O55   O     O_R   0.896781 0.950889 0.181107 -0.334430
O56   O     O_R   0.938147 0.924467 0.297212 -0.300008
N5    N     N_R   0.516717 0.365619 0.404524 0.140414
O57   O     O_R   0.543406 0.399047 0.428492 -0.341531
O58   O     O_R   0.503657 0.348319 0.340725 -0.302233
N6    N     N_R   0.483285 0.365620 0.595476 0.140407
O59   O     O_R   0.456592 0.399045 0.571507 -0.341529
O60   O     O_R   0.496348 0.348322 0.659279 -0.302230
N7    N     N_R   0.016750 0.865619 0.404566 0.140413
O61   O     O_R   0.043439 0.899047 0.428546 -0.341494
O62   O     O_R   0.003704 0.848318 0.340774 -0.302236
N8    N     N_R   0.983247 0.865617 0.595432 0.140427
O63   O     O_R   0.956565 0.899051 0.571457 -0.341497
O64   O     O_R   0.996282 0.848311 0.659215 -0.302243
N9    N     N_R   0.058894 0.634836 0.636279 0.141612
O65   O     O_R   0.083506 0.603437 0.638467 -0.361706
O66   O     O_R   0.067711 0.650656 0.698560 -0.321232
N10   N     N_R   0.941106 0.634836 0.363720 0.141612
O67   O     O_R   0.916494 0.603438 0.361533 -0.361705
O68   O     O_R   0.932290 0.650656 0.301440 -0.321232
N11   N     N_R   0.558897 0.134835 0.636278 0.141611
O69   O     O_R   0.583508 0.103437 0.638463 -0.361710
O70   O     O_R   0.567715 0.150655 0.698560 -0.321233
N12   N     N_R   0.441103 0.134835 0.363722 0.141611
O71   O     O_R   0.416491 0.103437 0.361537 -0.361710
O72   O     O_R   0.432285 0.150655 0.301440 -0.321233
C137  C     C_2   0.450618 0.498822 0.662021 0.406812
H61   H     H_    0.431922 0.526648 0.626866 0.127756
O73   O     O_2   0.433559 0.474646 0.683253 -0.490921
C138  C     C_2   0.549381 0.498823 0.337978 0.406811
H62   H     H_    0.568077 0.526649 0.373133 0.127758
O74   O     O_2   0.566441 0.474648 0.316747 -0.490922
C139  C     C_2   0.950622 0.998849 0.662027 0.406791
H63   H     H_    0.931938 0.026682 0.626882 0.127791
O75   O     O_2   0.933552 0.974681 0.683250 -0.490934
C140  C     C_2   0.049378 0.998843 0.337974 0.406799
H64   H     H_    0.068065 0.026676 0.373120 0.127786
O76   O     O_2   0.066447 0.974675 0.316750 -0.490933
N13   N     N_R   0.448030 0.634237 0.537927 0.135062
O77   O     O_R   0.464903 0.601571 0.584621 -0.405959
O78   O     O_R   0.410603 0.650651 0.519641 -0.335753
N14   N     N_R   0.551970 0.634237 0.462073 0.135060
O79   O     O_R   0.535097 0.601571 0.415379 -0.405960
O80   O     O_R   0.589397 0.650652 0.480359 -0.335753
N15   N     N_R   0.948041 0.134237 0.537949 0.135056
O81   O     O_R   0.964918 0.101573 0.584646 -0.405998
O82   O     O_R   0.910614 0.150649 0.519666 -0.335755
N16   N     N_R   0.051960 0.134237 0.462053 0.135058
O83   O     O_R   0.035084 0.101572 0.415357 -0.405991
O84   O     O_R   0.089387 0.150649 0.480336 -0.335754

loop_
_geom_bond_atom_site_label_1
_geom_bond_atom_site_label_2
_geom_bond_distance
_ccdc_geom_bond_type
C77   H37   1.083329 S    
C51   H19   1.083044 S    
C80   H40   1.083329 S    
C79   H39   1.083329 S    
C125  H57   1.083358 S    
N10   O67   1.301301 A    
C120  N12   1.438171 S    
C27   C89   1.475494 S    
C55   H23   1.083258 S    
C118  N10   1.438168 S    
C4    C48   1.468457 S    
O17   C85   1.293099 A    
C100  C122  1.472101 S    
C13   H43   1.083083 S    
O23   Cu7   1.958488 S    
C14   H44   1.083083 S    
O21   Cu5   1.958488 S    
N6    O59   1.300250 A    
N11   O70   1.301373 A    
O4    C4    1.296114 A    
O30   C91   1.293128 A    
C102  C106  1.399503 A    
C130  C133  1.416749 A    
C132  N16   1.438851 S    
C116  H52   1.083761 S    
C41   C45   1.403722 A    
O36   C94   1.295885 A    
C62   C82   1.402656 A    
C67   C71   1.403833 A    
C125  C129  1.398093 A    
C50   H18   1.083044 S    
C53   C57   1.401992 A    
Cu5   O29   1.964651 S    
O16   Cu4   1.963813 S    
N16   O83   1.301118 A    
C2    C46   1.468457 S    
O13   C5    1.296994 A    
O7    Cu4   1.962941 S    
C11   C17   1.392753 A    
O15   C7    1.296992 A    
O20   Cu8   1.964654 S    
C117  N9    1.438168 S    
C40   H12   1.083304 S    
O18   Cu6   1.964654 S    
C120  C122  1.418668 A    
C106  N6    1.439630 S    
C30   C34   1.338469 D    
C107  N7    1.439636 S    
C138  H62   1.085479 S    
N5    O58   1.301603 A    
O8    Cu4   1.962935 S    
C15   C93   1.470332 S    
C63   C83   1.402657 A    
C64   C84   1.402658 A    
Cu8   O32   1.964652 S    
N3    O54   1.301081 A    
O33   Cu9   1.964692 S    
O3    Cu2   1.962946 S    
C48   C52   1.404190 A    
C59   C83   1.469130 S    
C7    C35   1.454928 S    
C102  C111  1.397081 A    
C8    C36   1.454926 S    
C25   C87   1.475505 S    
C38   H10   1.083305 S    
O28   Cu7   1.969083 S    
C29   C33   1.338471 D    
C119  C122  1.418667 A    
C31   C35   1.338477 D    
C75   H35   1.083086 S    
O36   Cu12  1.964692 S    
Cu9   Cu10  2.676767 S    
C11   H41   1.083086 S    
C73   H33   1.083086 S    
C74   C78   1.392173 A    
C128  C136  1.399050 A    
C72   C98   1.468259 S    
C74   H34   1.083085 S    
O39   Cu11  1.968065 S    
C23   C27   1.365694 D    
O27   C89   1.288619 A    
C24   C28   1.365694 D    
O44   Cu11  1.958113 S    
C113  H49   1.083761 S    
C37   C57   1.402137 A    
C43   C47   1.403719 A    
C39   C59   1.402139 A    
C6    C34   1.454924 S    
O5    C1    1.295774 A    
C113  C123  1.397316 A    
C61   C65   1.394885 A    
C108  C110  1.418436 A    
C115  H51   1.083761 S    
O22   Cu6   1.958491 S    
C38   C42   1.393045 A    
C114  C123  1.397319 A    
C29   H1    1.086372 S    
N1    O49   1.301109 A    
C22   N2    1.439949 S    
C32   H4    1.086370 S    
O5    Cu3   1.962941 S    
C49   C53   1.394088 A    
N13   O78   1.301387 A    
C35   H7    1.087382 S    
Cu12  O48   1.964640 S    
C36   H8    1.087385 S    
C85   C109  1.465383 S    
C24   C32   1.481103 S    
C79   C83   1.401467 A    
C103  H47   1.083721 S    
C126  C135  1.399051 A    
C26   C138  1.496556 S    
N14   O80   1.301393 A    
C17   H53   1.082907 S    
Cu9   O45   1.964640 S    
C140  O76   1.221601 D    
C127  C131  1.398092 A    
C10   C14   1.403090 A    
O13   Cu3   1.963811 S    
C15   C18   1.404259 A    
O3    C3    1.296112 A    
C107  C110  1.418427 A    
O23   C89   1.302326 A    
O24   Cu8   1.958491 S    
C131  C134  1.416738 A    
C129  N13   1.438848 S    
O21   C87   1.302324 A    
O34   Cu10  1.964692 S    
C68   H32   1.083020 S    
C69   C73   1.403958 A    
C137  H61   1.085478 S    
C102  H46   1.083719 S    
C71   C75   1.403958 A    
O8    C4    1.295775 A    
C21   N1    1.439954 S    
O15   Cu4   1.963811 S    
C116  C124  1.397325 A    
C54   C58   1.401992 A    
N4    O56   1.301077 A    
C22   C30   1.481100 S    
C65   H29   1.083019 S    
C67   H31   1.083019 S    
N15   O82   1.301376 A    
C39   C43   1.393045 A    
C53   H21   1.083256 S    
C19   H55   1.082901 S    
C61   H25   1.083225 S    
C101  C111  1.397083 A    
C41   H13   1.083071 S    
O14   C6    1.296994 A    
C63   H27   1.083225 S    
O40   C98   1.297084 A    
C16   C19   1.404256 A    
C71   C97   1.468259 S    
C44   H16   1.083074 S    
N2    O51   1.301111 A    
C69   C95   1.468259 S    
C70   C96   1.468259 S    
N9    O66   1.301376 A    
O19   Cu7   1.964654 S    
O42   C96   1.293840 A    
O10   C6    1.287666 A    
N10   O68   1.301378 A    
C23   N3    1.439954 S    
C43   H15   1.083073 S    
O33   C93   1.295889 A    
C56   H24   1.083257 S    
O25   C87   1.288628 A    
C117  C121  1.418668 A    
Cu11  Cu12  2.676767 S    
O43   C97   1.293838 A    
C65   C69   1.403835 A    
C114  C118  1.399023 A    
N6    O60   1.301610 A    
Cu7   O31   1.964651 S    
N8    O63   1.300246 A    
C58   C82   1.469127 S    
C45   C49   1.404189 A    
C47   C51   1.404192 A    
C52   C56   1.394088 A    
O41   Cu10  1.958113 S    
N7    O61   1.300250 A    
O17   Cu5   1.964654 S    
C44   C48   1.403721 A    
N3    O53   1.301111 A    
C130  N14   1.438843 S    
C103  C112  1.397071 A    
C126  H58   1.083358 S    
O48   C100  1.295208 A    
O26   C88   1.288630 A    
C75   C79   1.392173 A    
C9    C12   1.403088 A    
C76   C80   1.392173 A    
C18   H54   1.082904 S    
C12   H42   1.083085 S    
C54   H22   1.083258 S    
N16   O84   1.301382 A    
N12   O71   1.301298 A    
C22   C26   1.365695 D    
C21   C29   1.481101 S    
O28   C90   1.288624 A    
O42   Cu9   1.958113 S    
O18   C85   1.293096 A    
O37   Cu9   1.968065 S    
O38   C96   1.297084 A    
C125  C135  1.399051 A    
C72   C76   1.403959 A    
O35   C94   1.295885 A    
C138  O74   1.221603 D    
C101  C105  1.399501 A    
N5    O57   1.300247 A    
O45   C99   1.295208 A    
C119  N11   1.438171 S    
C42   C46   1.403721 A    
C115  C119  1.399023 A    
O12   Cu2   1.963813 S    
C30   H2    1.086369 S    
O1    C1    1.296112 A    
Cu5   Cu6   2.675588 S    
C49   H17   1.083045 S    
C24   N4    1.439959 S    
C34   H6    1.087383 S    
C3    C47   1.468457 S    
O38   Cu10  1.968063 S    
C127  C136  1.399053 A    
C64   H28   1.083222 S    
C126  C130  1.398093 A    
C111  C124  1.470781 S    
C27   C139  1.496555 S    
C139  H63   1.085477 S    
C78   C82   1.401466 A    
N11   O69   1.301299 A    
C103  C107  1.399507 A    
C21   C25   1.365697 D    
C127  H59   1.083356 S    
C40   C44   1.393045 A    
O24   C90   1.302320 A    
C132  C134  1.416727 A    
C68   C72   1.403831 A    
C15   C17   1.404260 A    
C108  N8    1.439639 S    
C40   C60   1.402139 A    
O6    C2    1.295775 A    
O4    Cu2   1.962940 S    
C77   C81   1.401465 A    
C64   C68   1.394888 A    
C80   C84   1.401466 A    
C46   C50   1.404191 A    
C23   C31   1.481103 S    
C37   H9    1.083308 S    
O2    Cu1   1.962940 S    
C39   H11   1.083306 S    
O10   Cu1   1.963813 S    
O32   C92   1.293127 A    
O34   C93   1.295885 A    
C92   C134  1.466216 S    
C128  H60   1.083347 S    
Cu6   O30   1.964652 S    
C28   C90   1.475499 S    
C9    C11   1.403086 A    
N13   O77   1.301125 A    
C42   H14   1.083072 S    
C113  C117  1.399023 A    
O40   Cu12  1.968063 S    
O43   Cu12  1.958113 S    
C104  C112  1.397072 A    
N15   O81   1.301111 A    
Cu7   Cu8   2.675588 S    
C38   C58   1.402139 A    
Cu10  O46   1.964640 S    
O7    C3    1.295774 A    
C13   C19   1.392753 A    
C62   C66   1.394888 A    
C14   C20   1.392753 A    
N7    O62   1.301607 A    
C99   C121  1.472107 S    
C28   C140  1.496556 S    
C115  C124  1.397324 A    
C116  C120  1.399020 A    
C61   C81   1.402658 A    
O26   Cu5   1.969083 S    
C114  H50   1.083760 S    
C129  C133  1.416749 A    
C37   C41   1.393045 A    
O25   Cu6   1.969081 S    
C118  C121  1.418669 A    
C9    C136  1.473180 S    
C50   C54   1.394088 A    
C57   C81   1.469130 S    
C52   H20   1.083045 S    
C55   C59   1.401989 A    
C20   H56   1.082903 S    
C60   C84   1.469127 S    
C112  C123  1.470769 S    
Cu11  O47   1.964640 S    
C12   C18   1.392756 A    
C86   C110  1.465389 S    
O41   C95   1.293838 A    
C104  H48   1.083723 S    
O11   C7    1.287670 A    
O12   C8    1.287670 A    
C26   C88   1.475508 S    
O1    Cu1   1.962946 S    
O9    Cu1   1.963811 S    
C33   H5    1.087382 S    
C76   H36   1.083086 S    
C91   C133  1.466210 S    
O9    C5    1.287666 A    
O16   C8    1.296992 A    
C16   C20   1.404254 A    
N2    O52   1.301076 A    
C105  C109  1.418419 A    
O11   Cu2   1.963811 S    
O35   Cu11  1.964692 S    
N9    O65   1.301298 A    
O29   C91   1.293128 A    
C51   C55   1.394088 A    
N1    O50   1.301078 A    
C70   C74   1.403958 A    
O6    Cu3   1.962935 S    
C101  H45   1.083718 S    
C139  O75   1.221605 D    
C63   C67   1.394885 A    
C66   H30   1.083021 S    
O19   C86   1.293097 A    
O27   Cu8   1.969081 S    
O20   C86   1.293101 A    
O47   C100  1.295208 A    
N8    O64   1.301601 A    
C31   H3    1.086369 S    
O2    C2    1.296114 A    
N14   O79   1.301127 A    
C62   H26   1.083223 S    
O31   C92   1.293127 A    
C73   C77   1.392173 A    
C140  H64   1.085477 S    
C131  N15   1.438844 S    
C128  C132  1.398092 A    
C10   C13   1.403090 A    
C25   C137  1.496560 S    
O14   Cu3   1.963813 S    
O39   C97   1.297086 A    
C106  C109  1.418415 A    
O37   C95   1.297086 A    
C78   H38   1.083330 S    
Cu1   Cu3   2.677964 S    
Cu2   Cu4   2.677964 S    
C56   C60   1.401994 A    
C137  O73   1.221604 D    
C5    C33   1.454926 S    
O46   C99   1.295208 A    
N12   O72   1.301373 A    
N4    O55   1.301111 A    
O44   C98   1.293840 A    
C66   C70   1.403830 A    
C16   C94   1.470328 S    
O22   C88   1.302316 A    
C104  C108  1.399505 A    
C105  N5    1.439636 S    
C10   C135  1.473183 S    
C32   C36   1.338477 D    
C1    C45   1.468457 S    
