data_mof_unit_66419.cif
_audit_creation_date              2012-12-10T19:06:14-0500
_audit_creation_method            fapswitch 2.2
_symmetry_space_group_name_H-M    P1
_symmetry_Int_Tables_number       1
_space_group_crystal_system       orthorhombic
_cell_length_a                    25.760672
_cell_length_b                    34.548455
_cell_length_c                    34.549627
_cell_angle_alpha                 90.0
_cell_angle_beta                  90.0
_cell_angle_gamma                 90.0
_cell_volume                      30748.8715031

loop_
_atom_site_label
_atom_site_type_symbol
_atom_type_description
_atom_site_fract_x
_atom_site_fract_y
_atom_site_fract_z
_atom_type_partial_charge
C1    C     C_R   0.391359 0.250038 0.999977 0.498840
C2    C     C_R   0.891359 0.250038 0.000052 0.498840
C3    C     C_3   0.949095 0.750171 0.999843 0.067721
C4    C     C_3   0.550904 0.249829 0.499844 0.067720
C5    C     C_3   0.550904 0.749828 0.500186 0.065903
C6    C     C_3   0.449096 0.249829 0.499844 0.067720
C7    C     C_3   0.449096 0.749828 0.500186 0.065903
C8    C     C_3   0.550904 0.750172 0.000186 0.067722
C9    C     C_3   0.550904 0.250172 0.999843 0.065902
C10   C     C_3   0.449096 0.750172 0.000186 0.067722
C11   C     C_3   0.449096 0.250172 0.999843 0.065902
C12   C     C_3   0.050904 0.750172 0.500186 0.065903
C13   C     C_R   0.108641 0.750037 0.999977 0.497478
C14   C     C_3   0.050904 0.249828 0.500186 0.067722
C15   C     C_3   0.949095 0.750172 0.500186 0.065903
C16   C     C_3   0.949095 0.249828 0.500186 0.067722
C17   C     C_R   0.270753 0.458152 0.968518 -0.124724
C18   C     C_R   0.292468 0.541856 0.984904 -0.124350
C19   C     C_R   0.729247 0.458152 0.968518 -0.124724
C20   C     C_R   0.707532 0.541856 0.984904 -0.124350
C21   C     C_R   0.792473 0.458144 0.484909 -0.124339
C22   C     C_R   0.770759 0.541847 0.468522 -0.124691
C23   C     C_R   0.207527 0.458144 0.484909 -0.124339
C24   C     C_R   0.108641 0.250038 0.000052 0.498840
C25   C     C_R   0.229240 0.541847 0.468523 -0.124691
C26   C     C_R   0.792449 0.958145 0.984875 -0.124373
C27   C     C_R   0.770721 0.041849 0.968506 -0.124710
C28   C     C_R   0.207551 0.958145 0.984875 -0.124373
C29   C     C_R   0.229279 0.041849 0.968506 -0.124710
C30   C     C_R   0.270725 0.958151 0.468510 -0.124710
C31   C     C_R   0.292453 0.041855 0.484877 -0.124374
C32   C     C_R   0.729274 0.958151 0.468510 -0.124710
C33   C     C_R   0.707547 0.041855 0.484878 -0.124374
C34   C     C_R   0.271095 0.417876 0.968653 -0.128241
C35   C     C_R   0.391359 0.749962 0.500052 0.498840
C36   C     C_R   0.292292 0.582132 0.984648 -0.127351
C37   C     C_R   0.728905 0.417876 0.968653 -0.128241
C38   C     C_R   0.707708 0.582132 0.984648 -0.127351
C39   C     C_R   0.792295 0.417868 0.484651 -0.127341
C40   C     C_R   0.771100 0.582123 0.468656 -0.128173
C41   C     C_R   0.207704 0.417868 0.484651 -0.127340
C42   C     C_R   0.228900 0.582123 0.468656 -0.128174
C43   C     C_R   0.792272 0.917869 0.984617 -0.127381
C44   C     C_R   0.771064 0.082125 0.968641 -0.128195
C45   C     C_R   0.207728 0.917869 0.984617 -0.127381
C46   C     C_R   0.391359 0.249963 0.499977 0.497478
C47   C     C_R   0.228936 0.082125 0.968641 -0.128195
C48   C     C_R   0.271067 0.917876 0.468644 -0.128187
C49   C     C_R   0.292274 0.082131 0.484619 -0.127379
C50   C     C_R   0.728932 0.917876 0.468644 -0.128187
C51   C     C_R   0.707725 0.082131 0.484619 -0.127380
C52   C     C_R   0.249982 0.397490 0.000013 0.037304
C53   C     C_R   0.249982 0.602516 0.000013 0.038246
C54   C     C_R   0.750018 0.397490 0.000013 0.037304
C55   C     C_R   0.750017 0.602516 0.000013 0.038246
C56   C     C_R   0.749984 0.397484 0.500014 0.038245
C57   C     C_R   0.608641 0.749962 0.500052 0.498840
C58   C     C_R   0.749985 0.602510 0.500015 0.037277
C59   C     C_R   0.250016 0.397484 0.500014 0.038245
C60   C     C_R   0.250015 0.602510 0.500015 0.037277
C61   C     C_R   0.749983 0.897484 0.000013 0.038283
C62   C     C_R   0.749982 0.102511 0.000013 0.037266
C63   C     C_R   0.250017 0.897484 0.000013 0.038283
C64   C     C_R   0.250018 0.102511 0.000013 0.037266
C65   C     C_R   0.249985 0.897489 0.500015 0.037292
C66   C     C_R   0.249984 0.102515 0.500014 0.038284
C67   C     C_R   0.750015 0.897489 0.500015 0.037292
C68   C     C_R   0.608641 0.249963 0.499977 0.497478
C69   C     C_R   0.750015 0.102515 0.500014 0.038284
C70   C     C_R   0.250016 0.144888 0.000014 0.499293
C71   C     C_R   0.250016 0.855110 0.000014 0.500318
C72   C     C_R   0.749984 0.144888 0.000014 0.499293
C73   C     C_R   0.749984 0.855110 0.000014 0.500318
C74   C     C_R   0.750015 0.144890 0.500015 0.500316
C75   C     C_R   0.750015 0.855112 0.500015 0.499382
C76   C     C_R   0.249984 0.144890 0.500015 0.500316
C77   C     C_R   0.249985 0.855112 0.500015 0.499382
C78   C     C_R   0.750016 0.644890 0.000014 0.500151
C79   C     C_R   0.207703 0.234617 0.667894 -0.127370
C80   C     C_R   0.750016 0.355112 0.000014 0.499477
C81   C     C_R   0.249984 0.644890 0.000014 0.500151
C82   C     C_R   0.249984 0.355112 0.000014 0.499477
C83   C     C_R   0.250015 0.644888 0.500015 0.499389
C84   C     C_R   0.250016 0.355110 0.500015 0.500153
C85   C     C_R   0.749985 0.644888 0.500015 0.499389
C86   C     C_R   0.749984 0.355110 0.500015 0.500153
C87   C     C_R   0.228868 0.417877 0.031372 -0.128239
C88   C     C_R   0.207672 0.582132 0.015377 -0.127349
C89   C     C_R   0.771132 0.417877 0.031372 -0.128239
C90   C     C_R   0.228900 0.781368 0.667900 -0.128251
C91   C     C_R   0.792328 0.582132 0.015377 -0.127349
C92   C     C_R   0.707674 0.417868 0.515379 -0.127352
C93   C     C_R   0.728871 0.582123 0.531375 -0.128246
C94   C     C_R   0.292326 0.417868 0.515378 -0.127351
C95   C     C_R   0.271129 0.582123 0.531375 -0.128246
C96   C     C_R   0.707692 0.917869 0.015407 -0.127380
C97   C     C_R   0.728899 0.082124 0.031384 -0.128193
C98   C     C_R   0.292308 0.917869 0.015407 -0.127380
C99   C     C_R   0.271101 0.082124 0.031384 -0.128192
C100  C     C_R   0.228904 0.917875 0.531387 -0.128260
C101  C     C_R   0.792297 0.234617 0.667894 -0.127370
C102  C     C_R   0.207695 0.082131 0.515411 -0.127390
C103  C     C_R   0.771096 0.917875 0.531387 -0.128260
C104  C     C_R   0.792305 0.082131 0.515410 -0.127391
C105  C     C_R   0.229208 0.458153 0.031505 -0.124720
C106  C     C_R   0.207493 0.541856 0.015118 -0.124348
C107  C     C_R   0.770792 0.458153 0.031505 -0.124720
C108  C     C_R   0.792506 0.541856 0.015119 -0.124348
C109  C     C_R   0.707498 0.458144 0.515122 -0.124348
C110  C     C_R   0.729213 0.541847 0.531509 -0.124720
C111  C     C_R   0.292502 0.458144 0.515122 -0.124348
C112  C     C_R   0.391359 0.750038 0.000052 0.497479
C113  C     C_R   0.771100 0.781368 0.667900 -0.128251
C114  C     C_R   0.270787 0.541847 0.531509 -0.124720
C115  C     C_R   0.707513 0.958145 0.015149 -0.124371
C116  C     C_R   0.729240 0.041848 0.031517 -0.124706
C117  C     C_R   0.292487 0.958145 0.015149 -0.124372
C118  C     C_R   0.270760 0.041848 0.031517 -0.124707
C119  C     C_R   0.229247 0.958151 0.531522 -0.124739
C120  C     C_R   0.207518 0.041855 0.515153 -0.124383
C121  C     C_R   0.770753 0.958151 0.531522 -0.124740
C122  C     C_R   0.792482 0.041855 0.515153 -0.124383
C123  C     C_R   0.249980 0.478669 0.000011 0.033555
C124  C     C_R   0.728894 0.218636 0.167901 -0.128183
C125  C     C_R   0.249980 0.521340 0.000011 0.033771
C126  C     C_R   0.750020 0.478669 0.000011 0.033555
C127  C     C_R   0.750020 0.521340 0.000011 0.033771
C128  C     C_R   0.749986 0.478660 0.500016 0.033766
C129  C     C_R   0.749986 0.521331 0.500016 0.033545
C130  C     C_R   0.250014 0.478660 0.500016 0.033766
C131  C     C_R   0.250014 0.521331 0.500016 0.033545
C132  C     C_R   0.749980 0.978661 0.000011 0.033790
C133  C     C_R   0.749980 0.021332 0.000011 0.033543
C134  C     C_R   0.250020 0.978661 0.000011 0.033790
C135  C     C_R   0.707705 0.765385 0.167895 -0.127363
C136  C     C_R   0.250020 0.021332 0.000011 0.033543
C137  C     C_R   0.249986 0.978668 0.500016 0.033553
C138  C     C_R   0.249986 0.021339 0.500016 0.033795
C139  C     C_R   0.750014 0.978668 0.500016 0.033553
C140  C     C_R   0.750014 0.021339 0.500016 0.033795
C141  C     C_R   0.250000 0.250000 0.105140 0.499387
C142  C     C_R   0.249999 0.750001 0.105138 0.500239
C143  C     C_R   0.750000 0.250000 0.105140 0.499387
C144  C     C_R   0.750001 0.750001 0.105138 0.500239
C145  C     C_R   0.749999 0.249999 0.605138 0.500237
C146  C     C_R   0.271106 0.218636 0.167901 -0.128183
C147  C     C_R   0.750000 0.750000 0.605140 0.499474
C148  C     C_R   0.250001 0.249999 0.605138 0.500237
C149  C     C_R   0.250000 0.750000 0.605140 0.499474
C150  C     C_R   0.250000 0.250000 0.894903 0.499276
C151  C     C_R   0.250001 0.750001 0.894905 0.500120
C152  C     C_R   0.750000 0.250000 0.894903 0.499276
C153  C     C_R   0.749999 0.750001 0.894905 0.500120
C154  C     C_R   0.750001 0.249999 0.394905 0.500123
C155  C     C_R   0.750000 0.750000 0.394903 0.499188
C156  C     C_R   0.249999 0.249999 0.394905 0.500123
C157  C     C_R   0.292295 0.765385 0.167895 -0.127362
C158  C     C_R   0.250000 0.750000 0.394903 0.499188
C159  C     C_R   0.270750 0.281502 0.791866 -0.124732
C160  C     C_R   0.292492 0.734894 0.791875 -0.124365
C161  C     C_R   0.729250 0.281502 0.791866 -0.124732
C162  C     C_R   0.707508 0.734894 0.791875 -0.124365
C163  C     C_R   0.792488 0.265109 0.291875 -0.124356
C164  C     C_R   0.770757 0.718502 0.291866 -0.124698
C165  C     C_R   0.207512 0.265109 0.291875 -0.124356
C166  C     C_R   0.229243 0.718502 0.291866 -0.124698
C167  C     C_R   0.792473 0.765123 0.791874 -0.124383
C168  C     C_R   0.728889 0.718640 0.667902 -0.128238
C169  C     C_R   0.770744 0.218494 0.791867 -0.124718
C170  C     C_R   0.207527 0.765123 0.791874 -0.124383
C171  C     C_R   0.229256 0.218494 0.791867 -0.124718
C172  C     C_R   0.270739 0.781510 0.291868 -0.124711
C173  C     C_R   0.292478 0.234882 0.291874 -0.124369
C174  C     C_R   0.729261 0.781510 0.291868 -0.124711
C175  C     C_R   0.707522 0.234882 0.291874 -0.124369
C176  C     C_R   0.271089 0.281370 0.832140 -0.128238
C177  C     C_R   0.292313 0.734634 0.832150 -0.127356
C178  C     C_R   0.728910 0.281369 0.832140 -0.128238
C179  C     C_R   0.707695 0.265375 0.667894 -0.127363
C180  C     C_R   0.707687 0.734634 0.832150 -0.127356
C181  C     C_R   0.792310 0.265367 0.332149 -0.127348
C182  C     C_R   0.771095 0.718634 0.332140 -0.128169
C183  C     C_R   0.207690 0.265367 0.332149 -0.127348
C184  C     C_R   0.228905 0.718634 0.332140 -0.128169
C185  C     C_R   0.792298 0.765379 0.832148 -0.127367
C186  C     C_R   0.771087 0.218629 0.832141 -0.128182
C187  C     C_R   0.207702 0.765379 0.832148 -0.127368
C188  C     C_R   0.228913 0.218629 0.832141 -0.128182
C189  C     C_R   0.271084 0.781374 0.332142 -0.128183
C190  C     C_R   0.271111 0.718640 0.667902 -0.128237
C191  C     C_R   0.292302 0.234624 0.332149 -0.127355
C192  C     C_R   0.728916 0.781374 0.332142 -0.128183
C193  C     C_R   0.707698 0.234624 0.332149 -0.127355
C194  C     C_R   0.250000 0.250000 0.852527 0.037301
C195  C     C_R   0.250005 0.750004 0.852533 0.038289
C196  C     C_R   0.750000 0.250000 0.852527 0.037301
C197  C     C_R   0.749995 0.750004 0.852533 0.038289
C198  C     C_R   0.750003 0.249997 0.352533 0.038287
C199  C     C_R   0.750003 0.750002 0.352527 0.037273
C200  C     C_R   0.249997 0.249997 0.352533 0.038287
C201  C     C_R   0.292305 0.265375 0.667894 -0.127363
C202  C     C_R   0.249997 0.750002 0.352527 0.037273
C203  C     C_R   0.250004 0.249997 0.771352 0.033550
C204  C     C_R   0.250010 0.750008 0.771360 0.033786
C205  C     C_R   0.749996 0.249997 0.771352 0.033550
C206  C     C_R   0.749990 0.750008 0.771360 0.033786
C207  C     C_R   0.750005 0.249996 0.271360 0.033780
C208  C     C_R   0.750010 0.750007 0.271352 0.033538
C209  C     C_R   0.249995 0.249996 0.271360 0.033780
C210  C     C_R   0.249990 0.750007 0.271352 0.033538
C211  C     C_R   0.207527 0.234874 0.708168 -0.124377
C212  C     C_R   0.207691 0.734628 0.167893 -0.127352
C213  C     C_R   0.229245 0.781504 0.708175 -0.124745
C214  C     C_R   0.792473 0.234874 0.708168 -0.124378
C215  C     C_R   0.770755 0.781504 0.708175 -0.124745
C216  C     C_R   0.729238 0.218500 0.208175 -0.124711
C217  C     C_R   0.707531 0.765129 0.208169 -0.124369
C218  C     C_R   0.270762 0.218500 0.208175 -0.124711
C219  C     C_R   0.292469 0.765129 0.208169 -0.124369
C220  C     C_R   0.729227 0.718508 0.708176 -0.124731
C221  C     C_R   0.707517 0.265118 0.708168 -0.124365
C222  C     C_R   0.270773 0.718508 0.708176 -0.124732
C223  C     C_R   0.608641 0.250038 0.999977 0.498839
C224  C     C_R   0.228892 0.281363 0.167902 -0.128238
C225  C     C_R   0.292483 0.265118 0.708168 -0.124365
C226  C     C_R   0.207512 0.734887 0.208168 -0.124350
C227  C     C_R   0.229232 0.281496 0.208176 -0.124725
C228  C     C_R   0.792488 0.734887 0.208168 -0.124350
C229  C     C_R   0.770768 0.281496 0.208176 -0.124725
C230  C     C_R   0.792309 0.734628 0.167893 -0.127351
C231  C     C_R   0.771108 0.281363 0.167902 -0.128238
C232  C     C_R   0.250003 0.249997 0.647510 0.038286
C233  C     C_R   0.250003 0.750002 0.647515 0.037339
C234  C     C_R   0.749997 0.249997 0.647510 0.038286
C235  C     C_R   0.749997 0.750002 0.647515 0.037339
C236  C     C_R   0.750000 0.250000 0.147515 0.037311
C237  C     C_R   0.750005 0.750004 0.147510 0.038284
C238  C     C_R   0.250000 0.250000 0.147515 0.037311
C239  C     C_R   0.608641 0.750038 0.000052 0.497479
C240  C     C_R   0.249995 0.750004 0.147510 0.038284
C241  C     C_R   0.250005 0.249996 0.728683 0.033781
C242  C     C_R   0.250010 0.750007 0.728691 0.033560
C243  C     C_R   0.749995 0.249996 0.728683 0.033781
C244  C     C_R   0.749989 0.750007 0.728691 0.033560
C245  C     C_R   0.750004 0.249997 0.228691 0.033549
C246  C     C_R   0.750010 0.750008 0.228683 0.033775
C247  C     C_R   0.249996 0.249997 0.228691 0.033549
C248  C     C_R   0.249990 0.750008 0.228683 0.033775
C249  C     C_3   0.029994 0.261166 0.959555 -0.234347
C250  C     C_R   0.891359 0.249962 0.500052 0.497478
C251  C     C_3   0.029778 0.779970 0.970051 -0.229491
C252  C     C_3   0.970006 0.261166 0.959555 -0.234347
C253  C     C_3   0.970222 0.779970 0.970051 -0.229491
C254  C     C_3   0.529778 0.220029 0.470053 -0.229488
C255  C     C_3   0.529994 0.738834 0.459555 -0.234347
C256  C     C_3   0.470222 0.220029 0.470053 -0.229488
C257  C     C_3   0.470006 0.738834 0.459555 -0.234347
C258  C     C_3   0.529994 0.761165 0.959554 -0.234299
C259  C     C_3   0.529778 0.279970 0.970051 -0.229669
C260  C     C_3   0.470006 0.761165 0.959554 -0.234299
C261  C     C_R   0.891359 0.750038 0.500052 0.498839
C262  C     C_3   0.470222 0.279970 0.970051 -0.229669
C263  C     C_3   0.029994 0.761167 0.459555 -0.234346
C264  C     C_3   0.029994 0.238835 0.459554 -0.234298
C265  C     C_3   0.970006 0.761167 0.459555 -0.234346
C266  C     C_3   0.970006 0.238835 0.459554 -0.234298
C267  C     C_3   0.029994 0.209541 0.011189 -0.234348
C268  C     C_3   0.029994 0.761166 0.040475 -0.234296
C269  C     C_3   0.970006 0.209541 0.011189 -0.234348
C270  C     C_3   0.970006 0.761166 0.040475 -0.234296
C271  C     C_3   0.529994 0.238836 0.540476 -0.234299
C272  C     C_R   0.108641 0.249962 0.500052 0.497478
C273  C     C_3   0.529994 0.790458 0.511189 -0.234346
C274  C     C_3   0.470006 0.238836 0.540476 -0.234299
C275  C     C_3   0.470006 0.790458 0.511189 -0.234346
C276  C     C_3   0.529994 0.709541 0.011189 -0.234298
C277  C     C_3   0.529994 0.261167 0.040474 -0.234346
C278  C     C_3   0.470006 0.709541 0.011189 -0.234298
C279  C     C_3   0.470006 0.261167 0.040474 -0.234346
C280  C     C_3   0.029994 0.709541 0.511188 -0.234345
C281  C     C_3   0.029994 0.290459 0.511188 -0.234296
C282  C     C_3   0.970006 0.709541 0.511188 -0.234345
C283  C     C_R   0.108641 0.750038 0.500052 0.498839
C284  C     C_3   0.970006 0.290459 0.511188 -0.234296
C285  C     C_3   0.029778 0.279971 0.029978 -0.229670
C286  C     C_3   0.029994 0.709540 0.988842 -0.234299
C287  C     C_3   0.970222 0.279971 0.029978 -0.229670
C288  C     C_3   0.970006 0.709540 0.988842 -0.234299
C289  C     C_3   0.529994 0.290459 0.488840 -0.234300
C290  C     C_3   0.529778 0.720029 0.529978 -0.229671
C291  C     C_3   0.470006 0.290459 0.488840 -0.234300
C292  C     C_3   0.470222 0.720029 0.529978 -0.229671
C293  C     C_3   0.529778 0.779971 0.029977 -0.229490
C294  C     C_R   0.891359 0.750037 0.999977 0.497478
C295  C     C_3   0.529994 0.209541 0.988842 -0.234349
C296  C     C_3   0.470222 0.779971 0.029977 -0.229490
C297  C     C_3   0.470006 0.209541 0.988842 -0.234349
C298  C     C_3   0.029778 0.779970 0.529979 -0.229676
C299  C     C_3   0.029778 0.220029 0.529978 -0.229492
C300  C     C_3   0.970222 0.779970 0.529979 -0.229676
C301  C     C_3   0.970222 0.220029 0.529978 -0.229492
C302  C     C_3   0.050904 0.250172 0.000187 0.065903
C303  C     C_3   0.050904 0.750171 0.999843 0.067721
C304  C     C_3   0.949095 0.250172 0.000187 0.065903
H1    H     H_    0.286137 0.306482 0.776816 0.104102
H2    H     H_    0.786130 0.193513 0.776818 0.104108
H3    H     H_    0.674418 0.722916 0.847327 0.127138
H4    H     H_    0.825581 0.277084 0.347326 0.127145
H5    H     H_    0.787187 0.693959 0.347312 0.127802
H6    H     H_    0.174419 0.277084 0.347326 0.127145
H7    H     H_    0.212813 0.693959 0.347312 0.127802
H8    H     H_    0.825569 0.777096 0.847324 0.126932
H9    H     H_    0.787181 0.193955 0.847314 0.127771
H10   H     H_    0.174431 0.777096 0.847324 0.126932
H11   H     H_    0.212820 0.193955 0.847314 0.127770
H12   H     H_    0.287178 0.806047 0.347315 0.127782
H13   H     H_    0.173854 0.776313 0.776824 0.103397
H14   H     H_    0.325572 0.222908 0.347325 0.126950
H15   H     H_    0.712822 0.806047 0.347315 0.127782
H16   H     H_    0.674428 0.222908 0.347325 0.126950
H17   H     H_    0.173857 0.223678 0.723218 0.103453
H18   H     H_    0.213847 0.806481 0.723223 0.104053
H19   H     H_    0.826143 0.223678 0.723218 0.103454
H20   H     H_    0.786153 0.806481 0.723223 0.104053
H21   H     H_    0.713839 0.193524 0.223224 0.104117
H22   H     H_    0.673861 0.776325 0.223219 0.103462
H23   H     H_    0.286161 0.193524 0.223224 0.104117
H24   H     H_    0.213870 0.193513 0.776818 0.104108
H25   H     H_    0.326139 0.776325 0.223219 0.103462
H26   H     H_    0.713826 0.693533 0.723226 0.104097
H27   H     H_    0.673847 0.276313 0.723217 0.103490
H28   H     H_    0.286173 0.693533 0.723226 0.104097
H29   H     H_    0.326153 0.276313 0.723217 0.103490
H30   H     H_    0.173840 0.723693 0.223217 0.103550
H31   H     H_    0.213831 0.306471 0.223226 0.104111
H32   H     H_    0.826160 0.723693 0.223217 0.103550
H33   H     H_    0.786169 0.306471 0.223226 0.104111
H34   H     H_    0.174437 0.222893 0.652718 0.126949
H35   H     H_    0.286125 0.806491 0.276819 0.104122
H36   H     H_    0.212792 0.806036 0.652727 0.127592
H37   H     H_    0.825564 0.222894 0.652718 0.126949
H38   H     H_    0.787208 0.806036 0.652727 0.127592
H39   H     H_    0.712787 0.193967 0.152728 0.127761
H40   H     H_    0.674438 0.777107 0.152719 0.126956
H41   H     H_    0.287213 0.193967 0.152728 0.127761
H42   H     H_    0.325562 0.777107 0.152719 0.126956
H43   H     H_    0.712783 0.693970 0.652730 0.127612
H44   H     H_    0.674428 0.277098 0.652717 0.127144
H45   H     H_    0.287217 0.693970 0.652730 0.127612
H46   H     H_    0.326153 0.223693 0.276825 0.103457
H47   H     H_    0.325572 0.277098 0.652717 0.127144
H48   H     H_    0.174425 0.722905 0.152716 0.127163
H49   H     H_    0.212786 0.306032 0.152729 0.127623
H50   H     H_    0.825575 0.722905 0.152716 0.127163
H51   H     H_    0.787214 0.306032 0.152729 0.127623
H52   H     H_    0.044286 0.240222 0.937519 0.132732
H53   H     H_    0.044000 0.809541 0.977258 0.128334
H54   H     H_    0.955713 0.240222 0.937519 0.132732
H55   H     H_    0.956000 0.809541 0.977258 0.128334
H56   H     H_    0.544000 0.190458 0.477261 0.128336
H57   H     H_    0.713875 0.806491 0.276819 0.104122
H58   H     H_    0.544287 0.759778 0.437519 0.132735
H59   H     H_    0.456000 0.190458 0.477261 0.128336
H60   H     H_    0.455713 0.759778 0.437519 0.132735
H61   H     H_    0.544288 0.740220 0.937518 0.130200
H62   H     H_    0.543999 0.309541 0.977258 0.130773
H63   H     H_    0.455712 0.740220 0.937518 0.130200
H64   H     H_    0.456001 0.309541 0.977258 0.130773
H65   H     H_    0.044286 0.740223 0.437519 0.132748
H66   H     H_    0.044288 0.259779 0.437518 0.130206
H67   H     H_    0.955713 0.740223 0.437519 0.132748
H68   H     H_    0.673847 0.223693 0.276825 0.103457
H69   H     H_    0.955712 0.259779 0.437518 0.130206
H70   H     H_    0.044477 0.290332 0.951152 0.109818
H71   H     H_    0.044000 0.772768 0.940480 0.128323
H72   H     H_    0.955523 0.290332 0.951152 0.109818
H73   H     H_    0.956000 0.772768 0.940480 0.128323
H74   H     H_    0.544000 0.227229 0.440481 0.128337
H75   H     H_    0.544477 0.709668 0.451152 0.109818
H76   H     H_    0.456000 0.227229 0.440481 0.128337
H77   H     H_    0.455523 0.709668 0.451152 0.109818
H78   H     H_    0.544477 0.790331 0.951150 0.108281
H79   H     H_    0.044477 0.201144 0.040356 0.109818
H80   H     H_    0.543999 0.272768 0.940479 0.130771
H81   H     H_    0.455523 0.790331 0.951150 0.108281
H82   H     H_    0.456000 0.272768 0.940479 0.130771
H83   H     H_    0.044477 0.790333 0.451153 0.109813
H84   H     H_    0.044477 0.209668 0.451151 0.108278
H85   H     H_    0.955523 0.790333 0.451153 0.109813
H86   H     H_    0.955523 0.209668 0.451151 0.108278
H87   H     H_    0.044286 0.187500 0.990250 0.132731
H88   H     H_    0.044477 0.790332 0.048878 0.108290
H89   H     H_    0.955713 0.187500 0.990250 0.132731
H90   H     H_    0.044288 0.740222 0.062512 0.130209
H91   H     H_    0.955523 0.790332 0.048878 0.108290
H92   H     H_    0.544477 0.209670 0.548880 0.108285
H93   H     H_    0.544287 0.812500 0.490249 0.132734
H94   H     H_    0.455523 0.209670 0.548880 0.108285
H95   H     H_    0.455713 0.812500 0.490249 0.132734
H96   H     H_    0.544288 0.687499 0.990251 0.130200
H97   H     H_    0.544477 0.290333 0.048877 0.109823
H98   H     H_    0.455712 0.687499 0.990251 0.130200
H99   H     H_    0.455523 0.290333 0.048877 0.109823
H100  H     H_    0.044287 0.687500 0.490249 0.132748
H101  H     H_    0.955523 0.201144 0.040356 0.109818
H102  H     H_    0.044288 0.312501 0.490249 0.130212
H103  H     H_    0.955713 0.687500 0.490249 0.132748
H104  H     H_    0.955712 0.312501 0.490249 0.130212
H105  H     H_    0.043999 0.272769 0.059550 0.130770
H106  H     H_    0.044288 0.687499 0.009781 0.130200
H107  H     H_    0.956001 0.272769 0.059550 0.130770
H108  H     H_    0.955712 0.687499 0.009781 0.130200
H109  H     H_    0.544288 0.312501 0.509778 0.130195
H110  H     H_    0.543999 0.727231 0.559550 0.130767
H111  H     H_    0.455712 0.312501 0.509778 0.130195
H112  H     H_    0.326167 0.723705 0.776827 0.103485
H113  H     H_    0.955712 0.740222 0.062512 0.130209
H114  H     H_    0.456001 0.727231 0.559550 0.130767
H115  H     H_    0.544000 0.772771 0.059549 0.128334
H116  H     H_    0.544287 0.187500 0.009781 0.132728
H117  H     H_    0.456000 0.772771 0.059549 0.128334
H118  H     H_    0.455713 0.187500 0.009781 0.132728
H119  H     H_    0.043999 0.772768 0.559550 0.130755
H120  H     H_    0.044000 0.227231 0.559550 0.128329
H121  H     H_    0.956001 0.772768 0.559550 0.130755
H122  H     H_    0.956000 0.227231 0.559550 0.128329
H123  H     H_    0.043999 0.309542 0.022771 0.130768
H124  H     H_    0.544288 0.259781 0.562511 0.130198
H125  H     H_    0.044477 0.701142 0.959675 0.108277
H126  H     H_    0.956001 0.309542 0.022771 0.130768
H127  H     H_    0.955523 0.701142 0.959675 0.108277
H128  H     H_    0.544477 0.298856 0.459673 0.108285
H129  H     H_    0.543999 0.690458 0.522771 0.130766
H130  H     H_    0.455523 0.298856 0.459673 0.108285
H131  H     H_    0.456001 0.690458 0.522771 0.130766
H132  H     H_    0.544000 0.809542 0.022769 0.128330
H133  H     H_    0.544477 0.201143 0.959675 0.109814
H134  H     H_    0.456000 0.809542 0.022769 0.128330
H135  H     H_    0.544477 0.798856 0.540355 0.109817
H136  H     H_    0.455523 0.201143 0.959675 0.109814
H137  H     H_    0.043999 0.809541 0.522772 0.130754
H138  H     H_    0.044000 0.190458 0.522771 0.128320
H139  H     H_    0.956001 0.809541 0.522772 0.130754
H140  H     H_    0.956000 0.190458 0.522771 0.128320
H141  H     H_    0.455712 0.259781 0.562511 0.130198
H142  H     H_    0.455523 0.798856 0.540355 0.109817
H143  H     H_    0.544477 0.701144 0.040356 0.108287
H144  H     H_    0.544287 0.240223 0.062511 0.132730
H145  H     H_    0.455523 0.701144 0.040356 0.108287
H146  H     H_    0.455713 0.240223 0.062511 0.132730
H147  H     H_    0.044477 0.701143 0.540355 0.109819
H148  H     H_    0.713863 0.306482 0.776816 0.104103
H149  H     H_    0.044477 0.298857 0.540355 0.108288
H150  H     H_    0.955523 0.701143 0.540355 0.109819
H151  H     H_    0.955523 0.298857 0.540355 0.108288
H152  H     H_    0.286159 0.473202 0.943545 0.104097
H153  H     H_    0.326145 0.526806 0.973721 0.103489
H154  H     H_    0.713841 0.473202 0.943545 0.104097
H155  H     H_    0.673855 0.526806 0.973721 0.103489
H156  H     H_    0.826151 0.473193 0.473726 0.103547
H157  H     H_    0.786166 0.526797 0.443550 0.104160
H158  H     H_    0.173849 0.473193 0.473726 0.103547
H159  H     H_    0.673833 0.723705 0.776827 0.103485
H160  H     H_    0.213833 0.526797 0.443550 0.104160
H161  H     H_    0.826112 0.973195 0.973667 0.103447
H162  H     H_    0.786101 0.026800 0.943524 0.104106
H163  H     H_    0.173888 0.973195 0.973667 0.103447
H164  H     H_    0.213899 0.026800 0.943524 0.104106
H165  H     H_    0.286105 0.973201 0.443528 0.104113
H166  H     H_    0.326116 0.026806 0.473670 0.103453
H167  H     H_    0.713894 0.973201 0.443528 0.104113
H168  H     H_    0.673884 0.026806 0.473670 0.103453
H169  H     H_    0.287209 0.402703 0.943988 0.127616
H170  H     H_    0.826163 0.276298 0.276826 0.103494
H171  H     H_    0.325566 0.597309 0.972937 0.127127
H172  H     H_    0.712791 0.402703 0.943987 0.127615
H173  H     H_    0.674434 0.597309 0.972937 0.127127
H174  H     H_    0.825569 0.402690 0.472940 0.127145
H175  H     H_    0.787214 0.597296 0.443991 0.127784
H176  H     H_    0.174431 0.402690 0.472940 0.127145
H177  H     H_    0.212786 0.597296 0.443991 0.127784
H178  H     H_    0.825531 0.902693 0.972882 0.126941
H179  H     H_    0.787153 0.097299 0.943967 0.127749
H180  H     H_    0.174469 0.902693 0.972882 0.126941
H181  H     H_    0.786145 0.693523 0.276815 0.104165
H182  H     H_    0.212847 0.097299 0.943967 0.127749
H183  H     H_    0.287154 0.902702 0.443969 0.127749
H184  H     H_    0.325532 0.097308 0.472882 0.126948
H185  H     H_    0.712845 0.902702 0.443969 0.127749
H186  H     H_    0.674468 0.097308 0.472882 0.126948
H187  H     H_    0.212755 0.402704 0.056038 0.127618
H188  H     H_    0.174399 0.597310 0.027088 0.127129
H189  H     H_    0.787245 0.402704 0.056038 0.127618
H190  H     H_    0.825601 0.597310 0.027088 0.127129
H191  H     H_    0.674400 0.402691 0.527089 0.127122
H192  H     H_    0.173837 0.276298 0.276826 0.103494
H193  H     H_    0.712757 0.597297 0.556040 0.127618
H194  H     H_    0.325600 0.402691 0.527089 0.127122
H195  H     H_    0.287243 0.597297 0.556040 0.127618
H196  H     H_    0.674434 0.902692 0.027144 0.126943
H197  H     H_    0.712811 0.097297 0.056059 0.127751
H198  H     H_    0.325566 0.902692 0.027144 0.126943
H199  H     H_    0.287189 0.097297 0.056059 0.127751
H200  H     H_    0.212817 0.902702 0.556062 0.127583
H201  H     H_    0.174437 0.097307 0.527147 0.126925
H202  H     H_    0.787184 0.902702 0.556062 0.127583
H203  H     H_    0.213855 0.693523 0.276815 0.104165
H204  H     H_    0.825563 0.097307 0.527147 0.126925
H205  H     H_    0.213801 0.473203 0.056478 0.104107
H206  H     H_    0.173816 0.526807 0.026302 0.103494
H207  H     H_    0.786199 0.473203 0.056478 0.104107
H208  H     H_    0.826184 0.526807 0.026302 0.103494
H209  H     H_    0.673821 0.473194 0.526305 0.103489
H210  H     H_    0.713806 0.526797 0.556482 0.104099
H211  H     H_    0.326180 0.473194 0.526305 0.103489
H212  H     H_    0.286194 0.526797 0.556482 0.104099
H213  H     H_    0.673849 0.973194 0.026356 0.103452
H214  H     H_    0.826146 0.776313 0.776824 0.103397
H215  H     H_    0.713859 0.026798 0.056499 0.104116
H216  H     H_    0.326151 0.973194 0.026356 0.103452
H217  H     H_    0.286141 0.026798 0.056499 0.104116
H218  H     H_    0.213867 0.973201 0.556504 0.104052
H219  H     H_    0.173855 0.026805 0.526362 0.103394
H220  H     H_    0.786133 0.973201 0.556504 0.104052
H221  H     H_    0.826145 0.026805 0.526361 0.103394
H222  H     H_    0.287182 0.306044 0.847313 0.127633
H223  H     H_    0.325582 0.722916 0.847327 0.127138
H224  H     H_    0.712818 0.306044 0.847313 0.127633
O1    O     O_3   0.250000 0.250000 0.000020 -0.428849
O2    O     O_R   0.366860 0.727260 0.977280 -0.551698
O3    O     O_R   0.133140 0.272740 0.022750 -0.551054
O4    O     O_R   0.366860 0.727260 0.522750 -0.551055
O5    O     O_R   0.366860 0.272740 0.522750 -0.551670
O6    O     O_R   0.633140 0.727260 0.522750 -0.551055
O7    O     O_R   0.633140 0.272740 0.522750 -0.551670
O8    O     O_R   0.633140 0.272740 0.977280 -0.551081
O9    O     O_R   0.633140 0.727260 0.977280 -0.551698
O10   O     O_R   0.866860 0.272740 0.477280 -0.551695
O11   O     O_R   0.866860 0.727260 0.477280 -0.549165
O12   O     O_R   0.133140 0.272740 0.477280 -0.551695
O13   O     O_R   0.133140 0.727260 0.477280 -0.549165
O14   O     O_R   0.866860 0.772740 0.977280 -0.553582
O15   O     O_R   0.866860 0.227260 0.977280 -0.549171
O16   O     O_R   0.133140 0.772740 0.977280 -0.553582
O17   O     O_3   0.250000 0.750000 0.000020 -0.429035
O18   O     O_R   0.133140 0.227260 0.977280 -0.549171
O19   O     O_R   0.366860 0.772740 0.477280 -0.549170
O20   O     O_R   0.366860 0.227260 0.477280 -0.553579
O21   O     O_R   0.633140 0.772740 0.477280 -0.549170
O22   O     O_R   0.633140 0.227260 0.477280 -0.553579
O23   O     O_R   0.280650 0.163280 0.022750 -0.548735
O24   O     O_R   0.280650 0.836720 0.022750 -0.547420
O25   O     O_R   0.719350 0.163280 0.022750 -0.548735
O26   O     O_R   0.719350 0.836720 0.022750 -0.547420
O27   O     O_R   0.780650 0.163280 0.522750 -0.547426
O28   O     O_3   0.750000 0.250000 0.000020 -0.428849
O29   O     O_R   0.780650 0.836720 0.522750 -0.548826
O30   O     O_R   0.219350 0.163280 0.522750 -0.547426
O31   O     O_R   0.219350 0.836720 0.522750 -0.548826
O32   O     O_R   0.780650 0.663280 0.022750 -0.547357
O33   O     O_R   0.780650 0.336720 0.022750 -0.548792
O34   O     O_R   0.219350 0.663280 0.022750 -0.547357
O35   O     O_R   0.219350 0.336720 0.022750 -0.548792
O36   O     O_R   0.280650 0.663280 0.522750 -0.548823
O37   O     O_R   0.280650 0.336720 0.522750 -0.547360
O38   O     O_R   0.719350 0.663280 0.522750 -0.548823
O39   O     O_3   0.750000 0.750000 0.000020 -0.429035
O40   O     O_R   0.719350 0.336720 0.522750 -0.547360
O41   O     O_R   0.280650 0.227270 0.086750 -0.548729
O42   O     O_R   0.280650 0.772730 0.086750 -0.547473
O43   O     O_R   0.719350 0.227270 0.086750 -0.548729
O44   O     O_R   0.719350 0.772730 0.086750 -0.547473
O45   O     O_R   0.780650 0.227270 0.586750 -0.547477
O46   O     O_R   0.780650 0.772730 0.586750 -0.548821
O47   O     O_R   0.219350 0.227270 0.586750 -0.547477
O48   O     O_R   0.219350 0.772730 0.586750 -0.548821
O49   O     O_R   0.780650 0.727270 0.086750 -0.547353
O50   O     O_3   0.750000 0.250000 0.500020 -0.429035
O51   O     O_R   0.780650 0.272730 0.086750 -0.548841
O52   O     O_R   0.219350 0.727270 0.086750 -0.547353
O53   O     O_R   0.219350 0.272730 0.086750 -0.548841
O54   O     O_R   0.280650 0.727270 0.586750 -0.548812
O55   O     O_R   0.280650 0.272730 0.586750 -0.547357
O56   O     O_R   0.719350 0.727270 0.586750 -0.548812
O57   O     O_R   0.719350 0.272730 0.586750 -0.547357
O58   O     O_R   0.280640 0.272750 0.913290 -0.548847
O59   O     O_R   0.280640 0.727250 0.913290 -0.547356
O60   O     O_R   0.719360 0.272750 0.913290 -0.548847
O61   O     O_3   0.750000 0.750000 0.500020 -0.428849
O62   O     O_R   0.719360 0.727250 0.913290 -0.547356
O63   O     O_R   0.780640 0.272750 0.413290 -0.547351
O64   O     O_R   0.780640 0.727250 0.413290 -0.548756
O65   O     O_R   0.219360 0.272750 0.413290 -0.547351
O66   O     O_R   0.219360 0.727250 0.413290 -0.548756
O67   O     O_R   0.780640 0.772750 0.913290 -0.547476
O68   O     O_R   0.780640 0.227250 0.913290 -0.548736
O69   O     O_R   0.219360 0.772750 0.913290 -0.547476
O70   O     O_R   0.219360 0.227250 0.913290 -0.548736
O71   O     O_R   0.280640 0.772750 0.413290 -0.548764
O72   O     O_3   0.250000 0.250000 0.500020 -0.429035
O73   O     O_R   0.280640 0.227250 0.413290 -0.547472
O74   O     O_R   0.719360 0.772750 0.413290 -0.548764
O75   O     O_R   0.719360 0.227250 0.413290 -0.547472
O76   O     O_R   0.219380 0.163280 0.977280 -0.548727
O77   O     O_R   0.219380 0.836720 0.977280 -0.547415
O78   O     O_R   0.780620 0.163280 0.977280 -0.548726
O79   O     O_R   0.780620 0.836720 0.977280 -0.547415
O80   O     O_R   0.719380 0.163280 0.477280 -0.547411
O81   O     O_R   0.719380 0.836720 0.477280 -0.548695
O82   O     O_R   0.280620 0.163280 0.477280 -0.547412
O83   O     O_3   0.250000 0.750000 0.500020 -0.428849
O84   O     O_R   0.280620 0.836720 0.477280 -0.548695
O85   O     O_R   0.719380 0.663280 0.977280 -0.547351
O86   O     O_R   0.719380 0.336720 0.977280 -0.548783
O87   O     O_R   0.280620 0.663280 0.977280 -0.547351
O88   O     O_R   0.280620 0.336720 0.977280 -0.548783
O89   O     O_R   0.219380 0.663280 0.477280 -0.548692
O90   O     O_R   0.219380 0.336720 0.477280 -0.547345
O91   O     O_R   0.780620 0.663280 0.477280 -0.548692
O92   O     O_R   0.780620 0.336720 0.477280 -0.547345
O93   O     O_R   0.366860 0.227260 0.022750 -0.549144
O94   O     O_R   0.366860 0.272740 0.977280 -0.551081
O95   O     O_R   0.366860 0.772740 0.022750 -0.553550
O96   O     O_R   0.633140 0.227260 0.022750 -0.549144
O97   O     O_R   0.633140 0.772740 0.022750 -0.553550
O98   O     O_R   0.866860 0.227260 0.522750 -0.553553
O99   O     O_R   0.866860 0.772740 0.522750 -0.551059
O100  O     O_R   0.133140 0.227260 0.522750 -0.553553
O101  O     O_R   0.133140 0.772740 0.522750 -0.551059
O102  O     O_R   0.866860 0.727260 0.022750 -0.551666
O103  O     O_R   0.866860 0.272740 0.022750 -0.551054
O104  O     O_R   0.133140 0.727260 0.022750 -0.551666
Zn1   Zn    Zn3+2 0.206240 0.217520 0.967530 0.922803
Zn2   Zn    Zn3+2 0.706240 0.282480 0.967530 0.922033
Zn3   Zn    Zn3+2 0.293760 0.717520 0.967530 0.922881
Zn4   Zn    Zn3+2 0.293760 0.282480 0.967530 0.922033
Zn5   Zn    Zn3+2 0.206240 0.717520 0.467530 0.922824
Zn6   Zn    Zn3+2 0.206240 0.282480 0.467530 0.922894
Zn7   Zn    Zn3+2 0.793760 0.717520 0.467530 0.922824
Zn8   Zn    Zn3+2 0.793760 0.282480 0.467530 0.922895
Zn9   Zn    Zn3+2 0.293780 0.217520 0.032500 0.922789
Zn10  Zn    Zn3+2 0.293780 0.782480 0.032500 0.922100
Zn11  Zn    Zn3+2 0.706220 0.217520 0.032500 0.922789
Zn12  Zn    Zn3+2 0.206240 0.782480 0.967530 0.922106
Zn13  Zn    Zn3+2 0.706220 0.782480 0.032500 0.922100
Zn14  Zn    Zn3+2 0.793780 0.217520 0.532500 0.922087
Zn15  Zn    Zn3+2 0.793780 0.782480 0.532500 0.921998
Zn16  Zn    Zn3+2 0.206220 0.217520 0.532500 0.922087
Zn17  Zn    Zn3+2 0.206220 0.782480 0.532500 0.921998
Zn18  Zn    Zn3+2 0.793780 0.717520 0.032500 0.922876
Zn19  Zn    Zn3+2 0.793780 0.282480 0.032500 0.922019
Zn20  Zn    Zn3+2 0.206220 0.717520 0.032500 0.922876
Zn21  Zn    Zn3+2 0.206220 0.282480 0.032500 0.922019
Zn22  Zn    Zn3+2 0.293780 0.717520 0.532500 0.922014
Zn23  Zn    Zn3+2 0.793760 0.217520 0.967530 0.922803
Zn24  Zn    Zn3+2 0.293780 0.282480 0.532500 0.922866
Zn25  Zn    Zn3+2 0.706220 0.717520 0.532500 0.922014
Zn26  Zn    Zn3+2 0.706220 0.282480 0.532500 0.922866
Zn27  Zn    Zn3+2 0.793760 0.782480 0.967530 0.922106
Zn28  Zn    Zn3+2 0.706240 0.217520 0.467530 0.922115
Zn29  Zn    Zn3+2 0.706240 0.782480 0.467530 0.922807
Zn30  Zn    Zn3+2 0.293760 0.217520 0.467530 0.922115
Zn31  Zn    Zn3+2 0.293760 0.782480 0.467530 0.922808
Zn32  Zn    Zn3+2 0.706240 0.717520 0.967530 0.922881

loop_
_geom_bond_atom_site_label_1
_geom_bond_atom_site_label_2
_ccdc_geom_bond_type
C255  C257  S    
C126  C127  S    
C100  H200  S    
O65   Zn6   S    
C50   H185  S    
C175  C207  A    
C102  C120  A    
O87   Zn3   S    
C222  C242  A    
C107  H207  S    
C6    C291  S    
C281  C284  S    
C201  C225  A    
C217  H22   S    
C147  O56   A    
C141  C238  S    
C3    C270  S    
C179  C221  A    
C63   C98   A    
C18   C125  A    
C169  C205  A    
C92   C109  A    
C222  H28   S    
C8    C293  S    
C99   H199  S    
C153  O62   A    
C135  C217  A    
C94   C111  A    
C105  C123  A    
C273  H93   S    
C155  O64   A    
C190  H45   S    
C289  H128  S    
C300  H121  S    
C150  C194  S    
C254  C256  S    
C36   C53   A    
C19   C37   A    
O11   Zn7   S    
C201  C232  A    
C38   C55   A    
C170  C187  A    
C79   H34   S    
C231  C236  A    
C48   C65   A    
C12   C280  S    
C286  H125  S    
C170  C204  A    
C166  H203  S    
C277  C279  S    
C93   C110  A    
C293  H115  S    
C172  H35   S    
C23   H158  S    
C49   H184  S    
C180  H3    S    
O3    Zn21  S    
O97   Zn13  S    
C145  C234  S    
C5    C290  S    
C174  C208  A    
C117  H216  S    
C161  C205  A    
C83   O36   A    
C289  H109  S    
O45   Zn14  S    
O41   Zn9   S    
O48   Zn17  S    
C3    C288  S    
O80   Zn28  S    
O5    Zn24  S    
C41   H176  S    
C40   C58   A    
C165  C183  A    
C286  C303  S    
C166  C184  A    
C59   C84   S    
C32   C139  A    
O61   Zn29  S    
C47   C64   A    
C226  H30   S    
C116  C133  A    
C160  H112  S    
C156  O65   A    
C173  C191  A    
C143  O43   A    
C33   C51   A    
C135  C237  A    
C23   C130  A    
C80   O86   A    
C269  H89   S    
C82   O35   A    
C16   C284  S    
O27   Zn14  S    
C142  C240  S    
C3    C253  S    
C267  H87   S    
C7    C292  S    
C273  H135  S    
C111  C130  A    
C56   C86   S    
C39   C56   A    
C149  O54   A    
C66   C76   S    
C80   O33   A    
C148  O47   A    
C152  O68   A    
C69   C74   S    
C47   H182  S    
C168  C220  A    
C90   H36   S    
O22   Zn28  S    
C8    C276  S    
C141  O53   A    
C113  H38   S    
O38   Zn25  S    
C249  H70   S    
C268  C270  S    
C98   H198  S    
O28   Zn19  S    
C171  C203  A    
C164  C208  A    
C175  H68   S    
C28   C134  A    
C213  H18   S    
C7    C257  S    
C120  C138  A    
C17   C34   A    
C15   C282  S    
C172  C210  A    
C103  C121  A    
C230  H50   S    
C118  C136  A    
C43   C61   A    
C17   H152  S    
C285  H105  S    
C263  C265  S    
C177  C195  A    
C48   H183  S    
C35   O19   A    
C182  C199  A    
C3    C294  S    
O21   Zn29  S    
C68   O22   A    
C269  C304  S    
C139  C140  S    
O100  Zn16  S    
O89   Zn5   S    
C179  H44   S    
C135  H40   S    
C23   C41   A    
O60   Zn2   S    
C218  C247  A    
C263  H65   S    
C256  H59   S    
C130  C131  S    
C269  H101  S    
C285  C287  S    
C108  H208  S    
C286  C288  S    
C114  H212  S    
C272  O100  A    
C33   H168  S    
C178  H224  S    
C14   C272  S    
C223  O96   A    
C8    C258  S    
O36   Zn22  S    
C201  H47   S    
C124  C236  A    
C60   C95   A    
C89   H189  S    
C87   H187  S    
C270  H91   S    
C300  H139  S    
C95   H195  S    
C101  C234  A    
C219  C248  A    
C218  H23   S    
C51   C69   A    
C185  C197  A    
C85   O91   A    
C146  H41   S    
C224  C238  A    
C175  C193  A    
C19   H154  S    
C166  C210  A    
O55   Zn24  S    
C45   H180  S    
C167  C185  A    
O17   Zn10  S    
C252  H72   S    
C274  H141  S    
O13   Zn5   S    
C163  C181  A    
C267  C269  S    
C276  H96   S    
C267  H79   S    
C210  C248  S    
C165  C209  A    
C128  C129  S    
C228  H32   S    
C61   C96   A    
C67   C103  A    
O39   Zn32  S    
C295  C297  S    
C106  C125  A    
C215  C244  A    
O39   Zn18  S    
C86   O92   A    
C29   C47   A    
O59   Zn3   S    
C186  C196  A    
C213  C242  A    
C257  H77   S    
C188  H11   S    
C187  C195  A    
C190  C222  A    
C142  O42   A    
C104  C122  A    
C76   O82   A    
O56   Zn25  S    
C75   O81   A    
C20   C38   A    
C110  C129  A    
C42   H177  S    
C163  C207  A    
C152  O60   A    
O1    Zn4   S    
C4    C289  S    
C103  H202  S    
C159  C203  A    
C27   C44   A    
C64   C99   A    
C146  C238  A    
C158  O66   A    
C251  C303  S    
C252  C304  S    
O51   Zn19  S    
C50   C67   A    
C162  C180  A    
C72   O78   A    
C94   H194  S    
O71   Zn31  S    
C78   O85   A    
O15   Zn23  S    
C268  C303  S    
C207  C245  S    
C91   H190  S    
O75   Zn28  S    
C11   C297  S    
C26   H161  S    
C208  C246  S    
C115  C132  A    
O35   Zn21  S    
C14   C281  S    
C109  H209  S    
C79   C232  A    
O54   Zn22  S    
O85   Zn32  S    
C49   C66   A    
C152  C196  S    
C294  O102  A    
C163  H170  S    
C274  H94   S    
C191  C200  A    
C20   C127  A    
C15   C265  S    
C280  H100  S    
C4    C68   S    
C55   C78   S    
C277  H144  S    
O10   Zn8   S    
C299  H138  S    
C178  C196  A    
C185  H8    S    
C149  C233  S    
C83   O89   A    
C90   C233  A    
C151  O59   A    
C281  H102  S    
C73   O79   A    
C146  C218  A    
C143  C236  S    
C272  O12   A    
C52   C82   S    
C92   H191  S    
C15   C261  S    
C1    O94   A    
C62   C97   A    
C299  C301  S    
C157  C240  A    
O39   Zn27  S    
C87   C105  A    
C254  H56   S    
C182  H5    S    
C176  H222  S    
C77   O31   A    
C100  C119  A    
O92   Zn8   S    
C21   C128  A    
C256  H76   S    
C168  C235  A    
C290  H110  S    
O17   Zn12  S    
C157  H42   S    
C184  H7    S    
O46   Zn15  S    
C284  H104  S    
O18   Zn1   S    
C287  C304  S    
O33   Zn19  S    
C24   O18   A    
C67   C75   S    
O61   Zn25  S    
C9    C295  S    
C46   O5    A    
C155  C199  S    
C294  O14   A    
C290  C292  S    
C10   C296  S    
C221  C243  A    
C293  H132  S    
C142  O52   A    
C249  C252  S    
C275  H95   S    
C158  O71   A    
C261  O11   A    
C173  C209  A    
C266  H86   S    
C267  C302  S    
C204  C242  S    
C301  H140  S    
C226  C248  A    
O88   Zn4   S    
O64   Zn7   S    
C189  C202  A    
C191  H14   S    
O2    Zn3   S    
C183  C200  A    
O57   Zn26  S    
C159  C176  A    
O37   Zn24  S    
C145  O45   A    
C57   O6    A    
C121  C139  A    
C270  H113  S    
C150  O70   A    
C212  C226  A    
C120  H219  S    
O86   Zn2   S    
C261  O99   A    
C21   H156  S    
C74   O27   A    
O99   Zn15  S    
C291  H130  S    
O28   Zn23  S    
C279  H146  S    
O28   Zn2   S    
C273  C275  S    
C183  H6    S    
C81   O34   A    
C189  H12   S    
C6    C274  S    
C291  H111  S    
C281  H149  S    
C257  H60   S    
C227  C247  A    
C286  H106  S    
O81   Zn29  S    
O83   Zn17  S    
C230  C237  A    
O61   Zn15  S    
C295  H116  S    
C79   C211  A    
C119  H218  S    
C287  H126  S    
C22   H157  S    
C147  C235  S    
C25   C131  A    
C271  C274  S    
O58   Zn4   S    
C211  H17   S    
C156  O73   A    
C12   C263  S    
C214  H19   S    
C114  C131  A    
C13   O16   A    
O16   Zn12  S    
C262  H82   S    
C301  H122  S    
C276  H143  S    
C228  C230  A    
C148  O55   A    
C299  H120  S    
C145  O57   A    
O43   Zn11  S    
O19   Zn31  S    
C171  C188  A    
C98   C117  A    
O9    Zn32  S    
O83   Zn31  S    
C282  H103  S    
C58   C93   A    
C169  C186  A    
C293  C296  S    
C35   O4    A    
C168  H43   S    
C60   C83   S    
O34   Zn20  S    
C123  C125  S    
C95   C114  A    
C225  C241  A    
C193  C198  A    
C181  H4    S    
C192  H15   S    
O1    Zn21  S    
C11   C262  S    
C151  C195  S    
O32   Zn18  S    
C211  C241  A    
C255  H58   S    
C55   C91   A    
O94   Zn4   S    
C288  H108  S    
C278  H98   S    
C1    C11   S    
C16   C301  S    
C258  H78   S    
C297  H136  S    
C10   C112  S    
C148  C232  S    
C59   C94   A    
C4    C254  S    
O82   Zn30  S    
O50   Zn28  S    
C264  H66   S    
C262  H64   S    
C143  O51   A    
C4    C271  S    
C30   C137  A    
C162  C206  A    
C9    C277  S    
C292  H131  S    
C298  C300  S    
C31   C49   A    
C179  C234  A    
C225  H29   S    
C117  C134  A    
C11   C279  S    
C44   H179  S    
O12   Zn6   S    
C18   H153  S    
C255  H75   S    
C288  H127  S    
C70   O76   A    
C190  C233  A    
C151  O69   A    
C150  O58   A    
C27   C133  A    
C167  C206  A    
C74   O80   A    
C57   O21   A    
C217  C246  A    
O72   Zn16  S    
O25   Zn11  S    
C280  H147  S    
C229  H33   S    
C216  C245  A    
O39   Zn13  S    
C24   C302  S    
C101  H37   S    
C214  C243  A    
C265  H67   S    
O66   Zn5   S    
O49   Zn18  S    
C162  H159  S    
C65   C77   S    
O95   Zn10  S    
C249  C302  S    
C105  H205  S    
C101  C214  A    
C297  H118  S    
C89   C107  A    
O70   Zn1   S    
O8    Zn2   S    
C34   H169  S    
C6    C256  S    
C250  O98   A    
C31   H166  S    
C285  H123  S    
C97   C116  A    
C296  H117  S    
C212  C240  A    
C159  H1    S    
C71   O77   A    
C173  H46   S    
O1    Zn1   S    
O73   Zn30  S    
C260  H63   S    
C112  O2    A    
C15   C300  S    
C9    C259  S    
C22   C129  A    
C97   H197  S    
C268  H90   S    
O52   Zn20  S    
C231  H51   S    
C224  C227  A    
C13   O104  A    
C220  H26   S    
C298  H119  S    
C81   O87   A    
C30   C48   A    
C113  C235  A    
O24   Zn10  S    
C96   H196  S    
C12   C298  S    
C115  H213  S    
C32   H167  S    
O72   Zn30  S    
C91   C108  A    
C206  C244  S    
C65   C100  A    
C253  H55   S    
C25   C42   A    
C160  C204  A    
C2    O103  A    
C172  C189  A    
C75   O29   A    
C25   H160  S    
O90   Zn6   S    
C19   C126  A    
C34   C52   A    
C5    C57   S    
O103  Zn19  S    
C224  H49   S    
O91   Zn7   S    
C229  C231  A    
O47   Zn16  S    
C250  O10   A    
O20   Zn30  S    
O42   Zn10  S    
C154  C198  S    
C177  H223  S    
C36   H171  S    
C253  H73   S    
C84   O37   A    
O50   Zn8   S    
C144  C237  S    
O68   Zn23  S    
C283  O101  A    
O96   Zn11  S    
O40   Zn26  S    
C53   C81   S    
C160  C177  A    
O50   Zn26  S    
C164  C182  A    
C12   C283  S    
C122  C140  A    
C169  H2    S    
C29   C136  A    
C228  C246  A    
C155  O74   A    
C264  C266  S    
C268  H88   S    
C2    O15   A    
C290  H129  S    
C223  O8    A    
C259  H62   S    
C176  C194  A    
C161  C178  A    
O102  Zn18  S    
C18   C36   A    
O44   Zn13  S    
C90   C213  A    
C16   C266  S    
C161  H148  S    
C167  H214  S    
C265  H85   S    
C216  H21   S    
O63   Zn8   S    
C258  H61   S    
C118  H217  S    
O84   Zn31  S    
C66   C102  A    
O83   Zn22  S    
C251  H53   S    
C193  H16   S    
C259  C262  S    
C31   C138  A    
O62   Zn32  S    
O14   Zn27  S    
O83   Zn5   S    
C46   O20   A    
C70   O23   A    
O28   Zn11  S    
C220  C244  A    
C219  H25   S    
C249  H52   S    
C77   O84   A    
O26   Zn13  S    
O78   Zn23  S    
C280  C282  S    
C215  H20   S    
C7    C275  S    
O69   Zn12  S    
C251  C253  S    
C153  C197  S    
O17   Zn20  S    
C157  C219  A    
C29   H164  S    
C147  O46   A    
C192  C199  A    
C106  H206  S    
C165  H192  S    
O72   Zn6   S    
C180  C197  A    
C109  C128  A    
C1    O93   A    
C154  O75   A    
O50   Zn14  S    
C17   C123  A    
C20   H155  S    
C132  C133  S    
C271  H124  S    
C96   C115  A    
C171  H24   S    
O104  Zn20  S    
C64   C70   S    
O77   Zn12  S    
C209  C247  S    
C263  H83   S    
C33   C140  A    
O61   Zn7   S    
C112  O95   A    
C73   O26   A    
O53   Zn21  S    
C188  C194  A    
C239  O97   A    
C116  H215  S    
C93   H193  S    
C186  H9    S    
C251  H71   S    
C156  C200  S    
O74   Zn29  S    
C88   H188  S    
C181  C198  A    
C85   O38   A    
C289  C291  S    
C26   C43   A    
C296  H134  S    
C71   O24   A    
O7    Zn26  S    
C28   C45   A    
O29   Zn15  S    
C284  H151  S    
C184  C202  A    
O1    Zn9   S    
C119  C137  A    
C174  H57   S    
O4    Zn22  S    
O79   Zn27  S    
C41   C59   A    
C54   C89   A    
C212  H48   S    
C42   C60   A    
C68   O7    A    
C16   C250  S    
C259  H80   S    
C134  C136  S    
O23   Zn9   S    
C37   H172  S    
C44   C62   A    
C279  H99   S    
C45   C63   A    
C252  H54   S    
C14   C299  S    
C28   H163  S    
C24   O3    A    
C277  H97   S    
C275  H142  S    
C258  C260  S    
C264  H84   S    
C104  H204  S    
C283  O13   A    
C102  H201  S    
C88   C106  A    
C9    C223  S    
C84   O90   A    
C154  O63   A    
C21   C39   A    
O6    Zn25  S    
C86   O40   A    
C22   C40   A    
C72   O25   A    
O31   Zn17  S    
C76   O30   A    
O98   Zn14  S    
C62   C72   S    
C278  H145  S    
C295  H133  S    
C10   C278  S    
C78   O32   A    
C239  O9    A    
C32   C50   A    
C14   C264  S    
O67   Zn27  S    
C37   C54   A    
C298  H137  S    
C276  C278  S    
C51   H186  S    
C54   C80   S    
O93   Zn9   S    
C158  C202  S    
C113  C215  A    
C292  H114  S    
C58   C85   S    
C26   C132  A    
C187  H10   S    
O30   Zn16  S    
O17   Zn3   S    
C271  H92   S    
C124  C216  A    
C69   C104  A    
C153  O67   A    
C144  O49   A    
C6    C46   S    
C122  H221  S    
C61   C73   S    
C221  H27   S    
C7    C35   S    
C52   C87   A    
O101  Zn17  S    
C107  C126  A    
C63   C71   S    
C149  O48   A    
C124  H39   S    
C287  H107  S    
C39   H174  S    
C110  H210  S    
C260  H81   S    
C203  C241  S    
C137  C138  S    
C43   H178  S    
C285  C302  S    
C254  H74   S    
C229  C245  A    
C266  H69   S    
C205  C243  S    
O76   Zn1   S    
C99   C118  A    
C170  H13   S    
C121  H220  S    
C111  H211  S    
C8    C239  S    
C53   C88   A    
C10   C260  S    
C108  C127  A    
C5    C255  S    
C282  H150  S    
C38   H173  S    
C141  O41   A    
C40   H175  S    
C56   C92   A    
C5    C273  S    
C144  O44   A    
C174  C192  A    
C13   C303  S    
C82   O88   A    
C2    C304  S    
O72   Zn24  S    
C27   H162  S    
C227  H31   S    
C164  H181  S    
C30   H165  S    
