data_mof_unit_54884.cif
_audit_creation_date              2013-03-05T15:48:55-0500
_audit_creation_method            fapswitch 2.2
_symmetry_space_group_name_H-M    P1
_symmetry_Int_Tables_number       1
_space_group_crystal_system       triclinic
_cell_length_a                    6.97978
_cell_length_b                    13.788384
_cell_length_c                    19.972545
_cell_angle_alpha                 103.857373
_cell_angle_beta                  90.042456
_cell_angle_gamma                 90.401641
_cell_volume                      1866.15936844

loop_
_atom_site_label
_atom_site_type_symbol
_atom_site_description
_atom_site_fract_x
_atom_site_fract_y
_atom_site_fract_z
_atom_type_partial_charge
O1    O     O_R   0.506780 0.600060 0.449950 -0.580451
O2    O     O_R   0.179840 0.597110 0.589410 -0.604649
O3    O     O_R   0.004570 0.399940 0.550050 -0.595990
C1    C     C_R   0.347516 0.618566 0.616553 1.061588
O4    O     O_R   0.177380 0.612160 0.452890 -0.608968
O5    O     O_R   0.002100 0.415100 0.412560 -0.598336
C2    C     C_R   0.345852 0.637864 0.435827 0.972550
O6    O     O_R   0.509250 0.584900 0.587440 -0.564180
O7    O     O_3   0.337570 0.435330 0.486930 -0.262931
V1    V     V_3+5 0.064650 0.512000 0.502430 1.238972
O8    O     O_R   0.672090 0.402890 0.410590 -0.561125
C3    C     C_R   0.840938 0.380482 0.383626 1.011229
O9    O     O_R   0.674540 0.387840 0.547110 -0.579439
C4    C     C_R   0.843828 0.362961 0.564598 0.905007
V2    V     V_3+5 0.564040 0.488000 0.497570 1.278400
O10   O     O_3   0.840990 0.564670 0.513070 -0.256831
C5    C     C_R   0.868724 0.108795 0.603677 -0.160449
C6    C     C_R   0.858401 0.284896 0.603118 -0.352275
C7    C     C_R   0.905461 0.316324 0.933188 -0.225099
C8    C     C_R   0.983147 0.382820 0.896177 -0.171271
C9    C     C_R   0.015382 0.349063 0.824854 0.592076
C10   C     C_R   0.925092 0.260136 0.787116 -0.047734
C11   C     C_R   0.877828 0.188444 0.824254 -0.027346
C12   C     C_R   0.894232 0.237128 0.713676 0.027813
C13   C     C_R   0.880360 0.134575 0.677342 -0.084620
C14   C     C_R   0.880675 0.060899 0.716127 0.498469
C15   C     C_R   0.857892 0.088837 0.787843 -0.252431
C16   C     C_R   0.869271 0.312309 0.675910 -0.150687
C17   C     C_R   0.864757 0.183785 0.566959 0.552384
C18   C     C_R   0.869785 0.216104 0.897340 -0.135023
H1    H     H_    0.837841 0.030644 0.815238 0.147567
C19   C     C_3   0.684036 0.212192 0.232620 0.577626
C20   C     C_3   0.792512 0.196960 0.296685 -0.258499
H2    H     H_    0.740194 0.155972 0.334552 0.186937
C21   C     C_3   0.850693 0.309051 0.313881 -0.364344
C22   C     C_3   0.741699 0.322550 0.250043 0.434697
C23   C     C_3   0.922925 0.298806 0.204561 -0.393324
C24   C     C_3   0.030153 0.282782 0.268786 0.612984
C25   C     C_3   0.976242 0.170820 0.251397 -0.160832
C26   C     C_3   0.864147 0.186612 0.187684 -0.378448
H3    H     H_    0.977203 0.341593 0.167890 0.203231
H4    H     H_    0.076549 0.108871 0.251800 0.192848
C27   C     C_3   0.481190 0.780420 0.709546 -0.210221
C28   C     C_3   0.309786 0.840066 0.746356 0.415082
C29   C     C_3   0.358221 0.809785 0.813610 -0.219993
C30   C     C_3   0.530675 0.748977 0.777104 -0.096898
C31   C     C_3   0.397128 0.656724 0.754519 -0.197682
C32   C     C_3   0.224940 0.717043 0.791452 -0.271815
C33   C     C_3   0.180895 0.748063 0.723768 0.522652
C34   C     C_3   0.350651 0.687693 0.687018 -0.316216
H5    H     H_    0.121528 0.689692 0.824896 0.222255
C35   C     C_R   0.343659 0.892170 0.395426 0.551190
C36   C     C_R   0.351857 0.716716 0.397498 -0.453143
C37   C     C_R   0.390999 0.683487 0.066109 -0.201259
C38   C     C_R   0.430991 0.610812 0.103379 -0.243557
C39   C     C_R   0.454317 0.640531 0.175533 0.640969
C40   C     C_R   0.393997 0.736847 0.213032 -0.053408
C41   C     C_R   0.365607 0.810675 0.175675 -0.080371
C42   C     C_R   0.371159 0.763272 0.286638 -0.059193
C43   C     C_R   0.365511 0.865974 0.322298 -0.289007
C44   C     C_R   0.374878 0.939513 0.283298 0.520300
C45   C     C_R   0.356664 0.911399 0.211994 -0.211253
C46   C     C_R   0.337739 0.690229 0.324680 0.515282
C47   C     C_R   0.355045 0.818193 0.433270 -0.180416
C48   C     C_R   0.363696 0.783903 0.102578 -0.140182
H6    H     H_    0.349469 0.970735 0.185073 0.157855
O11   O     O_R   0.203580 0.914920 0.912610 -0.557038
O12   O     O_R   0.535710 0.887810 0.047120 -0.618422
O13   O     O_R   0.710730 0.084950 0.087430 -0.592196
C49   C     C_R   0.367483 0.862639 0.064417 1.018390
O14   O     O_R   0.533010 0.902850 0.910600 -0.596964
O15   O     O_R   0.708010 0.100090 0.949930 -0.578624
C50   C     C_R   0.364511 0.880859 0.883482 1.081585
O16   O     O_R   0.206300 0.899780 0.050100 -0.592722
O17   O     O_3   0.375170 0.064580 0.013100 -0.283495
V3    V     V_3+5 0.648200 0.988020 0.997570 1.242657
O18   O     O_R   0.038030 0.112330 0.952840 -0.608429
C51   C     C_R   0.870086 0.138106 0.936174 1.039044
O19   O     O_R   0.040730 0.097300 0.089360 -0.604350
C52   C     C_R   0.872329 0.117747 0.117020 1.052411
V4    V     V_3+5 0.148780 0.012220 0.002360 1.246106
O20   O     O_3   0.871930 0.935430 0.986900 -0.263030
O21   O     O_3   0.854904 0.154439 0.495491 -0.725530
H7    H     H_    0.872816 0.211919 0.474561 0.295785
O22   O     O_3   0.499458 0.175195 0.214146 -0.682036
H8    H     H_    0.462038 0.202280 0.174366 0.327716
O23   O     O_3   0.616249 0.401139 0.250802 -0.669758
H9    H     H_    0.549094 0.383061 0.205828 0.382572
O24   O     O_3   0.214907 0.317669 0.288728 -0.669797
H10   H     H_    0.220339 0.386414 0.281986 0.333363
O25   O     O_3   0.265261 0.937993 0.744392 -0.753922
H11   H     H_    0.265766 0.938810 0.694941 0.346825
C53   C     C_2   0.596017 0.821040 0.659535 0.583185
H12   H     H_    0.583171 0.899271 0.660146 0.032785
O26   O     O_2   0.696935 0.767144 0.616642 -0.529027
C54   C     C_2   0.724282 0.745267 0.808174 0.581538
H13   H     H_    0.776122 0.675644 0.817354 0.017780
O27   O     O_2   0.823227 0.820589 0.824020 -0.567473
C55   C     C_2   0.425970 0.552687 0.760715 0.654659
H14   H     H_    0.452438 0.538687 0.811080 0.087898
O28   O     O_2   0.413492 0.483170 0.709902 -0.599521
O29   O     O_3   0.909654 0.962134 0.684152 -0.777071
H15   H     H_    0.905695 0.922085 0.719137 0.385232
O30   O     O_3   0.000429 0.746588 0.693977 -0.697321
H16   H     H_    0.949488 0.678218 0.690353 0.319781
C56   C     C_2   0.352488 0.846174 0.510391 0.759623
H17   H     H_    0.335722 0.789499 0.539363 -0.112705
O31   O     O_2   0.370544 0.932781 0.542942 -0.569811
O32   O     O_3   0.405649 0.039579 0.312265 -0.723896
H18   H     H_    0.495836 0.044858 0.351298 0.345212
O33   O     O_3   0.297257 0.987861 0.430744 -0.661862
H19   H     H_    0.199376 0.013051 0.403253 0.359375
O34   O     O_3   0.278119 0.595703 0.289526 -0.717486
H20   H     H_    0.215719 0.560533 0.321389 0.309806
C57   C     C_2   0.393647 0.656619 0.989097 0.503473
H21   H     H_    0.487711 0.599113 0.960836 -0.000072
O35   O     O_2   0.290882 0.699344 0.956047 -0.591190
O36   O     O_3   0.560726 0.578832 0.206156 -0.668142
H22   H     H_    0.629292 0.620565 0.246495 0.319992
C58   C     C_2   0.451780 0.503219 0.067741 0.636393
H23   H     H_    0.483790 0.479564 0.013328 -0.052839
O37   O     O_2   0.426255 0.438128 0.098891 -0.535481
C59   C     C_2   0.847503 0.003943 0.562706 0.825613
H24   H     H_    0.744132 0.954390 0.577444 0.021350
O38   O     O_2   0.943530 0.972525 0.511125 -0.537899
C60   C     C_2   0.836450 0.419364 0.710594 0.712164
H25   H     H_    0.880245 0.478496 0.686395 -0.047826
O39   O     O_2   0.755038 0.442754 0.765961 -0.610681
C61   C     C_2   0.869573 0.349581 0.009024 0.495436
H26   H     H_    0.938741 0.415328 0.040391 0.015815
O40   O     O_2   0.757444 0.304477 0.037657 -0.577053
O41   O     O_3   0.143494 0.401760 0.794319 -0.750768
H27   H     H_    0.191658 0.356533 0.751459 0.327006
C62   C     C_2   0.032065 0.487885 0.930406 0.642130
H28   H     H_    0.082301 0.508655 0.983195 -0.080505
O42   O     O_2   0.013633 0.553561 0.899400 -0.537822

loop_
_geom_bond_atom_site_label_1
_geom_bond_atom_site_label_2
_geom_bond_distance
_ccdc_geom_bond_type
C28   C33   1.526895 S    
C7    C61   1.495534 S    
O23   H9    0.989534 S    
C41   C45   1.406274 A    
C53   H12   1.080185 S    
C5    C17   1.404036 A    
C4    C6    1.469336 S    
C7    C8    1.413995 A    
C1    O6    1.306505 A    
C44   O32   1.377615 S    
C33   O30   1.390612 S    
V4    O20   2.182711 S    
C59   H24   1.078791 S    
C37   C48   1.415883 A    
O18   C51   1.293492 A    
C28   C29   1.537155 S    
C24   O24   1.397035 S    
C14   C15   1.400787 A    
C20   C25   1.563538 S    
C19   C22   1.528430 S    
C22   C23   1.548359 S    
O34   H20   0.987488 S    
C23   C26   1.554407 S    
O5    C3    1.298659 A    
C24   C25   1.542828 S    
C36   C47   1.410459 A    
C59   O38   1.220465 D    
C56   H17   1.083796 S    
C48   C49   1.468412 S    
C17   O21   1.388777 S    
C31   C55   1.484150 S    
C39   C40   1.426095 A    
O13   V3    2.009844 S    
C29   C50   1.501326 S    
O36   H22   0.991334 S    
O15   C51   1.300426 A    
C35   C43   1.426656 A    
C20   C21   1.551876 S    
C30   C31   1.548637 S    
O8    V2    2.000413 S    
C5    C59   1.487234 S    
C32   H5    1.107690 S    
C21   C22   1.534033 S    
C16   C60   1.492124 S    
O41   H27   0.991131 S    
C57   O35   1.220152 D    
C54   O27   1.219802 D    
C49   O16   1.299012 A    
C31   C32   1.549743 S    
C26   C52   1.501900 S    
O11   C50   1.303161 A    
C11   C15   1.397582 A    
C25   H4    1.109736 S    
O7    V1    2.171286 S    
O15   V3    2.040414 S    
C42   C43   1.425427 A    
C53   O26   1.218850 D    
C9    C10   1.419327 A    
C54   H13   1.084065 S    
C44   C45   1.388936 A    
O30   H16   0.991437 S    
C58   O37   1.220541 D    
C31   C34   1.543439 S    
C38   C58   1.491954 S    
C22   O23   1.395211 S    
V2    O10   2.182611 S    
C45   H6    1.082706 S    
C15   H1    1.082402 S    
C11   C18   1.418837 A    
C21   C24   1.537248 S    
C6    C16   1.413677 A    
C12   C13   1.428963 A    
C35   C47   1.410112 A    
V3    O20   1.718176 S    
O25   H11   0.990425 S    
O14   C50   1.297636 A    
O17   V4    1.724368 S    
C62   O42   1.220756 D    
C35   O33   1.379804 S    
C13   C14   1.417414 A    
O22   H8    0.991029 S    
C1    C34   1.498913 S    
C43   C44   1.420090 A    
C46   O34   1.385098 S    
O2    C1    1.291699 A    
O17   V3    2.171283 S    
C9    O41   1.379643 S    
C23   C24   1.546291 S    
C41   C48   1.417612 A    
O21   H7    0.987888 S    
O18   V4    2.036889 S    
C37   C57   1.493505 S    
C38   C39   1.409623 A    
C20   H2    1.107708 S    
C6    C17   1.409187 A    
C3    C21   1.502999 S    
O3    C4    1.290965 A    
C28   O25   1.397333 S    
O1    V2    2.040528 S    
C32   C33   1.543707 S    
C55   O28   1.220256 D    
O11   V4    2.003907 S    
O6    V2    2.003144 S    
O9    V2    2.037028 S    
C27   C28   1.540664 S    
C10   C12   1.440193 A    
C42   C46   1.417593 A    
C2    C36   1.472417 S    
O16   V4    2.047003 S    
O2    V1    2.012373 S    
C25   C26   1.553215 S    
C58   H23   1.081177 S    
O4    C2    1.295024 A    
C61   H26   1.081076 S    
C29   C32   1.551812 S    
C37   C38   1.413183 A    
C60   O39   1.217544 D    
O33   H19   0.991448 S    
O1    C2    1.300423 A    
C39   O36   1.380890 S    
C12   C16   1.432053 A    
O5    V1    2.009836 S    
O8    C3    1.304127 A    
C27   C34   1.541046 S    
C47   C56   1.495714 S    
C62   H28   1.081672 S    
O12   V3    2.036171 S    
O19   V4    2.000545 S    
C55   H14   1.084654 S    
C5    C13   1.430547 A    
C19   C20   1.544060 S    
O7    V2    1.726472 S    
O4    V1    2.036135 S    
O3    V1    2.040414 S    
V1    O10   1.718156 S    
O32   H18   0.990332 S    
C14   O29   1.375051 S    
C36   C46   1.415325 A    
C40   C41   1.413723 A    
O14   V3    2.012537 S    
C56   O31   1.220854 D    
C60   H25   1.085036 S    
C19   O22   1.398585 S    
C27   C53   1.488822 S    
C19   C26   1.538358 S    
C23   H3    1.110068 S    
O29   H15   0.989236 S    
C27   C30   1.552268 S    
C40   C42   1.436641 A    
O19   C52   1.302785 A    
C18   C51   1.468958 S    
C29   C30   1.551160 S    
C30   C54   1.492892 S    
C8    C9    1.407410 A    
O12   C49   1.292609 A    
C33   C34   1.535574 S    
C10   C11   1.408257 A    
O13   C52   1.299938 A    
C8    C62   1.483547 S    
O24   H10   0.989293 S    
O9    C4    1.303194 A    
C7    C18   1.416047 A    
C57   H21   1.082506 S    
C61   O40   1.220869 D    
