data_mof_unit_49793.cif
_audit_creation_date              2012-12-10T16:50:01-0500
_audit_creation_method            fapswitch 2.2
_symmetry_space_group_name_H-M    P1
_symmetry_Int_Tables_number       1
_space_group_crystal_system       triclinic
_cell_length_a                    7.819588
_cell_length_b                    8.556841
_cell_length_c                    10.720411
_cell_angle_alpha                 93.058753
_cell_angle_beta                  83.53807
_cell_angle_gamma                 94.522676
_cell_volume                      709.819641287

loop_
_atom_site_label
_atom_site_type_symbol
_atom_type_description
_atom_site_fract_x
_atom_site_fract_y
_atom_site_fract_z
_atom_type_partial_charge
C1    C     C_R   0.546162 0.794772 0.508567 0.801407
C2    C     C_R   0.454280 0.206556 0.514262 1.049146
C3    C     C_R   0.501064 0.495484 0.260355 0.870893
C4    C     C_R   0.264880 0.255732 0.889066 0.468156
C5    C     C_R   0.169783 0.145536 0.966627 -0.304945
C6    C     C_R   0.211748 0.127035 0.086117 -0.186744
C7    C     C_R   0.349806 0.218986 0.131280 0.276064
C8    C     C_R   0.414209 0.357824 0.067950 -0.098590
C9    C     C_3   0.545726 0.859560 0.843248 -0.764385
C10   C     C_3   0.036307 0.735149 0.697693 -0.692867
C11   C     C_3   0.429188 0.992102 0.238519 -0.780196
C12   C     C_R   0.387129 0.368051 0.940981 -0.026128
C13   C     C_R   0.486109 0.489093 0.872696 -0.198674
C14   C     C_R   0.581758 0.611529 0.931825 0.160064
C15   C     C_R   0.592852 0.610236 0.059292 0.371562
C16   C     C_R   0.506703 0.485033 0.126914 -0.222742
C17   C     C_2   0.570635 0.960038 0.532992 0.234525
C18   C     C_2   0.431462 0.043408 0.531922 -0.404110
C19   C     C_R   0.495626 0.491305 0.739292 0.984096
H1    H     H_    0.070039 0.065662 0.931238 0.155978
H2    H     H_    0.177688 0.757595 0.695108 0.238272
H3    H     H_    0.990846 0.644939 0.767044 0.251432
H4    H     H_    0.146999 0.169468 0.746229 0.331315
H5    H     H_    0.566387 0.206561 0.224473 0.230742
H6    H     H_    0.305613 0.953281 0.293305 0.242961
H7    H     H_    0.537761 0.959476 0.287115 0.235804
H8    H     H_    0.439689 0.929260 0.145399 0.262935
H9    H     H_    0.679385 0.730881 0.205080 0.344950
H10   H     H_    0.812936 0.949785 0.560357 0.341869
H11   H     H_    0.925744 0.272950 0.369193 0.353047
H12   H     H_    0.146065 0.030969 0.138325 0.179424
H13   H     H_    0.301413 0.989943 0.527167 0.142286
H14   H     H_    0.772501 0.791213 0.896723 0.271231
H15   H     H_    0.618963 0.957057 0.791956 0.259221
H16   H     H_    0.486610 0.908593 0.934158 0.247904
H17   H     H_    0.442278 0.809380 0.787272 0.225247
H18   H     H_    0.021707 0.767688 0.510088 0.203665
H19   H     H_    0.977662 0.846866 0.727557 0.192900
N1    N     N_2   0.950330 0.457950 0.466250 0.135159
N2    N     N_2   0.049670 0.542050 0.533750 0.095770
N3    N     N_2   0.661385 0.741508 0.863082 -0.292934
N4    N     N_2   0.988106 0.683363 0.575445 -0.203593
N5    N     N_2   0.440351 0.160753 0.226051 -0.302059
O1    O     O_R   0.389250 0.738570 0.508280 -0.663110
O2    O     O_3   0.687318 0.735219 0.113029 -0.801209
O3    O     O_3   0.731126 0.030786 0.555062 -0.740250
O4    O     O_3   0.020803 0.331691 0.409287 -0.623891
O5    O     O_R   0.678390 0.711630 0.486650 -0.626725
O6    O     O_R   0.355400 0.513470 0.694050 -0.588916
O7    O     O_R   0.644540 0.486530 0.672420 -0.604060
O8    O     O_R   0.321610 0.288370 0.513350 -0.540556
O9    O     O_R   0.610750 0.261430 0.491720 -0.575832
O10   O     O_R   0.355460 0.513470 0.327580 -0.566664
O11   O     O_R   0.644600 0.486530 0.305950 -0.646263
O12   O     O_3   0.234199 0.255542 0.765178 -0.764299
Zn1   Zn    Zn3+2 0.306930 0.517990 0.514440 1.037649
Zn2   Zn    Zn3+2 0.693070 0.482010 0.485560 1.024062

loop_
_geom_bond_atom_site_label_1
_geom_bond_atom_site_label_2
_ccdc_geom_bond_type
C9    H17   S    
C1    O5    A    
C11   N5    S    
C6    C7    A    
C7    N5    S    
C8    C12   A    
C10   N4    S    
O6    Zn1   S    
O1    Zn1   S    
C1    O1    A    
C1    C17   S    
C11   H8    S    
H10   O3    S    
C10   H19   S    
H14   N3    S    
H18   N4    S    
N2    N4    S    
C6    H12   S    
O5    Zn2   S    
C4    O12   S    
C5    H1    S    
C13   C14   A    
C10   H3    S    
H4    O12   S    
C12   C13   A    
C3    O10   A    
C19   O7    A    
O9    Zn2   S    
C9    H15   S    
C2    O9    A    
C14   N3    S    
C17   C18   D    
C10   H2    S    
C5    C6    A    
C3    O11   A    
H9    O2    S    
C4    C12   A    
C2    O8    A    
C15   O2    S    
C15   C16   A    
N1    Zn2   S    
C11   H6    S    
H11   O4    S    
C7    C8    A    
C18   H13   S    
C17   O3    S    
N1    O4    S    
O8    Zn1   S    
C8    C16   A    
O10   Zn1   S    
N1    N2    D    
C9    H16   S    
H5    N5    S    
C13   C19   S    
C14   C15   A    
C4    C5    A    
C9    N3    S    
C11   H7    S    
O7    Zn2   S    
C19   O6    A    
C3    C16   S    
C2    C18   S    
N2    Zn1   S    
O11   Zn2   S    
