data_mof_unit_61611.cif
_audit_creation_date              2012-12-10T19:26:12-0500
_audit_creation_method            fapswitch 2.2
_symmetry_space_group_name_H-M    P1
_symmetry_Int_Tables_number       1
_space_group_crystal_system       triclinic
_cell_length_a                    18.482884
_cell_length_b                    18.663187
_cell_length_c                    18.911521
_cell_angle_alpha                 109.727939
_cell_angle_beta                  109.433591
_cell_angle_gamma                 108.424026
_cell_volume                      5071.93906525

loop_
_atom_site_label
_atom_site_type_symbol
_atom_type_description
_atom_site_fract_x
_atom_site_fract_y
_atom_site_fract_z
_atom_type_partial_charge
C1    C     C_R   0.119952 0.999191 0.619222 0.866498
C2    C     C_R   0.327220 0.078775 0.813291 -0.140264
C3    C     C_R   0.312627 0.001914 0.816980 -0.089500
C4    C     C_R   0.122890 0.118969 0.502639 0.912968
C5    C     C_R   0.230575 0.928366 0.760785 0.019483
C6    C     C_3   0.198850 0.832765 0.711990 -0.264692
C7    C     C_3   0.129304 0.830604 0.637156 -0.028935
C8    C     C_R   0.737480 0.758019 0.431471 0.025532
C9    C     C_R   0.817917 0.816457 0.505748 -0.205251
C10   C     C_R   0.831093 0.820487 0.585201 0.113460
C11   C     C_R   0.764642 0.758721 0.586562 0.140764
C12   C     C_R   0.272305 0.187974 0.526497 0.009262
C13   C     C_R   0.686934 0.693371 0.507670 -0.222298
C14   C     C_R   0.672806 0.697554 0.432409 0.063859
C15   C     C_3   0.644720 0.628062 0.345048 -0.022364
C16   C     C_R   0.876599 0.997600 0.380891 0.940970
C17   C     C_3   0.717399 0.695558 0.344423 -0.016102
C18   C     C_R   0.825800 0.016652 0.257405 0.030717
C19   C     C_R   0.809786 0.000305 0.318340 -0.204626
C20   C     C_R   0.738213 0.004026 0.328206 0.196920
C21   C     C_R   0.677419 0.013652 0.268071 -0.083961
C22   C     C_R   0.687622 0.012750 0.196673 -0.222406
C23   C     C_R   0.188531 0.181932 0.500559 -0.140255
C24   C     C_R   0.766839 0.024952 0.198792 0.092744
C25   C     C_3   0.786646 0.985556 0.129526 -0.053892
C26   C     C_3   0.847641 0.969824 0.193112 -0.008175
C27   C     C_R   0.498312 0.619143 0.618985 0.883353
C28   C     C_R   0.881883 0.880286 0.502135 0.926797
C29   C     C_R   0.379620 0.377419 0.498015 0.868918
C30   C     C_R   0.503078 0.382362 0.380857 0.850668
C31   C     C_R   0.620511 0.622322 0.502337 0.879483
C32   C     C_R   0.500200 0.120010 0.120584 0.884901
C33   C     C_R   0.379674 0.000109 0.880226 0.868589
C34   C     C_R   0.166802 0.237345 0.473880 0.127413
C35   C     C_R   0.503961 0.879993 0.883566 0.840016
C36   C     C_R   0.620273 0.003343 0.123038 0.847537
C37   C     C_R   0.424190 0.674645 0.689505 0.086946
C38   C     C_R   0.498754 0.687224 0.682017 -0.066445
C39   C     C_R   0.576031 0.766083 0.738447 -0.145850
C40   C     C_R   0.297525 0.136395 0.560149 -0.000247
C41   C     C_R   0.581722 0.830299 0.808248 -0.051239
C42   C     C_R   0.506727 0.814049 0.819093 -0.179058
C43   C     C_R   0.428928 0.736205 0.758322 0.094716
C44   C     C_3   0.366426 0.669151 0.766645 0.018688
C45   C     C_R   0.229033 0.300064 0.471053 -0.094781
C46   C     C_3   0.358306 0.600504 0.687034 -0.337118
C47   C     C_R   0.433140 0.235206 0.265869 -0.032025
C48   C     C_R   0.506450 0.317171 0.317826 -0.121841
C49   C     C_R   0.584699 0.331188 0.314376 -0.030184
C50   C     C_R   0.582451 0.263955 0.249923 -0.134857
C51   C     C_R   0.504127 0.185314 0.190929 -0.132302
C52   C     C_R   0.386452 0.169519 0.616846 -0.046852
C53   C     C_R   0.431673 0.170021 0.203142 0.073435
C54   C     C_3   0.336550 0.134568 0.142320 0.197339
C55   C     C_3   0.338896 0.207958 0.213204 -0.296859
C56   C     C_R   0.313395 0.307110 0.495362 -0.195617
C57   C     C_R   0.447977 0.228797 0.609806 -0.125522
C58   C     C_R   0.419335 0.256230 0.551185 0.164137
C59   C     C_R   0.335441 0.251040 0.523434 0.029554
C60   C     C_2   0.606545 0.027543 0.280809 0.466943
C61   C     C_2   0.668236 0.908553 0.872586 0.498616
C62   C     C_2   0.385744 0.535271 0.698711 0.466967
C63   C     C_2   0.414195 0.130041 0.669658 0.457016
C64   C     C_2   0.666171 0.416503 0.372474 0.437817
C65   C     C_2   0.286645 0.181002 0.254644 0.525302
C66   C     C_2   0.207106 0.362540 0.449306 0.563193
C67   C     C_R   0.169035 0.926514 0.694765 0.041969
C68   C     C_2   0.265151 0.810995 0.694557 0.508118
C69   C     C_R   0.186160 0.999102 0.684139 -0.038510
C70   C     C_R   0.262919 0.077677 0.747628 -0.213164
H1    H     H_    0.170524 0.797929 0.741622 0.182206
H2    H     H_    0.640417 0.273943 0.243408 0.206185
H3    H     H_    0.330165 0.257354 0.196225 0.222005
H4    H     H_    0.515068 0.240908 0.637404 0.210764
H5    H     H_    0.274654 0.136705 0.744022 0.153397
H6    H     H_    0.388391 0.138538 0.859527 0.184305
H7    H     H_    0.545304 0.007410 0.226812 0.095296
H8    H     H_    0.681725 0.947134 0.937284 0.080357
H9    H     H_    0.336011 0.468112 0.667738 0.043641
H10   H     H_    0.365568 0.077507 0.668036 0.083022
H11   H     H_    0.666901 0.471522 0.417628 0.051744
H12   H     H_    0.062136 0.795212 0.626036 0.156962
H13   H     H_    0.295396 0.139353 0.281451 0.101576
H14   H     H_    0.247396 0.431759 0.494561 0.004768
H15   H     H_    0.328774 0.861749 0.714806 0.051785
H16   H     H_    0.658109 0.574856 0.348280 0.102685
H17   H     H_    0.771405 0.680028 0.347780 0.149504
H18   H     H_    0.728729 0.924565 0.072552 0.103512
H19   H     H_    0.820376 0.899828 0.174341 0.145963
H20   H     H_    0.632996 0.775326 0.730499 0.198077
H21   H     H_    0.304752 0.672661 0.752908 0.175610
H22   H     H_    0.293157 0.568591 0.628932 0.149002
I1    I     I_    0.040576 0.231090 0.443689 -0.191213
I2    I     I_    0.985439 0.030286 0.234395 -0.115481
I3    I     I_    0.423564 0.669206 0.886992 -0.208853
I4    I     I_    0.312542 0.147546 0.029135 -0.266038
I5    I     I_    0.258978 0.002661 0.109137 -0.206330
I6    I     I_    0.475670 0.242160 0.470347 -0.268914
I7    I     I_    0.135518 0.793476 0.518832 -0.187268
I8    I     I_    0.955247 0.912549 0.700129 -0.215042
I9    I     I_    0.783735 0.765845 0.707516 -0.185487
I10   I     I_    0.510587 0.581698 0.255451 -0.173722
I11   I     I_    0.682878 0.741329 0.254568 -0.234827
I12   I     I_    0.713359 0.977158 0.422188 -0.146815
I13   I     I_    0.235777 0.998722 0.479505 -0.223109
I14   I     I_    0.846630 0.083533 0.101024 -0.113278
O1    O     O_R   0.091620 0.948280 0.539900 -0.594002
O2    O     O_R   0.448300 0.040010 0.091670 -0.604672
O3    O     O_R   0.460120 0.051750 0.908420 -0.606945
O4    O     O_R   0.091590 0.051710 0.643320 -0.607269
O5    O     O_R   0.356670 0.948360 0.908460 -0.605688
O6    O     O_R   0.551700 0.960090 0.908430 -0.631781
O7    O     O_R   0.448250 0.856700 0.908470 -0.595846
O8    O     O_R   0.643330 0.051740 0.091640 -0.596955
O9    O     O_R   0.539880 0.948350 0.091680 -0.627689
O10   O     O_R   0.091630 0.039900 0.448300 -0.578590
O11   O     O_R   0.091610 0.143340 0.551720 -0.616165
O12   O     O_R   0.551680 0.591610 0.643340 -0.571684
O13   O     O_R   0.908410 0.948290 0.356680 -0.608721
O14   O     O_R   0.908380 0.051720 0.460100 -0.590703
O15   O     O_R   0.908390 0.856660 0.448280 -0.621948
O16   O     O_R   0.908370 0.960100 0.551700 -0.586308
O17   O     O_R   0.448240 0.591630 0.539920 -0.627925
O18   O     O_2   0.617556 0.066583 0.353074 -0.499143
O19   O     O_2   0.726223 0.929887 0.854445 -0.507463
O20   O     O_2   0.462155 0.556589 0.743558 -0.505878
O21   O     O_2   0.491621 0.156168 0.716203 -0.533792
O22   O     O_2   0.733854 0.426641 0.370344 -0.534937
O23   O     O_R   0.356630 0.408410 0.448290 -0.603917
O24   O     O_2   0.234596 0.206862 0.259483 -0.491950
O25   O     O_2   0.146177 0.337238 0.379398 -0.464927
O26   O     O_2   0.246612 0.735143 0.655180 -0.561483
O27   O     O_R   0.460070 0.408390 0.551710 -0.595912
O28   O     O_R   0.448260 0.408420 0.356690 -0.599991
O29   O     O_R   0.551700 0.408400 0.460110 -0.606942
O30   O     O_R   0.539880 0.591640 0.448310 -0.592906
O31   O     O_R   0.643310 0.591620 0.551740 -0.611815
O32   O     O_R   0.551750 0.143400 0.091630 -0.614816
Zn1   Zn    Zn3+2 0.000020 0.930940 0.430940 1.079572
Zn2   Zn    Zn3+2 0.999980 0.069060 0.569060 1.080026
Zn3   Zn    Zn3+2 0.430910 0.500030 0.430960 1.079162
Zn4   Zn    Zn3+2 0.569030 0.500000 0.569070 1.072639
Zn5   Zn    Zn3+2 0.569070 0.069080 0.000020 1.051253
Zn6   Zn    Zn3+2 0.430930 0.931020 0.000080 1.043702

loop_
_geom_bond_atom_site_label_1
_geom_bond_atom_site_label_2
_ccdc_geom_bond_type
C26   I2    S    
C29   O27   A    
O31   Zn4   S    
C37   C43   A    
C41   C42   A    
C19   C20   A    
C18   C26   S    
C34   I1    S    
C41   C61   S    
C5    C67   A    
C36   O8    A    
C65   O24   D    
C39   C41   A    
C53   C54   S    
C26   H19   S    
C12   C23   A    
O27   Zn4   S    
C37   C38   A    
C7    I7    S    
C46   C62   S    
C18   C24   A    
O6    Zn5   S    
C30   C48   S    
O32   Zn5   S    
C16   O14   A    
C38   C39   A    
C28   O16   A    
C65   H13   S    
O23   Zn3   S    
C3    C33   S    
C27   C38   S    
C68   O26   D    
C18   C19   A    
C60   O18   D    
C35   C42   S    
C50   H2    S    
C21   C22   A    
C54   C55   S    
C12   C59   A    
O29   Zn4   S    
C29   O23   A    
C45   C56   A    
C8    C9    A    
C30   O28   A    
C58   I6    S    
C54   I5    S    
O14   Zn2   S    
C31   O31   A    
C9    C10   A    
C39   H20   S    
C54   I4    S    
C47   C53   A    
O10   Zn1   S    
C6    C68   S    
C49   C64   S    
C13   C14   A    
C68   H15   S    
C55   C65   S    
C44   C46   S    
C25   I14   S    
C63   H10   S    
C6    H1    S    
C60   H7    S    
C62   H9    S    
C24   C25   S    
C21   C60   S    
C11   I9    S    
C52   C57   A    
C16   O13   A    
C62   O20   D    
C4    C23   S    
C27   O17   A    
C28   O15   A    
C64   O22   D    
C58   C59   A    
C40   C52   A    
C66   H14   S    
C25   H18   S    
C1    C69   S    
C67   C69   A    
C57   H4    S    
C12   C40   A    
C43   C44   S    
C32   C51   S    
C32   O32   A    
O30   Zn3   S    
C1    O4    A    
C47   C48   A    
C61   H8    S    
C23   C34   A    
O17   Zn3   S    
C50   C51   A    
O3    Zn5   S    
C34   C45   A    
C10   I8    S    
C44   H21   S    
O5    Zn6   S    
C1    O1    A    
C15   H16   S    
C33   O5    A    
C48   C49   A    
C49   C50   A    
C22   C24   A    
C4    O11   A    
O11   Zn2   S    
C33   O3    A    
C42   C43   A    
C3    C5    A    
O2    Zn6   S    
C2    H6    S    
C47   C55   S    
C66   O25   D    
C27   O12   A    
C15   C17   S    
O9    Zn6   S    
C8    C14   A    
C17   H17   S    
C4    O10   A    
C31   O30   A    
O12   Zn4   S    
C52   C63   S    
O7    Zn6   S    
C6    C7    S    
C20   I12   S    
C29   C56   S    
C22   C36   S    
C8    C17   S    
C56   C59   A    
O13   Zn1   S    
O8    Zn5   S    
O15   Zn1   S    
O4    Zn2   S    
C2    C3    A    
C17   I11   S    
O16   Zn2   S    
C44   I3    S    
C25   C26   S    
O28   Zn3   S    
C11   C13   A    
C57   C58   A    
C5    C6    S    
C16   C19   S    
C35   O7    A    
C15   I10   S    
O1    Zn1   S    
C69   C70   A    
C13   C31   S    
C64   H11   S    
C10   C11   A    
C7    C67   S    
C55   H3    S    
C7    H12   S    
C46   H22   S    
C20   C21   A    
C70   H5    S    
C30   O29   A    
C32   O2    A    
C45   C66   S    
C14   C15   S    
C61   O19   D    
C51   C53   A    
C37   C46   S    
C2    C70   A    
C36   O9    A    
C63   O21   D    
C35   O6    A    
C9    C28   S    
C40   I13   S    
