data_mof_unit_64539.cif
_audit_creation_date              2012-12-10T20:05:48-0500
_audit_creation_method            fapswitch 2.2
_symmetry_space_group_name_H-M    P1
_symmetry_Int_Tables_number       1
_space_group_crystal_system       triclinic
_cell_length_a                    27.683378
_cell_length_b                    27.708551
_cell_length_c                    27.787819
_cell_angle_alpha                 109.355561
_cell_angle_beta                  109.606427
_cell_angle_gamma                 109.196305
_cell_volume                      16459.7195152

loop_
_atom_site_label
_atom_site_type_symbol
_atom_type_description
_atom_site_fract_x
_atom_site_fract_y
_atom_site_fract_z
_atom_type_partial_charge
C1    C     C_R   0.919273 0.919325 0.499989 0.909007
C2    C     C_R   0.705946 0.706686 0.499400 0.125008
C3    C     C_R   0.689115 0.728083 0.461317 -0.302670
C4    C     C_R   0.919040 0.000039 0.419030 0.912933
C5    C     C_R   0.732315 0.771882 0.460757 0.468743
C6    C     C_R   0.792107 0.793429 0.498897 0.111412
C7    C     C_R   0.808611 0.771818 0.536880 -0.282439
C8    C     C_1   0.661897 0.662249 0.499728 -0.036152
C9    C     C_1   0.837052 0.837881 0.499365 0.030803
C10   C     C_1   0.874719 0.875148 0.499712 -0.163105
C11   C     C_1   0.624816 0.624930 0.499920 -0.183592
C12   C     C_3   0.792692 0.999995 0.291929 0.100651
C13   C     C_R   0.274868 0.963433 0.735197 -0.181392
C14   C     C_R   0.294953 0.999826 0.794524 0.169387
C15   C     C_R   0.271527 0.036197 0.810383 -0.181380
C16   C     C_R   0.080721 0.080682 0.499989 0.908834
C17   C     C_R   0.227894 0.036189 0.766804 -0.180545
C18   C     C_R   0.207800 0.999808 0.707479 0.166548
C19   C     C_R   0.231225 0.963428 0.691609 -0.180180
C20   C     C_1   0.339603 0.999861 0.839189 -0.069070
C21   C     C_1   0.163123 0.999837 0.662892 -0.069260
C22   C     C_1   0.125616 0.999904 0.625499 -0.178741
C23   C     C_3   0.776915 0.039832 0.236865 -0.195195
C24   C     C_1   0.377072 0.999954 0.876769 -0.180466
C25   C     C_R   0.272350 0.233645 0.462396 -0.180984
C26   C     C_R   0.293408 0.293050 0.499745 0.169525
C27   C     C_R   0.271220 0.309227 0.537107 -0.180956
C28   C     C_R   0.081116 0.999968 0.581101 0.905204
C29   C     C_R   0.227796 0.265835 0.537129 -0.177993
C30   C     C_R   0.206728 0.206432 0.499789 0.166708
C31   C     C_R   0.228915 0.190243 0.462420 -0.180110
C32   C     C_1   0.337811 0.337480 0.499753 -0.069024
C33   C     C_1   0.162299 0.162074 0.499841 -0.067301
C34   C     C_3   0.710206 0.000146 0.210373 0.072440
C35   C     C_1   0.124982 0.124854 0.499918 -0.175424
C36   C     C_1   0.375099 0.374877 0.499830 -0.179446
C37   C     C_R   0.502182 0.080767 0.082861 0.908113
C38   C     C_R   0.583569 0.000081 0.083562 0.908666
C39   C     C_R   0.503090 0.919414 0.922336 0.903740
C40   C     C_3   0.717241 0.014818 0.271929 -0.349361
C41   C     C_R   0.421509 0.000067 0.921391 0.909324
C42   C     C_R   0.500489 0.419461 0.419698 0.903155
C43   C     C_R   0.580673 0.580678 0.499991 0.908224
C44   C     C_R   0.499557 0.580617 0.580324 0.907583
C45   C     C_3   0.785299 0.985651 0.230529 -0.276767
C46   C     C_R   0.419315 0.419261 0.499942 0.908570
C47   C     C_R   0.524863 0.307182 0.261010 -0.261047
C48   C     C_R   0.500210 0.292853 0.294127 0.048074
C49   C     C_R   0.474672 0.234801 0.283561 0.487364
C50   C     C_R   0.475735 0.191599 0.240621 -0.288703
C51   C     C_R   0.500514 0.206175 0.207685 0.102523
C52   C     C_3   0.726249 0.961292 0.264682 0.493900
C53   C     C_R   0.524907 0.263790 0.217676 -0.175624
C54   C     C_1   0.500671 0.337799 0.338530 0.001781
C55   C     C_1   0.501188 0.161993 0.163724 -0.035674
C56   C     C_3   0.717802 0.945763 0.202716 -0.239650
C57   C     C_1   0.501724 0.124889 0.126761 -0.185809
C58   C     C_1   0.500705 0.375233 0.375704 -0.171870
C59   C     C_R   0.523880 0.715391 0.763763 -0.176009
C60   C     C_R   0.499128 0.706058 0.706412 0.102479
C61   C     C_R   0.474938 0.739973 0.692744 -0.287704
C62   C     C_R   0.474850 0.783246 0.736601 0.487238
C63   C     C_R   0.500762 0.793140 0.794384 0.048644
C64   C     C_1   0.874964 0.000180 0.374820 -0.156843
C65   C     C_R   0.524800 0.759031 0.807794 -0.262286
C66   C     C_1   0.499029 0.661870 0.661667 -0.034928
C67   C     C_1   0.837784 0.000175 0.337379 0.054290
C68   C     C_1   0.502152 0.837821 0.839966 0.000818
C69   C     C_1   0.502816 0.875204 0.877819 -0.173440
C70   C     C_1   0.499186 0.624726 0.624351 -0.184381
C71   C     C_1   0.627736 0.000086 0.127842 -0.191436
C72   C     C_3   0.783985 0.052758 0.297826 0.450517
C73   C     C_3   0.641552 0.891408 0.250686 0.105388
C74   C     C_3   0.617696 0.847333 0.269300 -0.779613
C75   C     C_3   0.390227 0.195470 0.286124 0.087583
C76   C     C_3   0.365490 0.186180 0.325596 -0.798096
C77   C     C_3   0.391064 0.787794 0.698743 0.088109
C78   C     C_1   0.665023 0.000104 0.165199 -0.022167
C79   C     C_3   0.367086 0.828348 0.690553 -0.798080
C80   C     C_R   0.765533 0.728443 0.537137 -0.172929
H1    H     H_    0.215779 0.935190 0.645712 0.142704
H2    H     H_    0.689467 0.027325 0.288556 0.153829
H3    H     H_    0.544143 0.351864 0.268822 0.164174
H4    H     H_    0.457379 0.146991 0.233136 0.157949
H5    H     H_    0.544354 0.766310 0.852256 0.162826
H6    H     H_    0.542685 0.689176 0.774431 0.153468
H7    H     H_    0.456315 0.733013 0.648352 0.158612
H8    H     H_    0.689463 0.901513 0.162753 0.146406
H9    H     H_    0.813800 0.973910 0.214592 0.169855
H10   H     H_    0.797156 0.072925 0.225389 0.153300
H11   H     H_    0.854783 0.788528 0.566255 0.161889
H12   H     H_    0.292899 0.935195 0.722740 0.140829
H13   H     H_    0.778616 0.711886 0.566666 0.153949
H14   H     H_    0.642678 0.710749 0.432286 0.141793
H15   H     H_    0.624214 0.866871 0.202436 0.133770
H16   H     H_    0.625120 0.923105 0.260416 0.140648
H17   H     H_    0.633612 0.870503 0.317234 0.264571
H18   H     H_    0.568695 0.823967 0.244882 0.197721
H19   H     H_    0.632731 0.814537 0.259535 0.260961
H20   H     H_    0.673747 0.774184 0.400071 0.330006
H21   H     H_    0.370355 0.151903 0.246758 0.138242
H22   H     H_    0.377140 0.224598 0.271970 0.135026
H23   H     H_    0.286964 0.064435 0.856279 0.140657
H24   H     H_    0.384025 0.229101 0.364971 0.255397
H25   H     H_    0.316694 0.165773 0.301140 0.200221
H26   H     H_    0.377046 0.156672 0.339986 0.259780
H27   H     H_    0.378320 0.773637 0.727869 0.134893
H28   H     H_    0.370362 0.748514 0.654873 0.138607
H29   H     H_    0.378314 0.842785 0.661080 0.259943
H30   H     H_    0.318343 0.804715 0.670604 0.200211
H31   H     H_    0.386460 0.867665 0.733804 0.255334
H32   H     H_    0.803964 0.133272 0.339386 0.332667
H33   H     H_    0.209868 0.064421 0.779274 0.142881
H34   H     H_    0.212672 0.144258 0.433449 0.142657
H35   H     H_    0.289463 0.220993 0.433405 0.140686
H36   H     H_    0.287455 0.355211 0.566079 0.141105
H37   H     H_    0.210689 0.278499 0.566118 0.144163
H38   H     H_    0.544146 0.275148 0.192200 0.153982
O1    O     O_R   0.938790 0.973410 0.534240 -0.612476
O2    O     O_R   0.534910 0.439040 0.473850 -0.608378
O3    O     O_R   0.526400 0.561020 0.465440 -0.615943
O4    O     O_R   0.939210 0.904610 0.465730 -0.614071
O5    O     O_R   0.595600 0.560960 0.534590 -0.615682
O6    O     O_R   0.465090 0.560970 0.526160 -0.615925
O7    O     O_R   0.534290 0.560900 0.595310 -0.615873
O8    O     O_R   0.404400 0.439050 0.465410 -0.616393
O9    O     O_R   0.473600 0.438980 0.534560 -0.613210
O10   O     O_R   0.938500 0.034400 0.472950 -0.604027
O11   O     O_R   0.938920 0.965600 0.404450 -0.618831
O12   O     O_R   0.536750 0.095480 0.063220 -0.615686
O13   O     O_R   0.060790 0.095390 0.534270 -0.614861
O14   O     O_R   0.061210 0.026590 0.465760 -0.618372
O15   O     O_R   0.061080 0.034400 0.595550 -0.617549
O16   O     O_R   0.061500 0.965600 0.527050 -0.617584
O17   O     O_R   0.467870 0.026690 0.063270 -0.616950
O18   O     O_3   0.703743 0.920685 0.282081 -0.597183
O19   O     O_3   0.717369 0.794079 0.423740 -0.762147
O20   O     O_3   0.452197 0.221248 0.317758 -0.601368
O21   O     O_3   0.452971 0.818387 0.723936 -0.601210
O22   O     O_3   0.820059 0.108297 0.348371 -0.748804
O23   O     O_R   0.529460 0.965690 0.063890 -0.619745
O24   O     O_R   0.598340 0.034490 0.063830 -0.614636
O25   O     O_R   0.468470 0.904710 0.941910 -0.620974
O26   O     O_R   0.537350 0.973500 0.941860 -0.608213
O27   O     O_R   0.406880 0.965710 0.941300 -0.616567
O28   O     O_R   0.475750 0.034500 0.941240 -0.612897
O29   O     O_R   0.465710 0.439110 0.404700 -0.620204
Zn1   Zn    Zn3+2 0.999720 0.045930 0.545740 0.988609
Zn2   Zn    Zn3+2 0.000280 0.954070 0.454260 0.975326
Zn3   Zn    Zn3+2 0.456620 0.954160 0.002600 0.964053
Zn4   Zn    Zn3+2 0.548600 0.046030 0.002530 0.979376
Zn5   Zn    Zn3+2 0.453790 0.500050 0.453830 0.968567
Zn6   Zn    Zn3+2 0.546210 0.499960 0.546180 0.978676

loop_
_geom_bond_atom_site_label_1
_geom_bond_atom_site_label_2
_ccdc_geom_bond_type
C25   C31   A    
C63   C65   A    
C76   H24   S    
C76   H25   S    
C23   C45   S    
C27   C29   A    
C18   C21   S    
C73   C74   S    
H32   O22   S    
C42   C58   S    
C6    C9    S    
C17   H33   S    
C74   H18   S    
C66   C70   T    
C34   C56   S    
C26   C27   A    
C29   C30   A    
C34   C40   S    
C32   C36   T    
O26   Zn4   S    
C25   H35   S    
C16   C35   S    
C54   C58   T    
C30   C31   A    
C56   H8    S    
C37   O12   A    
C18   C19   A    
C1    O1    A    
C16   O13   A    
C1    O4    A    
C61   H7    S    
C63   C68   S    
O8    Zn5   S    
O25   Zn3   S    
C41   O28   A    
C20   C24   T    
C45   C56   S    
C68   C69   T    
C75   H22   S    
C37   O17   A    
C44   C70   S    
C47   H3    S    
C62   O21   S    
C45   H9    S    
C9    C10   T    
C43   O3    A    
C31   H34   S    
O27   Zn3   S    
C79   H30   S    
C47   C53   A    
C27   H36   S    
C12   C72   S    
C60   C66   S    
C59   C60   A    
C22   C28   S    
C21   C22   T    
O14   Zn2   S    
C38   O24   A    
O9    Zn6   S    
C24   C41   S    
C42   O29   A    
C12   C52   S    
O7    Zn6   S    
O23   Zn3   S    
C50   C51   A    
C74   H17   S    
C77   C79   S    
C12   C67   S    
C44   O7    A    
C13   C19   A    
C50   H4    S    
C28   O15   A    
O4    Zn2   S    
C40   H2    S    
C46   O9    A    
C77   H27   S    
C74   H19   S    
C79   H29   S    
C53   H38   S    
O10   Zn1   S    
O1    Zn1   S    
C40   C52   S    
O16   Zn2   S    
C29   H37   S    
C44   O6    A    
C60   C61   A    
C51   C53   A    
O24   Zn4   S    
C48   C54   S    
C75   C76   S    
C64   C67   T    
O11   Zn2   S    
C62   C63   A    
C14   C20   S    
C47   C48   A    
C73   O18   S    
C23   C34   S    
C7    H11   S    
C17   C18   A    
C39   C69   S    
C23   H10   S    
O13   Zn1   S    
O15   Zn1   S    
C11   C43   S    
C6    C7    A    
C48   C49   A    
C39   O25   A    
C55   C57   T    
C13   H12   S    
C52   O18   S    
C38   O23   A    
C28   O16   A    
C73   H15   S    
C43   O5    A    
O5    Zn6   S    
C15   C17   A    
C38   C71   S    
C4    O10   A    
C76   H26   S    
C40   C72   S    
C30   C33   S    
C23   C72   S    
C46   O8    A    
C77   H28   S    
C2    C8    S    
C1    C10   S    
C77   O21   S    
C12   C45   S    
C3    C5    A    
C75   O20   S    
C65   H5    S    
C4    O11   A    
C26   C32   S    
O17   Zn3   S    
C4    C64   S    
O3    Zn5   S    
C79   H31   S    
C2    C3    A    
C25   C26   A    
C59   H6    S    
C5    O19   S    
C19   H1    S    
C59   C65   A    
C36   C46   S    
C42   O2    A    
C5    C6    A    
C8    C11   T    
O2    Zn6   S    
C33   C35   T    
O29   Zn5   S    
C3    H14   S    
C51   C55   S    
O6    Zn5   S    
C61   C62   A    
C16   O14   A    
C37   C57   S    
C2    C80   A    
H20   O19   S    
O28   Zn4   S    
C72   O22   S    
C41   O27   A    
C39   O26   A    
C49   C50   A    
O12   Zn4   S    
C75   H21   S    
C14   C15   A    
C49   O20   S    
C73   H16   S    
C15   H23   S    
C80   H13   S    
C13   C14   A    
C71   C78   T    
C34   C78   S    
C52   C56   S    
C7    C80   A    
