data_mof_unit_54471.cif
_audit_creation_date              2012-12-11T15:19:39-0500
_audit_creation_method            fapswitch 2.2
_symmetry_space_group_name_H-M    P1
_symmetry_Int_Tables_number       1
_space_group_crystal_system       triclinic
_cell_length_a                    19.803006
_cell_length_b                    6.884553
_cell_length_c                    18.31222
_cell_angle_alpha                 90.0
_cell_angle_beta                  104.047223
_cell_angle_gamma                 90.000018
_cell_volume                      2421.93554046

loop_
_atom_site_label
_atom_site_type_symbol
_atom_type_description
_atom_site_fract_x
_atom_site_fract_y
_atom_site_fract_z
_atom_type_partial_charge
O1    O     O_R   0.312200 0.620210 0.189560 -0.538338
O2    O     O_R   0.687800 0.379790 0.810440 -0.536589
O3    O     O_R   0.187800 0.120210 0.310440 -0.538337
O4    O     O_R   0.812200 0.879790 0.689560 -0.536589
O5    O     O_R   0.171590 0.286140 0.165000 -0.535806
O6    O     O_R   0.828410 0.713860 0.835000 -0.532865
O7    O     O_R   0.328410 0.786140 0.335000 -0.535807
O8    O     O_R   0.671590 0.213860 0.665000 -0.532865
C1    C     C_R   0.145835 0.459699 0.143632 0.710221
C2    C     C_R   0.854068 0.540387 0.856488 0.712611
C3    C     C_R   0.354165 0.959699 0.356368 0.710221
C4    C     C_R   0.645932 0.040387 0.643512 0.712611
O9    O     O_R   0.310670 0.290220 0.180540 -0.538861
O10   O     O_R   0.689330 0.709780 0.819460 -0.540410
O11   O     O_R   0.189330 0.790220 0.319460 -0.538861
O12   O     O_R   0.810670 0.209780 0.680540 -0.540410
O13   O     O_R   0.327870 0.124170 0.326080 -0.531077
O14   O     O_R   0.672130 0.875830 0.673920 -0.534610
O15   O     O_R   0.172130 0.624170 0.173920 -0.531078
O16   O     O_R   0.827870 0.375830 0.826080 -0.534611
C5    C     C_R   0.332796 0.459166 0.166233 0.704246
C6    C     C_R   0.667233 0.540807 0.833838 0.702558
C7    C     C_R   0.167204 0.959166 0.333767 0.704245
C8    C     C_R   0.832767 0.040807 0.666161 0.702558
O17   O     O_3   0.255480 0.455050 0.297740 -0.363949
O18   O     O_3   0.744520 0.544950 0.702260 -0.363887
O19   O     O_3   0.244520 0.955050 0.202260 -0.363949
O20   O     O_3   0.755480 0.044950 0.797740 -0.363887
V1    V     V_3+5 0.248980 0.178550 0.241140 1.435472
V2    V     V_3+5 0.751020 0.821450 0.758860 1.434557
V3    V     V_3+5 0.251020 0.678550 0.258860 1.435471
V4    V     V_3+5 0.748980 0.321450 0.741140 1.434557
C9    C     C_R   0.955685 0.005107 0.650965 -0.055799
C10   C     C_R   0.043958 0.975962 0.348974 -0.056927
C11   C     C_R   0.544315 0.505110 0.849035 -0.055799
C12   C     C_R   0.456041 0.475959 0.151026 -0.056927
C13   C     C_R   0.883631 0.031178 0.618875 -0.118989
C14   C     C_R   0.116530 0.969646 0.381186 -0.118865
C15   C     C_R   0.616368 0.531178 0.881125 -0.118989
C16   C     C_R   0.383470 0.469646 0.118814 -0.118864
C17   C     C_R   0.859193 0.043858 0.540708 -0.167762
C18   C     C_R   0.141479 0.974182 0.459394 -0.167336
C19   C     C_R   0.640807 0.543856 0.959292 -0.167762
C20   C     C_R   0.358521 0.474184 0.040606 -0.167336
C21   C     C_R   0.904986 0.028530 0.493426 0.039680
C22   C     C_R   0.095509 0.984744 0.506595 0.039575
C23   C     C_R   0.595014 0.528528 0.006574 0.039680
C24   C     C_R   0.404491 0.484745 0.993405 0.039575
C25   C     C_R   0.977190 0.009490 0.524352 -0.032780
C26   C     C_R   0.023102 0.997062 0.475617 -0.033554
C27   C     C_R   0.522810 0.509490 0.975648 -0.032780
C28   C     C_R   0.476898 0.497062 0.024383 -0.033554
C29   C     C_R   0.003438 0.002071 0.603729 -0.039287
C30   C     C_R   0.996617 0.995733 0.396206 -0.037336
C31   C     C_R   0.496562 0.502072 0.896271 -0.039287
C32   C     C_R   0.503383 0.495731 0.103794 -0.037336
C33   C     C_R   0.879191 0.032197 0.415305 -0.232785
C34   C     C_R   0.121390 0.984861 0.584696 -0.231166
C35   C     C_R   0.620809 0.532194 0.084695 -0.232786
C36   C     C_R   0.378610 0.484863 0.915304 -0.231166
C37   C     C_R   0.923700 0.014704 0.367118 0.610556
C38   C     C_R   0.076614 0.993165 0.632837 0.609294
C39   C     C_R   0.576300 0.514702 0.132882 0.610556
C40   C     C_R   0.423385 0.493167 0.867162 0.609295
H1    H     H_    0.803804 0.061143 0.516590 0.111518
H2    H     H_    0.197174 0.967789 0.483540 0.111536
H3    H     H_    0.696196 0.561140 0.983410 0.111518
H4    H     H_    0.302826 0.467793 0.016460 0.111536
H5    H     H_    0.823797 0.047622 0.391073 0.170473
H6    H     H_    0.177017 0.978360 0.608950 0.170740
H7    H     H_    0.676203 0.547618 0.108927 0.170473
H8    H     H_    0.322983 0.478363 0.891050 0.170740
C41   C     C_1   0.583797 0.027456 0.580864 -0.196644
C42   C     C_1   0.416456 0.973291 0.418801 -0.196401
C43   C     C_1   0.916203 0.527457 0.919136 -0.196644
C44   C     C_1   0.083544 0.473291 0.081199 -0.196400
C45   C     C_1   0.531341 0.011517 0.529544 -0.041279
C46   C     C_1   0.468960 0.990224 0.470001 -0.036877
C47   C     C_1   0.968659 0.511517 0.970456 -0.041279
C48   C     C_1   0.031040 0.490224 0.029999 -0.036878
C49   C     C_R   0.979751 0.970087 0.732929 0.143862
C50   C     C_R   0.985336 0.124215 0.784197 -0.069313
C51   C     C_R   0.012543 0.091093 0.861057 -0.109255
C52   C     C_R   0.033962 0.904825 0.887047 -0.078026
C53   C     C_R   0.028000 0.750716 0.836186 -0.089470
C54   C     C_R   0.000411 0.782582 0.759406 -0.053020
H9    H     H_    0.969944 0.269781 0.764530 0.085438
H10   H     H_    0.018066 0.210095 0.900412 0.118756
H11   H     H_    0.055434 0.880160 0.946542 0.117259
H12   H     H_    0.045051 0.606666 0.856155 0.115258
H13   H     H_    0.996517 0.662468 0.720384 0.098443
C55   C     C_R   0.018412 0.947815 0.266829 0.138921
C56   C     C_R   0.011887 0.106244 0.217411 -0.045540
C57   C     C_R   0.983254 0.079198 0.140421 -0.107119
C58   C     C_R   0.961831 0.894529 0.112444 -0.078782
C59   C     C_R   0.968812 0.736177 0.161482 -0.088882
C60   C     C_R   0.997275 0.762314 0.238456 -0.071069
H14   H     H_    0.027548 0.250362 0.238665 0.082726
H15   H     H_    0.976601 0.201601 0.102518 0.114687
H16   H     H_    0.939390 0.874548 0.052865 0.116727
H17   H     H_    0.951632 0.593440 0.140008 0.116076
H18   H     H_    0.001783 0.639089 0.276125 0.101420
C61   C     C_R   0.520249 0.470093 0.767071 0.143860
C62   C     C_R   0.514661 0.624224 0.715804 -0.069309
C63   C     C_R   0.487453 0.591106 0.638944 -0.109252
C64   C     C_R   0.466036 0.404837 0.612952 -0.078026
C65   C     C_R   0.472001 0.250726 0.663812 -0.089470
C66   C     C_R   0.499590 0.282588 0.740592 -0.053023
H19   H     H_    0.530052 0.769790 0.735472 0.085437
H20   H     H_    0.481928 0.710110 0.599590 0.118755
H21   H     H_    0.444564 0.380174 0.553458 0.117257
H22   H     H_    0.454951 0.106675 0.643843 0.115256
H23   H     H_    0.503486 0.162472 0.779613 0.098441
C67   C     C_R   0.481588 0.447808 0.233171 0.138922
C68   C     C_R   0.488111 0.606234 0.282590 -0.045545
C69   C     C_R   0.516743 0.579184 0.359580 -0.107122
C70   C     C_R   0.538168 0.394516 0.387555 -0.078781
C71   C     C_R   0.531189 0.236166 0.338516 -0.088882
C72   C     C_R   0.502727 0.262307 0.261542 -0.071066
H24   H     H_    0.472448 0.750353 0.261338 0.082726
H25   H     H_    0.523394 0.701584 0.397484 0.114689
H26   H     H_    0.560609 0.374532 0.447134 0.116728
H27   H     H_    0.548370 0.093429 0.359989 0.116077
H28   H     H_    0.498220 0.139085 0.223872 0.101422
F1    F     F_    0.894224 0.020991 0.292100 -0.671448
F2    F     F_    0.106342 0.998652 0.707813 -0.670506
F3    F     F_    0.605776 0.520989 0.207900 -0.671448
F4    F     F_    0.393658 0.498654 0.792187 -0.670506

loop_
_geom_bond_atom_site_label_1
_geom_bond_atom_site_label_2
_ccdc_geom_bond_type
C34   C38   A    
C63   H20   S    
O17   V3    S    
C56   C57   A    
O19   V1    S    
O13   V1    S    
C65   H22   S    
O3    C7    A    
C58   C59   A    
C12   C67   S    
C67   C68   A    
O4    V2    S    
C45   C46   S    
O1    C5    A    
C21   C33   A    
C26   C30   A    
O9    V1    S    
C14   C18   A    
C11   C61   S    
C54   H13   S    
C18   C22   A    
C11   C15   A    
O4    C8    A    
C64   C65   A    
C36   H8    S    
C68   C69   A    
O1    V3    S    
C69   C70   A    
O2    V4    S    
C2    C43   S    
O3    V1    S    
C71   C72   A    
C1    O15   A    
C2    O16   A    
C40   F4    S    
O2    C6    A    
C65   C66   A    
C61   C66   A    
O14   V2    S    
C1    C44   S    
C21   C25   A    
C19   C23   A    
C16   C20   A    
C60   H18   S    
O11   C7    A    
C51   H10   S    
O15   V3    S    
O12   C8    A    
C72   H28   S    
C4    C41   S    
C22   C34   A    
O17   V1    S    
O10   V2    S    
C62   C63   A    
C55   C60   A    
C24   C36   A    
O5    V1    S    
C64   H21   S    
C9    C29   A    
O7    V3    S    
C69   H25   S    
C11   C31   A    
C27   C28   A    
O8    V4    S    
C44   C48   T    
O20   V4    S    
C52   C53   A    
C38   F2    S    
C58   H16   S    
C34   H6    S    
C17   H1    S    
C53   C54   A    
O19   V3    S    
C49   C50   A    
C66   H23   S    
O7    C3    A    
C70   H26   S    
C59   C60   A    
O5    C1    A    
C12   C32   A    
C29   C38   A    
C51   C52   A    
C12   C16   A    
O8    C4    A    
C31   C40   A    
C8    C13   S    
C32   C39   A    
O9    C5    A    
C33   C37   A    
O18   V2    S    
O6    V2    S    
C10   C30   A    
C25   C26   A    
C50   H9    S    
C20   H4    S    
C52   H11   S    
O16   V4    S    
C3    O13   A    
C17   C21   A    
C10   C14   A    
C67   C72   A    
C3    C42   S    
O6    C2    A    
C23   C27   A    
C53   H12   S    
C68   H24   S    
O11   V3    S    
O18   V4    S    
C30   C37   A    
O12   V4    S    
C7    C14   S    
C63   C64   A    
C22   C26   A    
C35   C39   A    
C36   C40   A    
C49   C54   A    
O10   C6    A    
O20   V2    S    
C70   C71   A    
C62   H19   S    
C5    C16   S    
C43   C47   T    
C57   H15   S    
C25   C29   A    
C6    C15   S    
C55   C56   A    
C27   C31   A    
C71   H27   S    
C13   C17   A    
C57   C58   A    
C9    C13   A    
C23   C35   A    
C47   C48   S    
C28   C32   A    
C24   C28   A    
C15   C19   A    
C19   H3    S    
C50   C51   A    
C42   C46   T    
C4    O14   A    
C61   C62   A    
C18   H2    S    
C41   C45   T    
C37   F1    S    
C33   H5    S    
C59   H17   S    
C9    C49   S    
C56   H14   S    
C39   F3    S    
C20   C24   A    
C35   H7    S    
C10   C55   S    
