data_mof_unit_31744.cif
_audit_creation_date              2012-10-26T21:08:07-0400
_audit_creation_method            fapswitch 2.2
_symmetry_space_group_name_H-M    P1
_symmetry_Int_Tables_number       1
_space_group_crystal_system       triclinic
_cell_length_a                    15.870458
_cell_length_b                    10.972678
_cell_length_c                    9.730742
_cell_angle_alpha                 88.602497
_cell_angle_beta                  90.261701
_cell_angle_gamma                 96.41257
_cell_volume                      1683.41960721

loop_
_atom_site_label
_atom_site_type_symbol
_atom_type_description
_atom_site_fract_x
_atom_site_fract_y
_atom_site_fract_z
_atom_type_partial_charge
Br1   Br    Br    0.635991 0.891075 0.775514 -0.558692
Br2   Br    Br    0.812886 0.678445 0.795246 -0.635689
Br3   Br    Br    0.911052 0.320039 0.250935 -0.604389
Br4   Br    Br    0.371320 0.062018 0.026845 -0.641986
C1    C     C_R   0.489943 0.262814 0.501518 0.539015
C2    C     C_R   0.427410 0.020445 0.864162 0.137937
C3    C     C_R   0.473263 0.919253 0.867598 -0.061655
C4    C     C_R   0.340290 0.497572 0.499560 0.541341
C5    C     C_R   0.516640 0.890888 0.751105 0.156882
C6    C     C_R   0.493082 0.937753 0.623721 0.016320
C7    C     C_R   0.466316 0.055840 0.623575 -0.021155
C8    C     C_R   0.477439 0.128143 0.502674 -0.031569
C9    C     C_R   0.488411 0.071064 0.379154 -0.096893
C10   C     C_R   0.500998 0.947774 0.374561 0.120908
C11   C     C_R   0.502568 0.876590 0.498205 0.027574
C12   C     C_3   0.083193 0.485358 0.494991 -0.011559
C13   C     C_R   0.650152 0.601264 0.133725 0.182253
C14   C     C_R   0.726318 0.614438 0.056827 0.159641
C15   C     C_R   0.719751 0.625904 0.914303 0.154766
C16   C     C_R   0.503233 0.739302 0.498716 0.559221
C17   C     C_R   0.640424 0.607917 0.854949 -0.052440
C18   C     C_R   0.571406 0.546260 0.924402 0.055885
C19   C     C_R   0.573558 0.544055 0.071991 0.095881
C20   C     C_R   0.429878 0.461931 0.075819 0.032160
C21   C     C_R   0.428180 0.464777 0.928885 0.252654
C22   C     C_R   0.659606 0.498070 0.500580 0.568426
C23   C     C_3   0.981592 0.600781 0.482003 0.131977
C24   C     C_3   0.971502 0.441389 0.622323 0.166796
C25   C     C_3   0.018284 0.371586 0.516905 0.170770
C26   C     C_1   0.250500 0.491963 0.497662 -0.020110
C27   C     C_1   0.749021 0.493127 0.502507 0.039748
C28   C     C_3   0.035780 0.555767 0.599866 0.162811
C29   C     C_3   0.974394 0.151365 0.554530 -0.272181
C30   C     C_3   0.584435 0.971120 0.164637 -0.308648
C31   C     C_3   0.710426 0.761278 0.300802 -0.255577
C32   C     C_3   0.867625 0.723580 0.108323 -0.275331
C33   C     C_3   0.285573 0.351839 0.902813 -0.305873
C34   C     C_3   0.916003 0.487107 0.504424 0.035320
C35   C     C_3   0.999977 0.353291 0.849688 -0.277905
C36   C     C_3   0.026065 0.816979 0.424681 -0.314867
C37   C     C_3   0.033101 0.691629 0.797251 -0.293606
C38   C     C_3   0.029253 0.531989 0.375232 -0.120506
C39   C     C_3   0.963619 0.416824 0.398626 0.143500
C40   C     C_1   0.174843 0.487507 0.495156 -0.045315
C41   C     C_1   0.824351 0.489781 0.504385 0.038630
C42   C     C_R   0.429508 0.094935 0.744702 -0.063286
Cu1   Cu    Cu3+1 0.499990 0.499990 0.640660 0.989915
Cu2   Cu    Cu3+1 0.500010 0.500010 0.359340 0.977337
H1    H     H_    0.481899 0.869760 0.962366 0.134818
H2    H     H_    0.929306 0.175556 0.633481 0.204777
H3    H     H_    0.463838 0.871938 0.190710 0.284967
H4    H     H_    0.608316 0.913550 0.084791 0.173946
H5    H     H_    0.638898 0.004174 0.231303 0.172100
H6    H     H_    0.559919 0.050418 0.111215 0.190845
H7    H     H_    0.593249 0.737988 0.207120 0.286813
H8    H     H_    0.686132 0.810422 0.388083 0.163780
H9    H     H_    0.740096 0.831316 0.226695 0.138586
H10   H     H_    0.757231 0.702997 0.343446 0.187975
H11   H     H_    0.832606 0.533961 0.117604 0.299235
H12   H     H_    0.372453 0.434208 0.132645 0.136131
H13   H     H_    0.890768 0.753011 0.211080 0.171088
H14   H     H_    0.839548 0.801290 0.057250 0.196133
H15   H     H_    0.922990 0.701998 0.048124 0.156495
H16   H     H_    0.321910 0.535604 0.857463 0.253206
H17   H     H_    0.314243 0.265022 0.901392 0.203016
H18   H     H_    0.258816 0.365400 0.005762 0.132645
H19   H     H_    0.232650 0.345793 0.827342 0.154952
H20   H     H_    0.894777 0.442225 0.795899 0.288300
H21   H     H_    0.966653 0.305555 0.939083 0.194481
H22   H     H_    0.041613 0.433735 0.886913 0.164174
H23   H     H_    0.632669 0.649415 0.756259 0.234645
H24   H     H_    0.039613 0.288724 0.802167 0.180433
H25   H     H_    0.918393 0.749409 0.536792 0.288713
H26   H     H_    0.999360 0.903909 0.398497 0.146420
H27   H     H_    0.060359 0.789735 0.333153 0.157407
H28   H     H_    0.071014 0.833144 0.511702 0.148455
H29   H     H_    0.133690 0.684984 0.663380 0.251672
H30   H     H_    0.075496 0.734929 0.877640 0.140838
H31   H     H_    0.985089 0.625495 0.848882 0.193325
H32   H     H_    0.002038 0.764472 0.742647 0.181336
H33   H     H_    0.053840 0.568668 0.274076 0.127668
H34   H     H_    0.490002 0.124077 0.283957 0.188766
H35   H     H_    0.399115 0.178162 0.744966 0.154727
H36   H     H_    0.086339 0.228537 0.462109 0.263348
H37   H     H_    0.001030 0.066816 0.590456 0.133724
H38   H     H_    0.939905 0.131897 0.456734 0.191313
N1    N     N_R   0.500800 0.501210 0.147910 -0.258548
N2    N     N_2   0.082424 0.629392 0.702883 -0.523110
N3    N     N_R   0.500830 0.501290 0.852040 -0.224295
N4    N     N_2   0.042768 0.248763 0.533967 -0.518630
N5    N     N_2   0.518009 0.900131 0.245087 -0.532761
N6    N     N_2   0.640233 0.687766 0.236842 -0.450510
N7    N     N_2   0.806506 0.615494 0.123790 -0.500141
N8    N     N_2   0.347537 0.453257 0.863592 -0.478907
N9    N     N_2   0.938112 0.391406 0.752709 -0.512178
N10   N     N_2   0.957936 0.723582 0.461827 -0.526543
O1    O     O_R   0.499990 0.319640 0.618810 -0.486316
O2    O     O_R   0.500000 0.319660 0.381240 -0.501329
O3    O     O_R   0.379070 0.499980 0.618770 -0.472046
O4    O     O_R   0.379080 0.500000 0.381190 -0.516383
O5    O     O_R   0.500000 0.680340 0.618760 -0.508740
O6    O     O_R   0.500010 0.680360 0.381190 -0.479263
O7    O     O_R   0.620920 0.500000 0.618810 -0.512356
O8    O     O_R   0.620930 0.500020 0.381230 -0.457634

loop_
_geom_bond_atom_site_label_1
_geom_bond_atom_site_label_2
_ccdc_geom_bond_type
Cu1   O5    S    
C37   H32   S    
C38   H33   S    
Br3   C39   S    
C13   C19   A    
C17   H23   S    
C31   H10   S    
C24   C25   S    
C15   C17   A    
C4    O3    A    
C6    C11   A    
C16   O6    A    
C23   C34   S    
Cu2   O8    S    
Cu1   O3    S    
C14   C15   A    
C29   H37   S    
C30   N5    S    
C34   C41   S    
C22   O8    A    
C32   N7    S    
C35   H22   S    
H29   N2    S    
C33   H17   S    
C35   H24   S    
C32   H15   S    
C5    C6    A    
C12   C40   S    
H3    N5    S    
C31   N6    S    
C31   H8    S    
C22   C27   S    
C19   N1    A    
C9    C10   A    
C25   C39   S    
Cu1   N3    S    
C26   C40   T    
C23   N10   S    
C13   N6    S    
H36   N4    S    
C36   N10   S    
C32   H14   S    
C25   N4    S    
C11   C16   S    
Cu2   O4    S    
H20   N9    S    
Cu1   O7    S    
C24   C28   S    
Br1   C5    S    
C20   C21   A    
C3    H1    S    
C1    C8    S    
Br4   C2    S    
C37   H30   S    
C16   O5    A    
C29   H2    S    
Br2   C15   S    
C9    H34   S    
C36   H28   S    
C29   H38   S    
H7    N6    S    
C22   O7    A    
Cu1   Cu2   S    
C24   C34   S    
C20   H12   S    
Cu2   O6    S    
C33   H18   S    
C13   C14   A    
C35   H21   S    
Cu2   N1    S    
C1    O2    A    
C35   N9    S    
C1    O1    A    
C30   H6    S    
C24   N9    S    
C38   C39   S    
C32   H13   S    
C12   C38   S    
C3    C5    A    
C37   N2    S    
C2    C42   A    
C23   C28   S    
C10   C11   A    
C30   H4    S    
C37   H31   S    
C7    C8    A    
C2    C3    A    
C12   C28   S    
Cu2   O2    S    
C21   N3    A    
Cu1   O1    S    
C36   H27   S    
C31   H9    S    
C4    C26   S    
C4    O4    A    
H16   N8    S    
C34   C39   S    
C29   N4    S    
C23   C38   S    
C33   H19   S    
C18   N3    A    
C36   H26   S    
C33   N8    S    
C20   N1    A    
C10   N5    S    
C6    C7    A    
C42   H35   S    
C21   N8    S    
C8    C9    A    
C12   C25   S    
C30   H5    S    
C27   C41   T    
C14   N7    S    
C18   C19   A    
C7    C42   A    
H11   N7    S    
H25   N10   S    
C17   C18   A    
C28   N2    S    
