data_mof_unit_29855.cif
_audit_creation_date              2012-12-11T14:32:52-0500
_audit_creation_method            fapswitch 2.2
_symmetry_space_group_name_H-M    P1
_symmetry_Int_Tables_number       1
_space_group_crystal_system       triclinic
_cell_length_a                    6.973553
_cell_length_b                    13.763281
_cell_length_c                    17.936976
_cell_angle_alpha                 113.159442
_cell_angle_beta                  96.060477
_cell_angle_gamma                 90.219932
_cell_volume                      1572.0528386

loop_
_atom_site_label
_atom_site_type_symbol
_atom_type_description
_atom_site_fract_x
_atom_site_fract_y
_atom_site_fract_z
_atom_type_partial_charge
O1    O     O_R   0.484560 0.544530 0.414330 -0.539351
O2    O     O_R   0.197040 0.638810 0.585080 -0.539027
O3    O     O_R   0.026800 0.455470 0.585670 -0.521995
C1    C     C_R   0.374603 0.676256 0.614525 0.686066
O4    O     O_R   0.155000 0.556150 0.414940 -0.545687
O5    O     O_R   0.984450 0.372220 0.414320 -0.535848
C2    C     C_R   0.317355 0.564976 0.386518 0.743673
O6    O     O_R   0.526900 0.627780 0.585680 -0.539958
O7    O     O_3   0.339170 0.439750 0.499990 -0.336789
V1    V     V_3+5 0.064350 0.511180 0.500000 1.406900
O8    O     O_R   0.654880 0.361190 0.414920 -0.550153
C3    C     C_R   0.816322 0.324636 0.386068 0.748297
O9    O     O_R   0.696930 0.443850 0.585060 -0.513353
C4    C     C_R   0.873390 0.434015 0.612834 0.698483
V2    V     V_3+5 0.564340 0.488820 0.500000 1.415968
O10   O     O_3   0.839390 0.560250 0.500010 -0.381693
C5    C     C_R   0.037058 0.866515 0.825671 -0.048161
C6    C     C_R   0.903847 0.400398 0.682283 -0.039831
C7    C     C_R   0.901705 0.827489 0.686542 -0.136199
C8    C     C_R   0.972016 0.793427 0.747182 -0.137413
C9    C     C_R   0.031759 0.975778 0.842920 -0.218226
C10   C     C_R   0.960953 0.012912 0.781544 0.095627
C11   C     C_R   0.892995 0.935670 0.703093 0.117898
C12   C     C_R   0.956067 0.123056 0.794501 0.080572
C13   C     C_R   0.884910 0.152878 0.728570 0.072931
C14   C     C_R   0.808120 0.072226 0.653884 -0.203991
C15   C     C_R   0.813862 0.966253 0.641440 -0.222459
C16   C     C_R   0.026152 0.204169 0.870050 -0.184532
C17   C     C_R   0.038677 0.309345 0.879665 -0.213923
C18   C     C_R   0.986007 0.338235 0.814223 0.126114
C19   C     C_R   0.904596 0.261463 0.737874 0.089156
C20   C     C_R   0.022637 0.443107 0.823965 -0.127844
C21   C     C_R   0.983905 0.473537 0.758623 -0.165172
C22   C     C_R   0.863516 0.295233 0.672203 -0.223397
H1    H     H_    0.757105 0.907204 0.582210 0.120695
H2    H     H_    0.812757 0.240487 0.611432 0.089770
H3    H     H_    0.018058 0.554473 0.767638 0.094430
H4    H     H_    0.098724 0.368369 0.938359 0.118597
H5    H     H_    0.850148 0.768704 0.626553 0.134497
H6    H     H_    0.969995 0.709421 0.733359 0.089512
H7    H     H_    0.078494 0.029136 0.904881 0.094453
H8    H     H_    0.746367 0.088182 0.602652 0.117431
H9    H     H_    0.077226 0.188642 0.922872 0.123543
H10   H     H_    0.086735 0.501362 0.882097 0.144693
H11   H     H_    0.113041 0.224839 0.310238 0.149795
H12   H     H_    0.836090 0.033070 0.193013 0.156369
C23   C     C_2   0.136803 0.038181 0.184784 -0.355806
C24   C     C_2   0.973765 0.077420 0.217200 -0.131545
H13   H     H_    0.674503 0.175812 0.293072 0.125176
C25   C     C_2   0.811931 0.220232 0.317804 -0.353194
C26   C     C_2   0.975281 0.180622 0.285879 -0.130089
H14   H     H_    0.274173 0.082701 0.209431 0.123419
C27   C     C_R   0.409504 0.780118 0.686264 -0.071660
C28   C     C_R   0.534937 0.464927 0.827676 -0.122575
C29   C     C_R   0.540008 0.880003 0.828061 -0.113175
C30   C     C_R   0.490816 0.783150 0.762031 -0.144767
C31   C     C_R   0.378880 0.876695 0.678206 -0.200442
C32   C     C_R   0.426929 0.976501 0.745357 0.101310
C33   C     C_R   0.511026 0.976599 0.820299 0.104433
C34   C     C_R   0.398971 0.076000 0.739465 0.077393
C35   C     C_R   0.472653 0.174453 0.804342 0.093286
C36   C     C_R   0.553110 0.170007 0.878150 -0.189459
C37   C     C_R   0.568629 0.072925 0.886240 -0.218868
C38   C     C_R   0.286981 0.080283 0.672141 -0.202683
C39   C     C_R   0.266048 0.174373 0.663926 -0.215845
C40   C     C_R   0.383024 0.264105 0.712809 0.003563
C41   C     C_R   0.465768 0.271815 0.790622 0.057756
C42   C     C_R   0.415258 0.346156 0.685499 0.444159
C43   C     C_R   0.479559 0.447320 0.745086 -0.189701
C44   C     C_R   0.535283 0.375156 0.849011 -0.220561
H15   H     H_    0.633201 0.072910 0.943897 0.120652
H16   H     H_    0.585264 0.387850 0.911330 0.107267
H17   H     H_    0.488560 0.512856 0.726393 0.110615
H18   H     H_    0.158393 0.175004 0.616719 0.129091
H19   H     H_    0.603841 0.879665 0.885403 0.152686
H20   H     H_    0.519155 0.710274 0.769902 0.090477
H21   H     H_    0.326700 0.871396 0.617885 0.091225
H22   H     H_    0.607649 0.240567 0.929997 0.125977
H23   H     H_    0.202710 0.013074 0.627185 0.135115
H24   H     H_    0.335147 0.667247 0.194130 0.154876
H25   H     H_    0.613967 0.590782 0.308428 0.153717
C45   C     C_2   0.314038 0.602168 0.318677 -0.348610
C46   C     C_2   0.476033 0.610883 0.285372 -0.129690
H26   H     H_    0.772775 0.636143 0.207345 0.126120
C47   C     C_2   0.635074 0.655966 0.183882 -0.351521
C48   C     C_2   0.473112 0.647170 0.217180 -0.129402
H27   H     H_    0.176387 0.622016 0.295190 0.125904
O11   O     O_R   0.421600 0.630430 0.917010 -0.537275
O12   O     O_R   0.793840 0.702190 0.087630 -0.542350
O13   O     O_R   0.964010 0.886170 0.088190 -0.535522
C49   C     C_R   0.631580 0.693249 0.116084 0.755717
O14   O     O_R   0.751460 0.619510 0.917500 -0.534095
O15   O     O_R   0.921330 0.802900 0.916840 -0.544835
C50   C     C_R   0.573524 0.577767 0.891700 0.699978
O16   O     O_R   0.464290 0.713700 0.088350 -0.536312
O17   O     O_3   0.609200 0.818520 0.002630 -0.377888
V3    V     V_3+5 0.884140 0.747190 0.002530 1.365868
O18   O     O_R   0.251150 0.814630 0.917340 -0.539153
C51   C     C_R   0.074128 0.827591 0.891682 0.688265
O19   O     O_R   0.293530 0.897310 0.087470 -0.541954
C52   C     C_R   0.132109 0.934061 0.116130 0.764039
V4    V     V_3+5 0.384070 0.769710 0.002370 1.367636
O20   O     O_3   0.109180 0.698190 0.002460 -0.374978
O21   O     O_3   0.391999 0.332666 0.602601 -0.529153
C53   C     C_3   0.406295 0.226303 0.544733 0.092569
H28   H     H_    0.259348 0.190413 0.518142 0.111912
H29   H     H_    0.493168 0.176967 0.570249 0.103578
C54   C     C_3   0.502817 0.217969 0.471413 -0.650329
H30   H     H_    0.652285 0.252000 0.491101 0.202622
H31   H     H_    0.512007 0.133122 0.431275 0.133741
H32   H     H_    0.413843 0.253804 0.435061 0.232826

loop_
_geom_bond_atom_site_label_1
_geom_bond_atom_site_label_2
_ccdc_geom_bond_type
C13   C19   A    
C40   C42   A    
C29   C30   A    
C30   H20   S    
O17   V4    S    
C1    C27   S    
C4    C6    S    
O2    C1    A    
C7    C8    A    
C1    O6    A    
C47   C49   S    
C47   C48   D    
C53   H29   S    
C14   C15   A    
C17   C18   A    
C23   C52   S    
C16   C17   A    
C29   C33   A    
O5    C3    A    
C18   C19   A    
C8    H6    S    
H11   C26   S    
C32   C34   A    
V2    O10   S    
O18   C51   A    
C5    C8    A    
C54   H30   S    
H24   C48   S    
O8    V2    S    
C24   C26   S    
C42   C43   A    
C17   H4    S    
C43   H17   S    
O1    V2    S    
C11   C15   A    
O12   C49   A    
O7    V1    S    
O15   C51   A    
O13   V3    S    
O16   V4    S    
C29   H19   S    
C40   C41   A    
O9    C4    A    
V4    O20   S    
O19   V4    S    
O21   C53   S    
H25   C46   S    
O14   V3    S    
H12   C24   S    
C53   C54   S    
O11   C50   A    
C31   H21   S    
C12   C13   A    
O4    C2    A    
C27   C31   A    
C15   H1    S    
C32   C33   A    
O18   V4    S    
C21   H3    S    
C39   H18   S    
O12   V3    S    
C34   C35   A    
C7    C11   A    
O13   C52   A    
C36   C37   A    
C6    C22   A    
C35   C41   A    
C3    C25   S    
C23   C24   D    
C28   C44   A    
O17   V3    S    
C46   C48   S    
O14   C50   A    
C25   C26   D    
C20   H10   S    
C19   C22   A    
H26   C47   S    
C5    C51   S    
V3    O20   S    
O3    C4    A    
C7    H5    S    
C9    H7    S    
C37   H15   S    
C45   C46   D    
O6    V2    S    
O9    V2    S    
C38   H23   S    
C10   C12   A    
O2    V1    S    
O15   V3    S    
C14   H8    S    
C27   C30   A    
O1    C2    A    
C36   H22   S    
C12   C16   A    
O5    V1    S    
O11   V4    S    
O8    C3    A    
C23   H14   S    
C53   H28   S    
C16   H9    S    
C33   C37   A    
C54   H32   S    
C34   C38   A    
C41   C44   A    
C20   C21   A    
C42   O21   S    
C13   C14   A    
O4    V1    S    
O3    V1    S    
V1    O10   S    
C38   C39   A    
C18   C20   A    
C31   C32   A    
C28   C43   A    
O19   C52   A    
C54   H31   S    
C22   H2    S    
C39   C40   A    
O7    V2    S    
C35   C36   A    
C6    C21   A    
C5    C9    A    
C28   C50   S    
C49   O16   A    
C2    C45   S    
H13   C25   S    
C10   C11   A    
C44   H16   S    
C9    C10   A    
C45   H27   S    
