data_mof_unit_5400.cif
_audit_creation_date              2012-12-11T17:06:36-0500
_audit_creation_method            fapswitch 2.2
_symmetry_space_group_name_H-M    P1
_symmetry_Int_Tables_number       1
_space_group_crystal_system       triclinic
_cell_length_a                    6.958735
_cell_length_b                    14.546033
_cell_length_c                    15.946085
_cell_angle_alpha                 90.478359
_cell_angle_beta                  90.136909
_cell_angle_gamma                 90.063967
_cell_volume                      1614.03253478

loop_
_atom_site_label
_atom_site_type_symbol
_atom_type_description
_atom_site_fract_x
_atom_site_fract_y
_atom_site_fract_z
_atom_type_partial_charge
O1    O     O_R   0.494400 0.415450 0.412630 -0.534115
O2    O     O_R   0.823940 0.405730 0.586760 -0.546609
O3    O     O_R   0.994240 0.584550 0.587370 -0.539676
C1    C     C_R   0.655234 0.383596 0.615315 0.685599
O4    O     O_R   0.824110 0.404430 0.413240 -0.530775
O5    O     O_R   0.994420 0.583240 0.412620 -0.535998
C2    C     C_R   0.655105 0.382477 0.383982 0.720896
O6    O     O_R   0.494230 0.416760 0.587380 -0.539408
O7    O     O_3   0.660800 0.558670 0.500000 -0.371860
V1    V     V_3+5 0.935650 0.489120 0.500000 1.416378
O8    O     O_R   0.324140 0.594270 0.413240 -0.534787
C3    C     C_R   0.154842 0.616911 0.384913 0.743835
O9    O     O_R   0.323960 0.595570 0.586760 -0.544581
C4    C     C_R   0.155345 0.617699 0.615618 0.666397
V2    V     V_3+5 0.435660 0.510880 0.500000 1.417748
O10   O     O_3   0.160640 0.441330 0.500000 -0.368686
C5    C     C_3   0.056386 0.667917 0.772377 -0.138132
C6    C     C_3   0.229457 0.716752 0.814991 -0.136729
H1    H     H_    0.308808 0.691302 0.870615 0.107776
H2    H     H_    0.993325 0.601365 0.792006 0.103633
C7    C     C_3   0.120908 0.808741 0.810183 -0.006322
C8    C     C_3   0.947657 0.760698 0.768355 -0.114388
C9    C     C_3   0.036571 0.779325 0.681116 -0.143742
C10   C     C_3   0.209646 0.828154 0.723725 -0.145446
C11   C     C_3   0.318371 0.735375 0.727749 -0.115935
C12   C     C_3   0.145116 0.687341 0.685920 -0.004342
H3    H     H_    0.794692 0.771343 0.785445 0.106954
H4    H     H_    0.957218 0.804767 0.625490 0.097827
H5    H     H_    0.272752 0.894691 0.704086 0.095789
H6    H     H_    0.471330 0.724720 0.710657 0.106403
C13   C     C_R   0.274006 0.815116 0.239308 0.097180
C14   C     C_R   0.118660 0.815436 0.183209 -0.111144
C15   C     C_R   0.966081 0.754494 0.199516 -0.171995
H7    H     H_    0.843163 0.752113 0.158080 0.136977
C16   C     C_R   0.976690 0.691364 0.265939 -0.141574
H8    H     H_    0.861091 0.642491 0.273734 0.145117
C17   C     C_R   0.140787 0.686766 0.317804 -0.100321
C18   C     C_R   0.285143 0.752187 0.304699 0.085073
C19   C     C_3   0.495065 0.738248 0.291984 -0.403487
C20   C     C_3   0.483135 0.807162 0.221126 -0.395229
H9    H     H_    0.528244 0.667268 0.270147 0.186163
H10   H     H_    0.581336 0.763235 0.346338 0.166384
H11   H     H_    0.510285 0.776392 0.158219 0.176566
H12   H     H_    0.561795 0.872200 0.234641 0.162268
C21   C     C_R   0.493809 0.315983 0.741585 0.104012
C22   C     C_R   0.647731 0.317273 0.685145 -0.110816
C23   C     C_R   0.798952 0.254889 0.698998 -0.182471
H13   H     H_    0.921057 0.253440 0.657297 0.131276
C24   C     C_R   0.787656 0.189167 0.763126 -0.179476
H14   H     H_    0.902120 0.139439 0.769245 0.125915
C25   C     C_R   0.624438 0.183664 0.815018 -0.111714
C26   C     C_R   0.482234 0.250701 0.804825 0.110620
C27   C     C_3   0.271167 0.239194 0.792760 -0.408240
C28   C     C_3   0.283685 0.310772 0.724155 -0.401559
H15   H     H_    0.187980 0.262816 0.848308 0.181908
H16   H     H_    0.233902 0.169438 0.768821 0.162389
H17   H     H_    0.208554 0.375973 0.740203 0.169237
H18   H     H_    0.252817 0.282780 0.660455 0.168101
C29   C     C_R   0.496009 0.316906 0.254178 0.117889
C30   C     C_R   0.646994 0.316326 0.312743 -0.128876
C31   C     C_R   0.797246 0.253114 0.298713 -0.143994
H19   H     H_    0.918231 0.250742 0.341268 0.126433
C32   C     C_R   0.787130 0.188227 0.232713 -0.173289
H20   H     H_    0.901112 0.138207 0.226187 0.121690
C33   C     C_R   0.625322 0.183896 0.179459 -0.109324
C34   C     C_R   0.484551 0.251305 0.190256 0.082331
C35   C     C_3   0.272973 0.241045 0.199263 -0.427859
C36   C     C_3   0.283811 0.314718 0.267370 -0.001023
H21   H     H_    0.233313 0.172268 0.223661 0.142203
H22   H     H_    0.194472 0.262064 0.141786 0.205968
O11   O     O_R   0.771650 0.079500 0.908680 -0.538896
O12   O     O_R   0.441690 0.091800 0.082800 -0.539229
O13   O     O_R   0.271460 0.912980 0.083410 -0.537354
C37   C     C_R   0.610967 0.113476 0.112177 0.703322
O14   O     O_R   0.441930 0.090510 0.909280 -0.540140
O15   O     O_R   0.271690 0.911670 0.908660 -0.538044
C38   C     C_R   0.610910 0.112576 0.880655 0.699689
O16   O     O_R   0.771410 0.080810 0.083440 -0.538865
O17   O     O_3   0.605100 0.937580 0.996050 -0.371184
V3    V     V_3+5 0.330220 0.007110 0.996030 1.401746
O18   O     O_R   0.941980 0.900620 0.909250 -0.543005
C39   C     C_R   0.110622 0.878445 0.880445 0.675997
O19   O     O_R   0.941740 0.901920 0.082770 -0.544927
C40   C     C_R   0.110613 0.880160 0.111806 0.692116
V4    V     V_3+5 0.830220 0.985300 0.996000 1.396543
O20   O     O_3   0.105210 0.054870 0.996020 -0.367251
H23   H     H_    0.244519 0.289867 0.330760 0.111751
I1    I     I_    0.152016 0.440384 0.229100 -0.443287

loop_
_geom_bond_atom_site_label_1
_geom_bond_atom_site_label_2
_ccdc_geom_bond_type
C32   C33   A    
C6    C7    S    
C16   H8    S    
O11   C38   A    
C1    O6    A    
O18   C39   A    
C23   C24   A    
C1    C22   S    
V4    O20   S    
C5    C12   S    
C16   C17   A    
C29   C34   A    
O5    C3    A    
C18   C19   S    
V2    O10   S    
C5    H2    S    
C13   C20   S    
C6    H1    S    
C9    C12   S    
C3    C17   S    
C31   C32   A    
C10   H5    S    
V3    O20   S    
O11   V4    S    
O8    V2    S    
C20   H11   S    
O19   C40   A    
C24   C25   A    
C9    C10   S    
O1    V2    S    
O14   V3    S    
O13   C40   A    
C34   C35   S    
C29   C30   A    
O9    C4    A    
C6    C11   S    
O7    V1    S    
C15   H7    S    
C19   H10   S    
C27   H15   S    
C14   C40   S    
C35   C36   S    
C23   H13   S    
C10   C11   S    
O12   C37   A    
O15   C39   A    
C19   C20   S    
O4    C2    A    
C21   C26   A    
C11   C12   S    
C21   C22   A    
C33   C37   S    
C25   C26   A    
C30   C31   A    
C35   H21   S    
O2    C1    A    
C25   C38   S    
C17   C18   A    
C29   C36   S    
C13   C14   A    
C5    C6    S    
C9    H4    S    
C4    C12   S    
O14   C38   A    
O3    C4    A    
O16   V4    S    
O19   V4    S    
C21   C28   S    
C24   H14   S    
O6    V2    S    
C8    H3    S    
O9    V2    S    
C36   I1    S    
O17   V3    S    
O2    V1    S    
C2    C30   S    
O17   V4    S    
C26   C27   S    
C28   H18   S    
C27   H16   S    
C11   H6    S    
C22   C23   A    
O1    C2    A    
O15   V3    S    
O5    V1    S    
O8    C3    A    
C27   C28   S    
C5    C8    S    
C13   C18   A    
C35   H22   S    
C14   C15   A    
O7    V2    S    
O4    V1    S    
O12   V3    S    
O3    V1    S    
V1    O10   S    
C15   C16   A    
O13   V3    S    
C31   H19   S    
C32   H20   S    
C20   H12   S    
C7    C39   S    
C19   H9    S    
C33   C34   A    
C37   O16   A    
C7    C10   S    
C36   H23   S    
C8    C9    S    
C7    C8    S    
O18   V4    S    
C28   H17   S    
