data_mof_unit_46233.cif
_audit_creation_date              2012-10-26T18:48:18-0400
_audit_creation_method            fapswitch 2.2
_symmetry_space_group_name_H-M    P1
_symmetry_Int_Tables_number       1
_space_group_crystal_system       triclinic
_cell_length_a                    10.635804
_cell_length_b                    8.668625
_cell_length_c                    7.466433
_cell_angle_alpha                 102.96508
_cell_angle_beta                  94.17403
_cell_angle_gamma                 92.574274
_cell_volume                      667.73055839

loop_
_atom_site_label
_atom_site_type_symbol
_atom_type_description
_atom_site_fract_x
_atom_site_fract_y
_atom_site_fract_z
_atom_type_partial_charge
C1    C     C_R   0.496421 0.199800 0.453258 0.547665
C2    C     C_3   0.123865 0.499601 0.505000 -0.007158
C3    C     C_3   0.969895 0.632307 0.614153 0.265187
C4    C     C_3   0.029735 0.370785 0.385443 0.251881
C5    C     C_2   0.494951 0.031776 0.427059 -0.155188
C6    C     C_2   0.506564 0.968281 0.572913 -0.163367
C7    C     C_3   0.123068 0.363455 0.879296 -0.051176
C8    C     C_3   0.876627 0.641023 0.121520 -0.056002
C9    C     C_3   0.888574 0.879022 0.657148 -0.140476
C10   C     C_3   0.968788 0.125745 0.197464 -0.123426
C11   C     C_R   0.504163 0.800219 0.546725 0.536095
C12   C     C_R   0.259801 0.497643 0.501924 0.583840
C13   C     C_R   0.740119 0.502615 0.498100 0.553008
C14   C     C_3   0.046122 0.502218 0.670191 0.278852
C15   C     C_3   0.954188 0.501317 0.329384 0.245999
C16   C     C_3   0.951710 0.370930 0.552678 -0.195531
C17   C     C_3   0.049243 0.632160 0.448103 -0.190376
C18   C     C_3   0.876001 0.502950 0.495249 -0.032833
Cu1   Cu    Cu3+1 0.514140 0.517380 0.684380 0.975878
Cu2   Cu    Cu3+1 0.485860 0.482620 0.315620 0.980205
H1    H     H_    0.909500 0.265826 0.593526 0.090986
H2    H     H_    0.965656 0.712432 0.119260 0.169833
H3    H     H_    0.817992 0.705004 0.228265 0.064467
H4    H     H_    0.822740 0.627396 0.985792 0.198423
H5    H     H_    0.805628 0.828999 0.558654 0.108416
H6    H     H_    0.962499 0.930895 0.586383 0.110377
H7    H     H_    0.855899 0.977093 0.762705 0.127900
H8    H     H_    0.888816 0.178592 0.133221 0.159013
H9    H     H_    0.936748 0.071540 0.309127 0.089457
H10   H     H_    0.000629 0.029002 0.089450 0.163454
H11   H     H_    0.092425 0.737238 0.408343 0.111688
H12   H     H_    0.404542 0.373611 0.948028 0.231307
H13   H     H_    0.595483 0.626363 0.051963 0.228291
H14   H     H_    0.484031 0.960005 0.286610 0.138846
H15   H     H_    0.517627 0.040047 0.713362 0.135035
H16   H     H_    0.180039 0.297364 0.771413 0.091503
H17   H     H_    0.033615 0.293777 0.884079 0.155130
H18   H     H_    0.177979 0.377346 0.014278 0.199467
N1    N     N_2   0.464560 0.456420 0.038510 -0.249700
N2    N     N_2   0.535440 0.543580 0.961490 -0.250741
O1    O     O_R   0.509190 0.286130 0.619780 -0.514523
O2    O     O_3   0.902352 0.489102 0.146992 -0.542649
O3    O     O_3   0.937928 0.765262 0.746498 -0.564065
O4    O     O_3   0.071379 0.237405 0.263743 -0.568129
O5    O     O_R   0.490810 0.713870 0.380220 -0.513358
O6    O     O_R   0.485310 0.256770 0.308360 -0.496279
O7    O     O_R   0.514690 0.743230 0.691640 -0.499498
O8    O     O_R   0.328790 0.514640 0.655680 -0.484032
O9    O     O_R   0.671210 0.485360 0.344320 -0.491802
O10   O     O_R   0.304910 0.485280 0.344260 -0.486369
O11   O     O_R   0.695090 0.514720 0.655740 -0.495582
O12   O     O_3   0.098326 0.515340 0.852580 -0.519939

loop_
_geom_bond_atom_site_label_1
_geom_bond_atom_site_label_2
_ccdc_geom_bond_type
C4    C16   S    
C15   C18   S    
C2    C4    S    
C16   H1    S    
C14   C16   S    
C9    H6    S    
C7    H16   S    
C10   H10   S    
C8    H2    S    
Cu1   Cu2   S    
C12   O8    A    
C2    C12   S    
C5    H14   S    
C4    C15   S    
Cu1   O1    S    
C7    H17   S    
C9    H5    S    
C2    C17   S    
C10   H9    S    
C3    O3    S    
Cu2   O9    S    
C3    C14   S    
C13   C18   S    
C13   O9    A    
C1    O1    A    
C8    H4    S    
C7    H18   S    
C8    O2    S    
C7    O12   S    
C3    C17   S    
Cu1   O7    S    
C5    C6    D    
C2    C14   S    
C1    C5    S    
C1    O6    A    
C9    O3    S    
H13   N2    S    
C11   O5    A    
Cu1   N2    S    
C10   O4    S    
Cu1   O11   S    
C6    C11   S    
C8    H3    S    
C6    H15   S    
C9    H7    S    
C3    C18   S    
C16   C18   S    
H12   N1    S    
C10   H8    S    
N1    N2    D    
C15   C17   S    
Cu2   N1    S    
Cu1   O8    S    
Cu2   O10   S    
C4    O4    S    
C13   O11   A    
C11   O7    A    
C14   O12   S    
C17   H11   S    
Cu2   O5    S    
C15   O2    S    
C12   O10   A    
Cu2   O6    S    
