data_mof_unit_29941.cif
_audit_creation_date              2012-12-11T16:50:52-0500
_audit_creation_method            fapswitch 2.2
_symmetry_space_group_name_H-M    P1
_symmetry_Int_Tables_number       1
_space_group_crystal_system       triclinic
_cell_length_a                    6.932751
_cell_length_b                    28.77416
_cell_length_c                    32.140543
_cell_angle_alpha                 100.798098
_cell_angle_beta                  89.791006
_cell_angle_gamma                 90.384623
_cell_volume                      6297.84042478

loop_
_atom_site_label
_atom_site_type_symbol
_atom_type_description
_atom_site_fract_x
_atom_site_fract_y
_atom_site_fract_z
_atom_type_partial_charge
O1    O     O_R   0.494350 0.453170 0.452520 -0.539967
O2    O     O_R   0.820980 0.455850 0.538220 -0.544518
O3    O     O_R   0.994300 0.546830 0.547480 -0.540205
C1    C     C_R   0.651681 0.445920 0.551781 0.725661
O4    O     O_R   0.823860 0.447590 0.452270 -0.542005
O5    O     O_R   0.997200 0.538510 0.460920 -0.537869
C2    C     C_R   0.654791 0.434716 0.436565 0.694923
O6    O     O_R   0.491440 0.461490 0.539080 -0.535415
O7    O     O_3   0.661790 0.529840 0.502940 -0.367184
V1    V     V_3+5 0.935470 0.494460 0.499450 1.401981
O8    O     O_R   0.327090 0.544150 0.461780 -0.538584
C3    C     C_R   0.158675 0.554411 0.448406 0.731532
O9    O     O_R   0.324210 0.552410 0.547730 -0.543533
C4    C     C_R   0.155377 0.565033 0.563585 0.713345
V2    V     V_3+5 0.435840 0.505540 0.500550 1.409901
O10   O     O_3   0.159650 0.470160 0.497060 -0.368153
C5    C     C_R   0.225809 0.881593 0.880183 -0.152599
H1    H     H_    0.358225 0.898436 0.893151 0.121378
C6    C     C_R   0.237251 0.845589 0.844360 -0.138329
H2    H     H_    0.377664 0.836174 0.830595 0.101324
C7    C     C_R   0.069672 0.822756 0.826026 0.097218
C8    C     C_R   0.890085 0.836960 0.844577 -0.135843
H3    H     H_    0.758245 0.819763 0.831666 0.100869
C9    C     C_R   0.878538 0.873046 0.880452 -0.155553
H4    H     H_    0.737905 0.882956 0.893865 0.119486
C10   C     C_R   0.046347 0.895887 0.898747 -0.054507
C11   C     C_R   0.944821 0.780929 0.755107 -0.148782
H5    H     H_    0.827886 0.806028 0.757285 0.112206
C12   C     C_R   0.958933 0.745550 0.718834 -0.162719
H6    H     H_    0.852850 0.744196 0.694075 0.130134
C13   C     C_R   0.110736 0.712856 0.714073 0.092638
C14   C     C_R   0.247589 0.716135 0.746669 -0.100099
H7    H     H_    0.364075 0.690893 0.744352 0.143552
C15   C     C_R   0.234061 0.751595 0.782915 -0.174245
H8    H     H_    0.340912 0.752756 0.807576 0.115476
C16   C     C_R   0.082629 0.784557 0.787616 0.082684
C17   C     C_R   0.300736 0.665934 0.652849 0.434030
C18   C     C_R   0.310641 0.629322 0.617229 -0.227318
H9    H     H_    0.447869 0.622079 0.601190 0.133822
C19   C     C_R   0.145282 0.603139 0.601898 -0.108856
C20   C     C_R   0.969915 0.613512 0.623713 -0.166637
H10   H     H_    0.839805 0.593865 0.613082 0.138825
C21   C     C_R   0.960363 0.648872 0.660014 -0.215082
H11   H     H_    0.824003 0.655217 0.676558 0.176879
C22   C     C_R   0.124901 0.675364 0.675249 -0.015146
C23   C     C_R   0.028441 0.660530 0.288092 0.639933
N1    N     N_R   0.119187 0.676787 0.325903 -0.544299
C24   C     C_R   0.200063 0.721143 0.334480 0.658363
C25   C     C_R   0.189692 0.751220 0.304614 -0.033979
C26   C     C_R   0.095273 0.735176 0.265740 -0.018016
C27   C     C_R   0.014642 0.689421 0.257317 -0.086955
C28   C     C_R   0.271645 0.796786 0.312667 -0.127809
C29   C     C_R   0.260572 0.825953 0.282579 -0.137212
C30   C     C_R   0.167531 0.810300 0.243612 -0.010614
C31   C     C_R   0.083889 0.764724 0.235094 -0.067461
C32   C     C_R   0.991706 0.748467 0.195870 -0.136335
C33   C     C_R   0.909224 0.702361 0.187906 0.414781
C34   C     C_R   0.924411 0.673315 0.218256 -0.226689
C35   C     C_R   0.156498 0.839238 0.212922 0.575665
N2    N     N_R   0.068149 0.823184 0.174786 -0.560807
C36   C     C_R   0.988359 0.778648 0.165683 0.584009
O11   O     O_2   0.951646 0.616558 0.280298 -0.522470
O12   O     O_2   0.289476 0.736187 0.371830 -0.481047
H12   H     H_    0.345063 0.810066 0.342233 0.178901
H13   H     H_    0.325997 0.860802 0.289936 0.175785
O13   O     O_2   0.232416 0.883292 0.221320 -0.515073
O14   O     O_2   0.908087 0.763589 0.127344 -0.508401
H14   H     H_    0.868454 0.637521 0.210602 0.175775
C37   C     C_R   0.880205 0.868414 0.130581 -0.079289
H15   H     H_    0.747865 0.857187 0.143837 0.121972
C38   C     C_R   0.871111 0.897986 0.100609 -0.190744
H16   H     H_    0.730931 0.908881 0.091369 0.128872
C39   C     C_R   0.040926 0.913576 0.083144 -0.058934
C40   C     C_R   0.219846 0.898551 0.096377 -0.189614
H17   H     H_    0.353594 0.909681 0.083646 0.130347
C41   C     C_R   0.228588 0.868862 0.126230 -0.084744
H18   H     H_    0.367713 0.857604 0.135750 0.119420
C42   C     C_R   0.058967 0.853621 0.143701 0.372850
C43   C     C_R   0.970930 0.642623 0.383834 0.426689
C44   C     C_R   0.980792 0.612397 0.413291 -0.241109
H19   H     H_    0.857127 0.609518 0.433377 0.164297
C45   C     C_R   0.149621 0.586708 0.417367 -0.125995
C46   C     C_R   0.308388 0.591772 0.391154 -0.170011
H20   H     H_    0.440068 0.572337 0.393347 0.148613
C47   C     C_R   0.297114 0.621120 0.361052 -0.100258
H21   H     H_    0.419039 0.623758 0.340478 0.181073
C48   C     C_R   0.128980 0.646781 0.357173 0.296200
C49   C     C_R   0.652263 0.222691 0.837161 0.572008
N3    N     N_R   0.575215 0.178007 0.826103 -0.557588
C50   C     C_R   0.504627 0.162096 0.786066 0.571656
C51   C     C_R   0.509517 0.191392 0.755481 -0.027605
C52   C     C_R   0.587774 0.237330 0.766451 -0.013723
C53   C     C_R   0.659876 0.253234 0.807601 -0.027906
C54   C     C_R   0.438393 0.175846 0.714262 -0.140100
C55   C     C_R   0.445268 0.205441 0.684371 -0.141646
C56   C     C_R   0.522939 0.251392 0.694963 -0.034555
C57   C     C_R   0.593831 0.267438 0.736205 -0.016163
C58   C     C_R   0.670478 0.313545 0.747284 -0.032003
C59   C     C_R   0.741623 0.329084 0.788496 -0.140576
C60   C     C_R   0.736782 0.299277 0.818241 -0.140875
C61   C     C_R   0.531836 0.281788 0.665323 0.589101
N4    N     N_R   0.607113 0.326584 0.676521 -0.538411
C62   C     C_R   0.674195 0.342919 0.716750 0.605775
O15   O     O_2   0.719488 0.237773 0.876757 -0.522859
O16   O     O_2   0.431285 0.117906 0.775708 -0.523010
H22   H     H_    0.377333 0.140711 0.704916 0.171746
H23   H     H_    0.389392 0.192171 0.652936 0.172228
O17   O     O_2   0.465042 0.266746 0.625683 -0.521803
O18   O     O_2   0.744348 0.387393 0.727211 -0.534517
H24   H     H_    0.801734 0.364312 0.797898 0.169967
H25   H     H_    0.793202 0.312499 0.849635 0.170924
C63   C     C_R   0.478256 0.392443 0.645306 0.465802
C64   C     C_R   0.493166 0.421666 0.614458 -0.317099
H26   H     H_    0.394344 0.450635 0.614822 0.131804
C65   C     C_R   0.639622 0.414815 0.583641 -0.091428
C66   C     C_R   0.774915 0.378905 0.584101 -0.207908
H27   H     H_    0.889785 0.373050 0.560816 0.145402
C67   C     C_R   0.762476 0.349984 0.614485 -0.202539
H28   H     H_    0.868148 0.322421 0.614374 0.151801
C68   C     C_R   0.616511 0.356796 0.645352 0.317246
C69   C     C_R   0.388027 0.133581 0.871583 -0.085083
H29   H     H_    0.255604 0.146109 0.859870 0.122604
C70   C     C_R   0.379069 0.103648 0.901256 -0.197331
H30   H     H_    0.238704 0.093623 0.911657 0.128988
C71   C     C_R   0.548934 0.086760 0.917080 -0.058580
C72   C     C_R   0.727946 0.100871 0.902468 -0.198447
H31   H     H_    0.861648 0.088630 0.913844 0.129645
C73   C     C_R   0.736556 0.130921 0.872832 -0.086137
H32   H     H_    0.875622 0.141113 0.861868 0.121198
C74   C     C_R   0.566679 0.147430 0.857063 0.378088
C75   C     C_R   0.716816 0.108952 0.126439 -0.188218
H33   H     H_    0.837669 0.085370 0.117902 0.159255
C76   C     C_R   0.730366 0.144087 0.162973 0.409491
C77   C     C_R   0.575028 0.175271 0.175109 -0.003994
C78   C     C_R   0.406133 0.169360 0.150516 -0.146580
H34   H     H_    0.285039 0.192834 0.159082 0.160289
C79   C     C_R   0.392140 0.133595 0.114461 -0.122272
H35   H     H_    0.259940 0.130114 0.096259 0.141075
C80   C     C_R   0.548087 0.103215 0.101763 -0.126927
C81   C     C_R   0.441447 0.217914 0.244537 -0.117673
H36   H     H_    0.321887 0.193090 0.241296 0.178992
C82   C     C_R   0.452292 0.253592 0.280705 -0.149295
H37   H     H_    0.340887 0.255182 0.304613 0.124785
C83   C     C_R   0.607198 0.286083 0.286358 0.075852
C84   C     C_R   0.749653 0.282169 0.254587 -0.152035
H38   H     H_    0.868694 0.307096 0.257361 0.111232
C85   C     C_R   0.738387 0.246557 0.218409 -0.078331
H39   H     H_    0.848874 0.244820 0.194264 0.133739
C86   C     C_R   0.585552 0.213666 0.213244 0.112605
C87   C     C_R   0.798785 0.337448 0.344317 -0.127521
H40   H     H_    0.930110 0.319984 0.331737 0.105070
C88   C     C_R   0.810453 0.373153 0.380477 -0.156794
H41   H     H_    0.950700 0.382522 0.394389 0.120566
C89   C     C_R   0.643313 0.396296 0.398428 -0.055234
C90   C     C_R   0.464317 0.382682 0.379220 -0.151222
H42   H     H_    0.332468 0.399803 0.391907 0.120915
C91   C     C_R   0.452762 0.347072 0.343066 -0.137776
H43   H     H_    0.312855 0.338205 0.328802 0.100989
C92   C     C_R   0.619763 0.323955 0.325061 0.099174
O19   O     O_R   0.699170 0.038480 0.960880 -0.538581
O20   O     O_R   0.366800 0.052460 0.047690 -0.538897
O21   O     O_R   0.193520 0.961530 0.039110 -0.537524
C93   C     C_R   0.535878 0.065207 0.063437 0.722149
O22   O     O_R   0.369630 0.044100 0.961740 -0.542798
O23   O     O_R   0.196370 0.953120 0.952550 -0.539840
C94   C     C_R   0.538852 0.054396 0.948273 0.704825
O24   O     O_R   0.696320 0.046890 0.047450 -0.539373
O25   O     O_3   0.528890 0.970170 0.997080 -0.369754
V3    V     V_3+5 0.255190 0.005530 0.000540 1.414496
O26   O     O_R   0.866460 0.947530 0.952310 -0.542576
C95   C     C_R   0.035430 0.934587 0.936660 0.691433
O27   O     O_R   0.863630 0.955880 0.038270 -0.541782
C96   C     C_R   0.032044 0.945682 0.051774 0.714136
V4    V     V_3+5 0.754830 0.994440 0.999470 1.409517
O28   O     O_3   0.031000 0.029830 0.002920 -0.367283
O29   O     O_3   0.837293 0.682718 0.148411 -0.547061
C97   C     C_3   0.635014 0.688511 0.147751 0.163483
H44   H     H_    0.596381 0.692521 0.115085 0.176613
H45   H     H_    0.583281 0.721247 0.169165 0.092665
C98   C     C_3   0.531181 0.644794 0.158001 -0.399988
H46   H     H_    0.607625 0.612142 0.142760 0.226424
H47   H     H_    0.530727 0.646567 0.192832 0.195262
C99   C     C_3   0.323527 0.642104 0.142352 -0.729576
H48   H     H_    0.251604 0.676409 0.153529 0.241327
H49   H     H_    0.244111 0.613854 0.154653 0.240726
H50   H     H_    0.320160 0.634038 0.107186 0.238545
Cl1   Cl    Cl    0.760557 0.675738 0.381328 -0.617893
O30   O     O_3   0.343059 0.399719 0.678034 -0.562796
C100  C     C_3   0.159485 0.413100 0.665275 0.088307
H51   H     H_    0.050139 0.391479 0.678416 0.182562
H52   H     H_    0.136516 0.405331 0.630347 0.103865
C101  C     C_3   0.122391 0.465291 0.684025 -0.283893
H53   H     H_    0.113801 0.469863 0.719097 0.222092
H54   H     H_    0.243369 0.487629 0.676160 0.185800
C102  C     C_3   0.935088 0.482399 0.667369 -0.800697
H55   H     H_    0.943000 0.479429 0.632446 0.221013
H56   H     H_    0.911615 0.520088 0.681917 0.231352
H57   H     H_    0.811105 0.461186 0.675572 0.262963
Cl2   Cl    Cl    0.939813 0.145647 0.194083 -0.693506
O31   O     O_3   0.465687 0.691702 0.665983 -0.592919
C103  C     C_3   0.467425 0.734099 0.649612 0.051476
H58   H     H_    0.527258 0.762512 0.674508 0.144593
H59   H     H_    0.321238 0.746342 0.641996 0.117172
C104  C     C_3   0.597494 0.728544 0.610398 -0.332735
H60   H     H_    0.741550 0.715666 0.617967 0.206608
H61   H     H_    0.533234 0.702089 0.584451 0.197622
C105  C     C_3   0.622428 0.775360 0.595186 -0.776468
H62   H     H_    0.480288 0.788659 0.586879 0.238798
H63   H     H_    0.716147 0.770061 0.566618 0.245840
H64   H     H_    0.691211 0.802121 0.620237 0.225634

loop_
_geom_bond_atom_site_label_1
_geom_bond_atom_site_label_2
_ccdc_geom_bond_type
O23   C95   A    
C31   C32   A    
C72   H31   S    
C90   C91   A    
C20   C21   A    
C103  H58   S    
C1    C65   S    
O2    C1    A    
C55   C56   A    
C69   C74   A    
C1    O6    A    
C73   H32   S    
C43   C48   A    
C57   C58   A    
C37   C42   A    
C70   H30   S    
O21   C96   A    
C75   C76   A    
C47   H21   S    
O27   C96   A    
O25   V4    S    
C79   C80   A    
N2    C42   S    
C91   H43   S    
C40   C41   A    
C23   O11   S    
C5    C10   A    
C8    C9    A    
C7    C8    A    
C6    C7    A    
C17   C18   A    
C41   C42   A    
C99   H49   S    
C35   O13   S    
O5    C3    A    
C18   H9    S    
V4    O28   S    
C70   C71   A    
C11   C12   A    
O26   C95   A    
C58   C62   A    
C32   C33   A    
C100  H52   S    
C15   H8    S    
C20   H10   S    
C17   O31   S    
C37   C38   A    
C67   H28   S    
C85   H39   S    
C49   O15   S    
C30   C31   A    
O8    V2    S    
C46   H20   S    
C98   H47   S    
O31   C103  S    
C97   H45   S    
C105  H64   S    
C88   C89   A    
O29   C97   S    
O1    V2    S    
O19   C94   A    
C29   H13   S    
O7    V1    S    
C50   C51   A    
C98   C99   S    
C102  H57   S    
O20   V3    S    
C25   C28   A    
C61   O17   S    
C35   N2    A    
C91   C92   A    
O1    C2    A    
O9    C4    A    
C104  H60   S    
C103  H59   S    
O22   V3    S    
C37   H15   S    
C63   C64   A    
O20   C93   A    
O27   V4    S    
C52   C57   A    
C84   H38   S    
O4    C2    A    
C30   C35   A    
C47   C48   A    
C39   C40   A    
O23   V3    S    
C82   H37   S    
C87   C92   A    
C84   C85   A    
C105  H62   S    
C61   N4    A    
O25   V3    S    
C78   H34   S    
O21   V3    S    
C9    H4    S    
C44   C45   A    
C28   H12   S    
C99   H50   S    
C51   C52   A    
C7    C16   S    
C49   C53   A    
C83   C84   A    
C24   O12   S    
C26   C27   A    
C29   C30   A    
C77   C86   S    
C23   C27   A    
C45   C46   A    
N3    C74   S    
C43   C44   A    
N2    C36   A    
C14   C15   A    
C100  C101  S    
C93   O24   A    
C21   H11   S    
C101  C102  S    
C99   H48   S    
O5    V1    S    
C12   H6    S    
C33   O29   S    
C36   O14   S    
C59   C60   A    
C104  C105  S    
C24   C25   A    
C97   C98   S    
C56   C57   A    
C5    H1    S    
V3    O28   S    
C3    C45   S    
C54   C55   A    
C27   C34   A    
C41   H18   S    
C83   C92   S    
C21   C22   A    
C53   C60   A    
C89   C90   A    
C69   H29   S    
O3    C4    A    
C55   H23   S    
C97   H44   S    
O24   V4    S    
C34   H14   S    
C19   C20   A    
C46   C47   A    
C104  H61   S    
C10   C95   S    
C25   C26   A    
O6    V2    S    
O9    V2    S    
C76   C77   A    
C103  C104  S    
C87   C88   A    
C17   C22   A    
C75   H33   S    
O2    V1    S    
C40   H17   S    
C90   H42   S    
C82   C83   A    
N4    C68   S    
C28   C29   A    
C63   C68   A    
C64   H26   S    
O26   V4    S    
C100  H51   S    
C78   C79   A    
C23   N1    A    
C54   H22   S    
C72   C73   A    
C85   C86   A    
C32   C36   A    
O19   V4    S    
C13   C14   A    
C50   O16   S    
C9    C10   A    
C44   H19   S    
N1    C24   A    
C73   C74   A    
C63   O30   S    
O8    C3    A    
C43   Cl1   S    
C77   C78   A    
C81   C82   A    
C11   C16   A    
C79   H35   S    
C26   C31   A    
C87   H40   S    
C62   O18   S    
C101  H53   S    
C6    H2    S    
O22   C94   A    
C71   C94   S    
O7    V2    S    
O4    V1    S    
C12   C13   A    
O3    V1    S    
V1    O10   S    
C14   H7    S    
C51   C54   A    
C18   C19   A    
C59   H24   S    
C33   C34   A    
C71   C72   A    
C2    C89   S    
C81   H36   S    
V2    O10   S    
C80   C93   S    
C52   C53   A    
C5    C6    A    
C66   C67   A    
C66   H27   S    
C15   C16   A    
C39   C96   S    
N4    C62   A    
C67   C68   A    
C69   C70   A    
C75   C80   A    
C4    C19   S    
C102  H55   S    
C38   H16   S    
C49   N3    A    
C60   H25   S    
C76   Cl2   S    
C58   C59   A    
C13   C22   S    
C38   C39   A    
C11   H5    S    
C105  H63   S    
C8    H3    S    
O30   C100  S    
C88   H41   S    
C64   C65   A    
N3    C50   A    
C56   C61   A    
C81   C86   A    
C98   H46   S    
C65   C66   A    
C101  H54   S    
C102  H56   S    
N1    C48   S    
