data_mof_unit_32073.cif
_audit_creation_date              2012-10-26T18:32:21-0400
_audit_creation_method            fapswitch 2.2
_symmetry_space_group_name_H-M    P1
_symmetry_Int_Tables_number       1
_space_group_crystal_system       triclinic
_cell_length_a                    12.331732
_cell_length_b                    13.102672
_cell_length_c                    15.860389
_cell_angle_alpha                 78.540771
_cell_angle_beta                  100.217344
_cell_angle_gamma                 116.430889
_cell_volume                      2237.49974551

loop_
_atom_site_label
_atom_site_type_symbol
_atom_type_description
_atom_site_fract_x
_atom_site_fract_y
_atom_site_fract_z
_atom_type_partial_charge
C1    C     C_R   0.854999 0.286404 0.507533 0.520907
C2    C     C_R   0.228325 0.835019 0.469947 0.002258
C3    C     C_R   0.813415 0.084567 0.565179 -0.132172
C4    C     C_R   0.998895 0.500038 0.659278 0.543153
C5    C     C_R   0.733690 0.969765 0.582982 -0.137016
C6    C     C_R   0.611149 0.932294 0.552578 -0.115138
C7    C     C_R   0.566115 0.009066 0.500269 0.037561
C8    C     C_R   0.650619 0.123092 0.473958 0.028455
C9    C     C_R   0.440266 0.976152 0.472373 0.033455
C10   C     C_R   0.402445 0.053278 0.412727 0.052316
C11   C     C_R   0.488736 0.159846 0.380026 -0.142670
C12   C     C_3   0.064654 0.429873 0.068433 -0.168918
C13   C     C_R   0.611035 0.193526 0.408967 -0.119675
C14   C     C_R   0.350423 0.868935 0.502377 -0.122087
C15   C     C_R   0.191890 0.912564 0.412568 -0.134351
C16   C     C_R   0.145011 0.713523 0.487500 0.549594
C17   C     C_R   0.772802 0.162913 0.512743 -0.002855
C18   C     C_R   0.363694 0.363408 0.657448 0.236087
C19   C     C_R   0.758671 0.642493 0.382003 0.049868
C20   C     C_R   0.663237 0.676256 0.357944 0.217599
C21   C     C_R   0.564973 0.627526 0.407456 -0.087831
C22   C     C_R   0.554976 0.537987 0.476024 -0.048809
C23   C     C_3   0.007785 0.508969 0.082292 0.011874
C24   C     C_R   0.655432 0.508777 0.499071 0.154260
C25   C     C_R   0.451016 0.479770 0.524563 -0.053690
C26   C     C_R   0.458881 0.409998 0.603696 -0.007290
C27   C     C_R   0.558953 0.383601 0.626013 -0.163118
C28   C     C_R   0.001325 0.500576 0.340532 0.549366
C29   C     C_R   0.651827 0.427372 0.572535 -0.098199
C30   C     C_R   0.335936 0.481456 0.494922 0.386596
C31   C     C_R   0.258162 0.379333 0.628460 0.020104
C32   C     C_3   0.052276 0.418826 0.971220 0.173100
C33   C     C_3   0.870623 0.463878 0.940359 -0.246212
C34   C     C_3   0.080490 0.634493 0.037621 0.055260
C35   C     C_3   0.874328 0.462619 0.038835 -0.256272
C36   C     C_1   0.004429 0.503101 0.250827 -0.042378
C37   C     C_3   0.001776 0.504636 0.915952 0.064897
C38   C     C_3   0.021474 0.253336 0.916211 -0.019631
C39   C     C_3   0.925187 0.136320 0.895423 -0.369378
C40   C     C_3   0.435030 0.373038 0.800443 -0.012877
C41   C     C_3   0.347424 0.392672 0.845200 -0.407163
C42   C     C_3   0.284345 0.422226 0.362554 0.000595
C43   C     C_3   0.296174 0.467983 0.267372 -0.391286
C44   C     C_3   0.674243 0.730119 0.211967 -0.015748
C45   C     C_3   0.075536 0.631293 0.938640 0.179595
C46   C     C_3   0.632202 0.800089 0.136285 -0.370315
C47   C     C_3   0.272891 0.655928 0.914277 0.017329
C48   C     C_3   0.397521 0.752972 0.898371 -0.368661
C49   C     C_3   0.257188 0.813710 0.071078 -0.297434
C50   C     C_1   0.006132 0.506048 0.174960 -0.090550
C51   C     C_1   0.998111 0.502887 0.823684 -0.037929
C52   C     C_1   0.997376 0.501507 0.748323 -0.036250
C53   C     C_R   0.278617 0.021694 0.384609 -0.133048
Cu1   Cu    Cu3+1 0.098280 0.475420 0.519630 0.967045
Cu2   Cu    Cu3+1 0.901720 0.524580 0.480370 0.912394
H1    H     H_    0.019944 0.343276 0.106204 0.152642
H2    H     H_    0.554922 0.842140 0.569685 0.103032
H3    H     H_    0.766328 0.909907 0.622998 0.118861
H4    H     H_    0.674006 0.274404 0.377768 0.148694
H5    H     H_    0.184852 0.343950 0.669380 0.142667
H6    H     H_    0.563947 0.325127 0.683820 0.152142
H7    H     H_    0.838249 0.683281 0.346827 0.126167
H8    H     H_    0.498841 0.663093 0.392090 0.192092
H9    H     H_    0.719675 0.395781 0.592117 0.184112
H10   H     H_    0.829188 0.521813 0.903747 0.078693
H11   H     H_    0.809836 0.376675 0.922520 0.175890
H12   H     H_    0.144462 0.440162 0.954830 0.056563
H13   H     H_    0.821074 0.373062 0.069012 0.146234
H14   H     H_    0.829593 0.515826 0.049332 0.100871
H15   H     H_    0.016844 0.675717 0.907369 0.114059
H16   H     H_    0.097800 0.241253 0.959230 0.120757
H17   H     H_    0.055131 0.307306 0.854420 0.128672
H18   H     H_    0.848305 0.146278 0.851950 0.155940
H19   H     H_    0.965208 0.095660 0.862629 0.098307
H20   H     H_    0.890515 0.079694 0.955903 0.152653
H21   H     H_    0.506821 0.457451 0.775042 0.115799
H22   H     H_    0.482927 0.330350 0.849945 0.146249
H23   H     H_    0.162395 0.464783 0.093671 0.068631
H24   H     H_    0.276118 0.308741 0.870407 0.148243
H25   H     H_    0.397904 0.441892 0.900033 0.087126
H26   H     H_    0.303726 0.442545 0.799366 0.132967
H27   H     H_    0.348675 0.381198 0.383988 0.107712
H28   H     H_    0.190232 0.354689 0.370106 0.156379
H29   H     H_    0.272253 0.396201 0.230110 0.082255
H30   H     H_    0.233847 0.509516 0.243425 0.162923
H31   H     H_    0.390895 0.532158 0.257812 0.151810
H32   H     H_    0.614759 0.637218 0.207249 0.111137
H33   H     H_    0.769907 0.748513 0.205952 0.122059
H34   H     H_    0.030914 0.685095 0.045363 0.102899
H35   H     H_    0.690270 0.893401 0.137641 0.163724
H36   H     H_    0.638645 0.776649 0.074391 0.083121
H37   H     H_    0.536079 0.782030 0.140011 0.156122
H38   H     H_    0.250400 0.595603 0.866906 0.120166
H39   H     H_    0.280454 0.613119 0.981319 0.146698
H40   H     H_    0.424528 0.815633 0.944664 0.157852
H41   H     H_    0.466157 0.717501 0.907404 0.078598
H42   H     H_    0.395438 0.797918 0.831301 0.163123
H43   H     H_    0.224629 0.652403 0.138039 0.249088
H44   H     H_    0.356351 0.847265 0.091719 0.136004
H45   H     H_    0.097570 0.887279 0.386616 0.126530
H46   H     H_    0.213797 0.838983 0.113951 0.126774
H47   H     H_    0.244143 0.853105 0.003554 0.193143
H48   H     H_    0.461644 0.217559 0.331648 0.097139
H49   H     H_    0.249368 0.080206 0.338965 0.099475
H50   H     H_    0.372857 0.808762 0.550393 0.116766
H51   H     H_    0.906586 0.112589 0.594470 0.132016
N1    N     N_R   0.246300 0.438200 0.549400 -0.261053
N2    N     N_R   0.754300 0.561180 0.451130 -0.264514
N3    N     N_2   0.205353 0.689575 0.077295 -0.508326
O1    O     O_R   0.972520 0.318130 0.524690 -0.507059
O2    O     O_3   0.370692 0.298822 0.736942 -0.569634
O3    O     O_3   0.308227 0.513619 0.408660 -0.539373
O4    O     O_3   0.667333 0.762320 0.290136 -0.561422
O5    O     O_3   0.186508 0.702255 0.900442 -0.551998
O6    O     O_R   0.806530 0.359650 0.491530 -0.526627
O7    O     O_R   0.083030 0.479240 0.637150 -0.517225
O8    O     O_R   0.917040 0.520750 0.603990 -0.508009
O9    O     O_R   0.193470 0.640350 0.508470 -0.479171
O10   O     O_R   0.027480 0.681870 0.475310 -0.502874
O11   O     O_R   0.082960 0.479250 0.396010 -0.442009
O12   O     O_R   0.916970 0.520760 0.362850 -0.519316
O13   O     O_3   0.969696 0.303889 0.958292 -0.567687

loop_
_geom_bond_atom_site_label_1
_geom_bond_atom_site_label_2
_ccdc_geom_bond_type
C47   O5    S    
Cu2   O12   S    
C8    C13   A    
C48   H40   S    
Cu1   O11   S    
C30   N1    A    
C27   C29   A    
C19   C20   A    
C18   C26   A    
C15   H45   S    
C41   H25   S    
C33   H10   S    
C7    C8    A    
Cu2   O10   S    
C48   H42   S    
C12   C23   S    
C26   C27   A    
C5    H3    S    
C4    C52   S    
C15   C53   A    
C49   H46   S    
C20   O4    S    
C37   C51   S    
C46   H37   S    
C53   H49   S    
C12   H23   S    
Cu1   O1    S    
C39   H19   S    
C10   C53   A    
C42   O3    S    
C24   C29   A    
Cu1   O7    S    
C27   H6    S    
Cu1   Cu2   S    
C45   O5    S    
C14   H50   S    
C22   C25   A    
C42   H27   S    
C24   N2    A    
C39   H20   S    
C44   H32   S    
C2    C16   S    
C9    C10   A    
C19   N2    A    
C29   H9    S    
H43   N3    S    
C21   C22   A    
C12   C32   S    
C43   H29   S    
C6    H2    S    
C44   C46   S    
C33   H11   S    
C40   O2    S    
C3    H51   S    
C38   C39   S    
C38   H17   S    
C51   C52   T    
C43   H30   S    
C32   O13   S    
C18   O2    S    
C28   O11   A    
C16   O10   A    
C49   H47   S    
C28   O12   A    
C23   C50   S    
C46   H36   S    
C25   C26   A    
C33   C37   S    
C40   H21   S    
C30   O3    S    
C31   H5    S    
C9    C14   A    
C16   O9    A    
C1    O1    A    
C49   H44   S    
C47   C48   S    
C23   C34   S    
C41   H26   S    
C47   H38   S    
C34   C45   S    
C12   H1    S    
C32   C37   S    
C2    C15   A    
C35   H14   S    
C38   O13   S    
C32   H12   S    
C46   H35   S    
Cu1   N1    S    
C40   C41   S    
C44   O4    S    
C23   C35   S    
Cu1   O9    S    
C22   C24   A    
C4    O8    A    
C42   C43   S    
C37   C45   S    
C36   C50   T    
C49   N3    S    
Cu2   O8    S    
C25   C30   A    
C7    C9    A    
C38   H16   S    
C48   H41   S    
C45   H15   S    
C43   H31   S    
C31   N1    A    
C4    O7    A    
C42   H28   S    
C3    C5    A    
C41   H24   S    
C6    C7    A    
C13   H4    S    
C1    O6    A    
C1    C17   S    
C8    C17   A    
Cu2   N2    S    
C34   H34   S    
C11   C13   A    
C5    C6    A    
Cu2   O6    S    
C35   H13   S    
C33   C35   S    
C47   H39   S    
C3    C17   A    
C39   H18   S    
C2    C14   A    
C21   H8    S    
C10   C11   A    
C20   C21   A    
C28   C36   S    
C34   N3    S    
C40   H22   S    
C11   H48   S    
C18   C31   A    
C19   H7    S    
C44   H33   S    
