data_mof_unit_16712.cif
_audit_creation_date              2012-12-11T15:08:42-0500
_audit_creation_method            fapswitch 2.2
_symmetry_space_group_name_H-M    P1
_symmetry_Int_Tables_number       1
_space_group_crystal_system       triclinic
_cell_length_a                    26.863081
_cell_length_b                    7.075606
_cell_length_c                    11.93296
_cell_angle_alpha                 90.001242
_cell_angle_beta                  103.198373
_cell_angle_gamma                 90.007618
_cell_volume                      2208.21670114

loop_
_atom_site_label
_atom_site_type_symbol
_atom_type_description
_atom_site_fract_x
_atom_site_fract_y
_atom_site_fract_z
_atom_type_partial_charge
O1    O     O_R   0.437360 0.505910 0.042120 -0.537559
O2    O     O_R   0.562640 0.005910 0.957880 -0.537521
O3    O     O_R   0.542480 0.176660 0.157100 -0.532224
O4    O     O_R   0.457520 0.676660 0.842900 -0.532270
C1    C     C_R   0.557332 0.344078 0.197645 0.775016
C2    C     C_R   0.442677 0.844061 0.802346 0.775030
O5    O     O_R   0.436520 0.176250 0.054800 -0.540651
O6    O     O_R   0.563480 0.676250 0.945200 -0.540655
O7    O     O_R   0.455920 0.005040 0.854840 -0.538371
O8    O     O_R   0.544080 0.505040 0.145160 -0.538412
C3    C     C_R   0.416944 0.344934 0.061696 0.770159
C4    C     C_R   0.583052 0.844956 0.938294 0.770203
O9    O     O_3   0.506490 0.338900 0.934520 -0.372876
O10   O     O_3   0.493510 0.838900 0.065480 -0.372926
V1    V     V_3+5 0.498800 0.064400 0.012150 1.558652
V2    V     V_3+5 0.501200 0.564400 0.987850 1.558569
C5    C     C_R   0.681689 0.911615 0.761421 -0.171276
C6    C     C_R   0.318303 0.410860 0.238626 -0.171300
H1    H     H_    0.681676 0.945190 0.672941 0.208752
H2    H     H_    0.318318 0.444088 0.327153 0.208791
C7    C     C_R   0.632483 0.856006 0.904722 -0.115020
C8    C     C_R   0.367510 0.355903 0.095254 -0.114977
C9    C     C_R   0.867453 0.843992 0.211758 -0.160731
C10   C     C_R   0.132540 0.344722 0.788190 -0.160763
C11   C     C_R   0.821624 0.831784 0.246548 -0.118241
C12   C     C_R   0.178370 0.332764 0.753384 -0.118368
C13   C     C_R   0.775179 0.831621 0.165510 -0.151148
C14   C     C_R   0.224814 0.332302 0.834424 -0.151199
C15   C     C_R   0.773436 0.844985 0.046165 0.089249
C16   C     C_R   0.226557 0.345130 0.953790 0.089244
C17   C     C_R   0.820689 0.859740 0.011317 -0.006879
C18   C     C_R   0.179304 0.359605 0.988659 -0.006862
C19   C     C_R   0.726403 0.850924 0.960864 0.031351
C20   C     C_R   0.273589 0.350847 0.039098 0.031384
C21   C     C_R   0.727671 0.883064 0.843631 -0.013606
C22   C     C_R   0.272322 0.382533 0.156375 -0.013590
C23   C     C_R   0.774800 0.890616 0.811053 0.366030
C24   C     C_R   0.225192 0.389862 0.188963 0.366014
C25   C     C_R   0.820323 0.877620 0.893876 -0.253516
C26   C     C_R   0.179670 0.377038 0.106124 -0.253496
C27   C     C_R   0.677954 0.828891 0.988076 -0.277182
C28   C     C_R   0.322038 0.329031 0.011857 -0.277190
C29   C     C_R   0.634840 0.905457 0.792508 0.355295
C30   C     C_R   0.365153 0.404909 0.207535 0.355186
C31   C     C_R   0.867626 0.858065 0.095087 -0.070270
C32   C     C_R   0.132368 0.358190 0.904886 -0.070216
H3    H     H_    0.674155 0.793245 0.073550 0.112276
H4    H     H_    0.325835 0.293698 0.926337 0.112256
H5    H     H_    0.902986 0.842807 0.276275 0.187324
H6    H     H_    0.097007 0.343853 0.723667 0.187280
H7    H     H_    0.822053 0.822490 0.337355 0.167274
H8    H     H_    0.177941 0.323920 0.662561 0.167375
C33   C     C_R   0.091176 0.863395 0.312759 -0.132618
C34   C     C_R   0.908824 0.363272 0.687241 -0.132533
C35   C     C_R   0.407553 0.851148 0.687754 -0.150133
C36   C     C_R   0.592475 0.351240 0.312218 -0.150200
C37   C     C_R   0.105531 0.865990 0.520381 -0.149375
C38   C     C_R   0.894468 0.364282 0.479614 -0.149281
C39   C     C_R   0.072002 0.856011 0.412520 0.411153
C40   C     C_R   0.927986 0.354546 0.587499 0.411139
C41   C     C_R   0.143901 0.880611 0.321958 -0.209482
C42   C     C_R   0.856120 0.381403 0.678001 -0.209416
C43   C     C_R   0.178799 0.889645 0.430755 0.137457
C44   C     C_R   0.821224 0.389882 0.569185 0.137402
C45   C     C_R   0.158418 0.882510 0.530366 0.045729
C46   C     C_R   0.841598 0.381640 0.469590 0.045778
C47   C     C_R   0.233082 0.900300 0.444005 0.134178
C48   C     C_R   0.766945 0.400905 0.555913 0.134097
C49   C     C_R   0.265982 0.901440 0.557075 0.082817
C50   C     C_R   0.734047 0.401579 0.442840 0.082751
C51   C     C_R   0.243474 0.899188 0.653054 -0.183322
C52   C     C_R   0.756553 0.398490 0.346865 -0.183432
C53   C     C_R   0.190846 0.889661 0.639597 -0.170198
C54   C     C_R   0.809175 0.388423 0.360342 -0.170169
C55   C     C_R   0.255656 0.903651 0.348025 -0.087129
C56   C     C_R   0.744369 0.404843 0.651885 -0.087018
C57   C     C_R   0.308090 0.889008 0.361326 -0.153264
C58   C     C_R   0.691934 0.390228 0.638602 -0.153208
C59   C     C_R   0.340221 0.875636 0.470470 0.043927
C60   C     C_R   0.659806 0.376405 0.529476 0.043893
C61   C     C_R   0.320290 0.893306 0.570152 0.099653
C62   C     C_R   0.679739 0.393655 0.429774 0.099702
C63   C     C_R   0.392017 0.835620 0.480331 -0.105480
C64   C     C_R   0.608016 0.336288 0.519657 -0.105537
C65   C     C_R   0.424493 0.808038 0.587871 0.445604
C66   C     C_R   0.575547 0.308318 0.412143 0.445617
C67   C     C_R   0.355740 0.894605 0.678620 -0.282679
C68   C     C_R   0.644288 0.394703 0.321307 -0.282714
H9    H     H_    0.175386 0.884897 0.715938 0.140770
H10   H     H_    0.824630 0.382884 0.284011 0.140740
H11   H     H_    0.344181 0.923198 0.757726 0.113041
H12   H     H_    0.655850 0.423151 0.242183 0.113028
H13   H     H_    0.323507 0.881933 0.284970 0.136921
H14   H     H_    0.676515 0.383503 0.714966 0.136923
H15   H     H_    0.090161 0.860422 0.596820 0.168283
H16   H     H_    0.909829 0.357755 0.403187 0.168180
H17   H     H_    0.156120 0.886822 0.242144 0.113619
H18   H     H_    0.843913 0.388661 0.757801 0.113579
H19   H     H_    0.265586 0.898955 0.740534 0.123943
H20   H     H_    0.734436 0.397835 0.259387 0.124004
H21   H     H_    0.233877 0.911050 0.260478 0.120281
H22   H     H_    0.766148 0.412530 0.739425 0.120294
H23   H     H_    0.406722 0.816218 0.403914 0.204716
H24   H     H_    0.593314 0.317068 0.596097 0.204732
O11   O     O_R   0.955980 0.206520 0.854760 -0.533596
O12   O     O_R   0.044020 0.706520 0.145240 -0.533744
O13   O     O_R   0.063490 0.536770 0.945200 -0.541064
O14   O     O_R   0.936510 0.036770 0.054800 -0.540977
C69   C     C_R   0.082707 0.368172 0.937151 0.704281
C70   C     C_R   0.917289 0.868148 0.062835 0.704306
O15   O     O_R   0.957530 0.536190 0.842880 -0.535803
O16   O     O_R   0.042470 0.036190 0.157120 -0.535668
O17   O     O_R   0.937350 0.707210 0.042130 -0.540171
O18   O     O_R   0.062650 0.207210 0.957870 -0.540083
C71   C     C_R   0.943281 0.368091 0.802134 0.763044
C72   C     C_R   0.056721 0.868114 0.197864 0.763065
O19   O     O_3   0.993540 0.373870 0.065440 -0.374020
O20   O     O_3   0.006460 0.873870 0.934560 -0.373969
V3    V     V_3+5 0.001200 0.648440 0.987860 1.512219
V4    V     V_3+5 0.998800 0.148440 0.012140 1.512593
Cl1   Cl    Cl    0.579863 0.967545 0.689280 -0.579420
Cl2   Cl    Cl    0.420129 0.466699 0.310855 -0.579572
Cl3   Cl    Cl    0.484484 0.705678 0.593338 -0.471037
Cl4   Cl    Cl    0.515598 0.205636 0.406773 -0.470771
Cl5   Cl    Cl    0.006103 0.836379 0.405390 -0.634883
Cl6   Cl    Cl    0.993859 0.333536 0.594680 -0.634894
Cl7   Cl    Cl    0.779186 0.914829 0.666322 -0.708972
Cl8   Cl    Cl    0.220805 0.413624 0.333719 -0.709016
H25   H     H_    0.741377 0.824737 0.199506 0.121659
H26   H     H_    0.258616 0.325659 0.800422 0.121702
H27   H     H_    0.855703 0.885613 0.865155 0.157307
H28   H     H_    0.144290 0.384843 0.134854 0.157303

loop_
_geom_bond_atom_site_label_1
_geom_bond_atom_site_label_2
_ccdc_geom_bond_type
C59   C63   A    
C43   C45   A    
O4    V2    S    
C9    C31   A    
C67   H11   S    
O12   V3    S    
C13   C15   A    
C13   H25   S    
O14   V4    S    
C1    C36   S    
O1    C3    A    
C2    C35   S    
C60   C64   A    
O2    C4    A    
C2    O7    A    
C5    C29   A    
C33   C39   A    
C34   C40   A    
O5    C3    A    
C63   H23   S    
C44   C48   A    
C21   C23   A    
C56   C58   A    
C6    C30   A    
O19   V3    S    
C58   C60   A    
C36   C68   A    
C38   C40   A    
C46   C54   A    
C15   C19   A    
C45   C53   A    
O15   V3    S    
C30   Cl2   S    
C40   Cl6   S    
C49   C51   A    
C38   H16   S    
O20   V3    S    
C42   C44   A    
C5    H1    S    
C42   H18   S    
C33   C41   A    
C38   C46   A    
C8    C30   A    
C68   H12   S    
C17   C25   A    
C20   C28   A    
O11   V4    S    
C16   C18   A    
C29   Cl1   S    
C14   H26   S    
C33   C72   S    
O5    V1    S    
C26   H28   S    
O6    V2    S    
C7    C29   A    
C56   H22   S    
O13   C69   A    
O13   V3    S    
C12   C14   A    
C57   C59   A    
C10   H6    S    
C43   C47   A    
C16   C20   A    
O17   V3    S    
C49   C61   A    
C52   C54   A    
O19   V4    S    
C51   C53   A    
C31   C70   S    
C34   C42   A    
C51   H19   S    
C4    C7    S    
O12   C72   A    
C47   C49   A    
C44   C46   A    
C35   C65   A    
C11   H7    S    
C12   H8    S    
O15   C71   A    
C36   C66   A    
O6    C4    A    
C34   C71   S    
C41   C43   A    
C27   H3    S    
O1    V2    S    
C28   H4    S    
O2    V1    S    
C55   C57   A    
C70   O17   A    
C61   C67   A    
C69   O18   A    
C7    C27   A    
O4    C2    A    
C63   C65   A    
C66   Cl4   S    
C11   C13   A    
C64   H24   S    
C32   C69   S    
C47   C55   A    
C17   C31   A    
C22   C24   A    
O16   C72   A    
O3    V1    S    
O16   V4    S    
C52   H20   S    
C18   C32   A    
O11   C71   A    
C41   H17   S    
C10   C12   A    
C37   C45   A    
O3    C1    A    
C24   Cl8   S    
C48   C56   A    
C9    H5    S    
C3    C8    S    
C59   C61   A    
C19   C27   A    
C54   H10   S    
C14   C16   A    
O7    V1    S    
C53   H9    S    
C1    O8    A    
C15   C17   A    
O8    V2    S    
C39   Cl5   S    
C24   C26   A    
C8    C28   A    
C25   H27   S    
C58   H14   S    
C62   C68   A    
C57   H13   S    
C19   C21   A    
C60   C62   A    
O14   C70   A    
C65   Cl3   S    
C6    H2    S    
C18   C26   A    
C35   C67   A    
C50   C62   A    
O20   V4    S    
C37   C39   A    
C9    C11   A    
C20   C22   A    
C23   C25   A    
C37   H15   S    
O9    V2    S    
C55   H21   S    
C48   C50   A    
O10   V1    S    
C64   C66   A    
C50   C52   A    
C5    C21   A    
C6    C22   A    
O18   V4    S    
C10   C32   A    
C23   Cl7   S    
