data_mof_unit_8113.cif
_audit_creation_date              2012-10-26T20:31:43-0400
_audit_creation_method            fapswitch 2.2
_symmetry_space_group_name_H-M    P1
_symmetry_Int_Tables_number       1
_space_group_crystal_system       triclinic
_cell_length_a                    15.87332
_cell_length_b                    10.834289
_cell_length_c                    9.609187
_cell_angle_alpha                 89.725233
_cell_angle_beta                  90.15914
_cell_angle_gamma                 91.361204
_cell_volume                      1652.05964888

loop_
_atom_site_label
_atom_site_type_symbol
_atom_type_description
_atom_site_fract_x
_atom_site_fract_y
_atom_site_fract_z
_atom_type_partial_charge
C1    C     C_R   0.502428 0.262895 0.500419 0.547295
C2    C     C_R   0.508862 0.130294 0.501259 -0.009526
C3    C     C_R   0.540656 0.066525 0.385665 -0.170290
C4    C     C_R   0.340322 0.499114 0.499946 0.547793
C5    C     C_R   0.538443 0.936632 0.383514 -0.166977
C6    C     C_R   0.506475 0.869545 0.498823 0.006203
C7    C     C_R   0.481590 0.935728 0.613563 -0.041688
C8    C     C_3   0.440724 0.921211 0.752247 -0.239016
C9    C     C_3   0.443429 0.063456 0.756458 0.193611
C10   C     C_R   0.544026 0.588625 0.073121 0.128295
C11   C     C_R   0.447834 0.421180 0.073122 0.070495
C12   C     C_3   0.946881 0.388624 0.591879 -0.204714
C13   C     C_R   0.447659 0.422306 0.923547 0.390497
C14   C     C_R   0.543997 0.588597 0.926562 0.100040
C15   C     C_3   0.636444 0.615540 0.920931 -0.277967
C16   C     C_R   0.501535 0.737001 0.499585 0.545344
C17   C     C_3   0.636527 0.615367 0.079038 -0.270869
C18   C     C_R   0.659611 0.500595 0.500092 0.535963
C19   C     C_3   0.044957 0.388198 0.597448 -0.072028
C20   C     C_3   0.047858 0.481952 0.350792 -0.213429
C21   C     C_3   0.950260 0.481158 0.351129 -0.217193
C22   C     C_1   0.749235 0.500746 0.500338 -0.049902
C23   C     C_3   0.916831 0.497728 0.501095 0.061382
C24   C     C_3   0.082554 0.493287 0.501403 0.073605
C25   C     C_3   0.580710 0.104669 0.851364 -0.104415
C26   C     C_R   0.394322 0.326046 0.142863 0.100958
C27   C     C_R   0.311074 0.351181 0.181179 -0.090187
C28   C     C_R   0.258064 0.256957 0.233160 -0.127746
C29   C     C_R   0.286549 0.136193 0.242088 -0.117120
C30   C     C_R   0.367853 0.109437 0.198588 -0.112425
C31   C     C_R   0.421292 0.203835 0.148557 -0.022156
C32   C     C_R   0.080123 0.259906 0.573097 0.036768
C33   C     C_R   0.134544 0.208965 0.672887 -0.101225
C34   C     C_3   0.954359 0.619927 0.560813 -0.218744
C35   C     C_R   0.167936 0.092042 0.653903 -0.109665
C36   C     C_R   0.146015 0.023011 0.536510 -0.109777
C37   C     C_R   0.090488 0.070741 0.438207 -0.128702
C38   C     C_R   0.057647 0.188227 0.456057 -0.099879
C39   C     C_3   0.315422 0.356374 0.851376 -0.115587
C40   C     C_3   0.052016 0.618227 0.559230 -0.231037
C41   C     C_1   0.824762 0.500116 0.500487 -0.084686
C42   C     C_1   0.174921 0.494169 0.500716 -0.081671
C43   C     C_1   0.250541 0.496392 0.500010 -0.054909
C44   C     C_R   0.483633 0.060138 0.615359 0.012228
Cu1   Cu    Cu3+1 0.500000 0.499980 0.640670 0.984970
Cu2   Cu    Cu3+1 0.500000 0.500020 0.359330 0.932613
H1    H     H_    0.919944 0.300505 0.550370 0.115218
H2    H     H_    0.672429 0.538428 0.876307 0.150620
H3    H     H_    0.651030 0.707943 0.875016 0.120212
H4    H     H_    0.672510 0.538080 0.124439 0.152009
H5    H     H_    0.651306 0.707626 0.124287 0.117517
H6    H     H_    0.071493 0.561640 0.287246 0.105494
H7    H     H_    0.071178 0.398453 0.298789 0.101906
H8    H     H_    0.925402 0.392859 0.306757 0.104203
H9    H     H_    0.927709 0.556988 0.282996 0.110331
H10   H     H_    0.076625 0.633250 0.666571 0.103696
H11   H     H_    0.076769 0.696208 0.494108 0.112594
H12   H     H_    0.062450 0.414830 0.705887 0.093017
H13   H     H_    0.932068 0.632930 0.669368 0.110450
H14   H     H_    0.603583 0.170300 0.769977 0.147083
H15   H     H_    0.600136 0.009271 0.827534 0.100971
H16   H     H_    0.611830 0.131853 0.950432 0.107747
H17   H     H_    0.286891 0.443240 0.168636 0.099590
H18   H     H_    0.194461 0.277085 0.263968 0.114196
H19   H     H_    0.245309 0.062888 0.280366 0.116522
H20   H     H_    0.389362 0.015459 0.203031 0.120291
H21   H     H_    0.483973 0.182278 0.114494 0.144364
H22   H     H_    0.150738 0.259462 0.766359 0.068420
H23   H     H_    0.921786 0.397365 0.699421 0.095875
H24   H     H_    0.210318 0.054602 0.730905 0.092562
H25   H     H_    0.171569 0.932211 0.522165 0.096068
H26   H     H_    0.072762 0.016538 0.347973 0.092906
H27   H     H_    0.013363 0.221072 0.379732 0.091384
H28   H     H_    0.290005 0.340853 0.745390 0.149032
H29   H     H_    0.299050 0.451809 0.883085 0.081510
H30   H     H_    0.282970 0.287293 0.919035 0.110471
H31   H     H_    0.932473 0.699714 0.498107 0.115651
H32   H     H_    0.566480 0.116370 0.297239 0.120094
H33   H     H_    0.561451 0.889445 0.292569 0.127110
H34   H     H_    0.375752 0.881313 0.743822 0.092920
H35   H     H_    0.481728 0.875331 0.829778 0.151030
H36   H     H_    0.379528 0.103108 0.752717 0.147555
N1    N     N_R   0.500530 0.500930 0.147930 -0.267057
N2    N     N_R   0.500530 0.500890 0.852020 -0.228567
O1    O     O_R   0.500000 0.319640 0.618810 -0.440535
O2    O     O_3   0.402649 0.333695 0.849145 -0.510483
O3    O     O_R   0.500010 0.319680 0.381230 -0.510522
O4    O     O_R   0.379430 0.499990 0.618840 -0.483142
O5    O     O_R   0.379440 0.500030 0.381260 -0.497771
O6    O     O_R   0.499990 0.680320 0.618770 -0.505033
O7    O     O_R   0.500000 0.680360 0.381190 -0.504847
O8    O     O_R   0.620560 0.499970 0.618740 -0.509264
O9    O     O_R   0.620570 0.500010 0.381160 -0.503890
O10   O     O_3   0.492507 0.112547 0.868676 -0.544035

loop_
_geom_bond_atom_site_label_1
_geom_bond_atom_site_label_2
_ccdc_geom_bond_type
C1    O3    A    
C12   H23   S    
C16   O6    A    
C24   C42   S    
C35   C36   A    
C14   N2    A    
C17   H5    S    
C7    C8    S    
Cu2   O5    S    
Cu1   Cu2   S    
C31   H21   S    
C12   C23   S    
C26   C27   A    
C29   C30   A    
C34   C40   S    
C36   C37   A    
C4    O5    A    
C34   H31   S    
C5    C6    A    
C22   C41   T    
C10   C17   S    
C10   N1    A    
C1    C2    S    
C39   H28   S    
Cu1   O8    S    
C33   C35   A    
C20   C24   S    
C35   H24   S    
C2    C44   A    
C8    C9    S    
C40   H10   S    
C13   O2    S    
C25   H14   S    
C32   C38   A    
C5    H33   S    
C36   H25   S    
C9    H36   S    
C25   O10   S    
C15   H2    S    
C12   H1    S    
C19   C32   S    
C19   H12   S    
C1    O1    A    
C8    H35   S    
Cu1   O4    S    
C10   C14   A    
C21   H9    S    
Cu2   O7    S    
C11   C26   S    
C11   N1    A    
C7    C44   A    
Cu1   O1    S    
C37   C38   A    
C13   N2    A    
C30   C31   A    
C23   C34   S    
C25   H15   S    
C39   H30   S    
Cu1   O6    S    
C30   H20   S    
C27   H17   S    
C29   H19   S    
C28   H18   S    
C39   H29   S    
C21   C23   S    
C34   H13   S    
Cu1   N2    S    
C42   C43   T    
Cu2   O3    S    
C15   C17   S    
C28   C29   A    
C9    C44   S    
C40   H11   S    
C18   C22   S    
C20   H7    S    
C3    C5    A    
C17   H4    S    
C6    C7    A    
C4    O4    A    
C4    C43   S    
C23   C41   S    
C18   O8    A    
C32   C33   A    
C2    C3    A    
C20   H6    S    
C11   C13   A    
C21   H8    S    
Cu2   O9    S    
C12   C19   S    
C24   C40   S    
C19   C24   S    
C25   H16   S    
C15   H3    S    
C6    C16   S    
Cu2   N1    S    
C26   C31   A    
C20   C21   S    
C16   O7    A    
C37   H26   S    
C27   C28   A    
C8    H34   S    
C18   O9    A    
C14   C15   S    
C39   O2    S    
C3    H32   S    
C9    O10   S    
C33   H22   S    
C38   H27   S    
