data_mof_unit_55242.cif
_audit_creation_date              2012-12-10T17:52:40-0500
_audit_creation_method            fapswitch 2.2
_symmetry_space_group_name_H-M    P1
_symmetry_Int_Tables_number       1
_space_group_crystal_system       triclinic
_cell_length_a                    14.656348
_cell_length_b                    14.637567
_cell_length_c                    23.525824
_cell_angle_alpha                 76.633806
_cell_angle_beta                  102.791693
_cell_angle_gamma                 114.695077
_cell_volume                      4416.57079209

loop_
_atom_site_label
_atom_site_type_symbol
_atom_type_description
_atom_site_fract_x
_atom_site_fract_y
_atom_site_fract_z
_atom_type_partial_charge
C1    C     C_R   0.879977 0.311404 0.510656 0.819667
C2    C     C_R   0.120203 0.689095 0.491997 0.817884
C3    C     C_R   0.927437 0.532653 0.746025 -0.001468
C4    C     C_R   0.933086 0.531796 0.224414 0.005700
C5    C     C_R   0.927688 0.528733 0.686951 -0.228401
C6    C     C_R   0.931583 0.528352 0.284383 -0.227069
C7    C     C_R   0.999208 0.501739 0.671313 -0.062601
C8    C     C_R   0.002295 0.501727 0.328387 -0.060664
C9    C     C_R   0.070854 0.477517 0.715430 -0.167086
C10   C     C_R   0.075175 0.477775 0.312162 -0.177353
C11   C     C_R   0.071071 0.480221 0.774151 -0.099226
C12   C     C_R   0.076988 0.479793 0.253020 -0.094451
C13   C     C_R   0.000210 0.507470 0.789925 0.281200
C14   C     C_R   0.006606 0.506192 0.209023 0.280618
C15   C     C_R   0.811838 0.203074 0.525637 -0.229113
C16   C     C_R   0.187665 0.799494 0.493129 -0.237080
C17   C     C_R   0.776883 0.037581 0.589565 0.101844
C18   C     C_R   0.211749 0.979688 0.481519 0.105539
C19   C     C_R   0.846464 0.133625 0.567894 -0.072718
C20   C     C_R   0.146870 0.875606 0.485038 -0.064541
C21   C     C_R   0.707550 0.172140 0.503011 -0.087507
C22   C     C_R   0.294770 0.830025 0.504219 -0.061235
C23   C     C_R   0.999616 0.500140 0.609011 0.817441
C24   C     C_R   0.000585 0.500295 0.390953 0.821129
C25   C     C_R   0.636587 0.083739 0.531903 -0.003688
C26   C     C_R   0.357803 0.931546 0.512117 -0.005391
C27   C     C_R   0.672009 0.013696 0.573053 0.079266
C28   C     C_R   0.317724 0.007860 0.493352 0.083804
C29   C     C_R   0.530369 0.060870 0.519626 0.099304
C30   C     C_R   0.462259 0.960336 0.534928 0.089982
C31   C     C_R   0.498397 0.894101 0.577406 -0.201908
C32   C     C_R   0.489986 0.136319 0.498038 -0.207298
C33   C     C_R   0.601181 0.920752 0.596815 -0.147378
C34   C     C_R   0.385456 0.110554 0.487530 -0.151144
C35   C     C_R   0.705817 0.652012 0.391189 -0.141663
C36   C     C_R   0.294230 0.346169 0.607339 -0.139376
C37   C     C_R   0.792537 0.630111 0.412588 0.038782
C38   C     C_R   0.211186 0.374949 0.589374 0.035583
C39   C     C_R   0.714870 0.509965 0.491772 0.091501
C40   C     C_R   0.278584 0.479056 0.503306 0.051483
C41   C     C_R   0.624177 0.528236 0.473485 -0.026972
C42   C     C_R   0.367517 0.457306 0.519459 -0.044761
C43   C     C_R   0.621673 0.602984 0.423007 0.069548
C44   C     C_R   0.372259 0.385728 0.571222 0.091638
C45   C     C_R   0.081398 0.582951 0.119085 0.620651
C46   C     C_R   0.932219 0.425049 0.881566 0.598578
C47   C     C_R   0.537459 0.476604 0.504280 0.098284
C48   C     C_R   0.451723 0.504887 0.486527 0.068259
C49   C     C_R   0.454538 0.582306 0.437683 -0.221138
C50   C     C_R   0.533333 0.397093 0.552021 -0.220848
C51   C     C_R   0.537013 0.629691 0.406829 -0.100868
C52   C     C_R   0.453132 0.353292 0.584676 -0.121362
C53   C     C_R   0.939651 0.423667 0.122560 0.594837
C54   C     C_R   0.074007 0.584249 0.878238 0.610841
C55   C     C_R   0.936913 0.422631 0.062844 -0.020779
C56   C     C_R   0.078624 0.583560 0.938408 -0.026766
C57   C     C_R   0.009950 0.502794 0.031005 -0.007694
C58   C     C_R   0.005745 0.503216 0.970275 -0.010704
C59   C     C_R   0.086754 0.582456 0.059806 -0.082728
C60   C     C_R   0.928709 0.423759 0.941414 -0.074129
C61   C     C_R   0.860572 0.344653 0.034297 -0.181535
C62   C     C_R   0.155819 0.660744 0.967162 -0.180685
C63   C     C_R   0.853611 0.345452 0.973952 -0.037963
C64   C     C_R   0.162717 0.659934 0.027506 -0.036255
Cu1   Cu    Cu3+1 0.081740 0.475680 0.515360 1.004064
Cu2   Cu    Cu3+1 0.918260 0.524320 0.484640 1.003117
H1    H     H_    0.802765 0.284528 0.058533 0.211361
H2    H     H_    0.213793 0.720690 0.942964 0.209229
H3    H     H_    0.446685 0.823816 0.598827 0.197108
H4    H     H_    0.538397 0.216216 0.493600 0.173171
H5    H     H_    0.534593 0.690550 0.371140 0.196674
H6    H     H_    0.454963 0.292156 0.620314 0.185576
H7    H     H_    0.266502 0.528467 0.463404 0.133608
H8    H     H_    0.724161 0.456314 0.530104 0.124354
H9    H     H_    0.151481 0.346753 0.616542 0.175307
H10   H     H_    0.857425 0.665951 0.388925 0.167833
H11   H     H_    0.394575 0.610080 0.422477 0.170501
H12   H     H_    0.591119 0.366078 0.565385 0.137843
H13   H     H_    0.872744 0.548263 0.652852 0.199460
H14   H     H_    0.875919 0.548022 0.296786 0.194221
H15   H     H_    0.126709 0.456223 0.704658 0.173775
H16   H     H_    0.130710 0.457146 0.345147 0.168007
H17   H     H_    0.126343 0.460503 0.807838 0.156740
H18   H     H_    0.133106 0.460169 0.241156 0.160380
H19   H     H_    0.623526 0.866763 0.630224 0.186906
H20   H     H_    0.359379 0.172248 0.473271 0.178757
N1    N     N_R   0.009530 0.503993 0.148815 -0.456151
N2    N     N_R   0.001584 0.506044 0.851279 -0.453880
N3    N     N_R   0.795430 0.560810 0.461550 -0.182052
N4    N     N_R   0.204570 0.439190 0.538450 -0.175071
O1    O     O_R   0.977900 0.338110 0.520250 -0.563843
O2    O     O_R   0.022100 0.661890 0.479750 -0.569820
O3    O     O_R   0.839850 0.379180 0.494310 -0.544562
O4    O     O_R   0.160150 0.620820 0.505690 -0.547029
O5    O     O_R   0.069020 0.479430 0.595090 -0.588007
O6    O     O_R   0.930980 0.520570 0.404910 -0.583681
O7    O     O_R   0.930970 0.520500 0.569150 -0.582463
O8    O     O_R   0.069030 0.479500 0.430850 -0.588550
O9    O     O_2   0.144159 0.662922 0.146437 -0.485872
O10   O     O_2   0.869262 0.345576 0.853862 -0.498879
O11   O     O_2   0.871788 0.346019 0.154055 -0.508039
O12   O     O_2   0.141579 0.662269 0.846750 -0.508345
I1    I     I_    0.833297 0.928987 0.646924 -0.188434
I2    I     I_    0.147676 0.093341 0.463034 -0.247561
C65   C     C_2   0.704967 0.722157 0.334418 0.848032
O13   O     O_2   0.781305 0.797620 0.323965 -0.546731
O14   O     O_R   0.618965 0.699465 0.291620 -0.734818
H21   H     H_    0.628530 0.752347 0.254632 0.361686
C66   C     C_2   0.298565 0.279480 0.665153 0.829416
O15   O     O_2   0.221427 0.208916 0.679797 -0.542677
O16   O     O_R   0.389418 0.299982 0.704100 -0.735810
H22   H     H_    0.382060 0.249841 0.742248 0.356590
C67   C     C_2   0.762122 0.267352 0.946665 0.947737
O17   O     O_2   0.738301 0.177532 0.968330 -0.553849
O18   O     O_R   0.700261 0.296999 0.898112 -0.697685
H23   H     H_    0.639319 0.236975 0.883995 0.353685
C68   C     C_2   0.254461 0.737560 0.054994 0.945631
O19   O     O_2   0.280120 0.827245 0.032741 -0.547947
O20   O     O_R   0.314440 0.707516 0.104511 -0.707507
H24   H     H_    0.375762 0.767196 0.118679 0.356846
C69   C     C_2   0.851723 0.564163 0.760325 0.913656
O21   O     O_2   0.776873 0.562882 0.724420 -0.565099
O22   O     O_R   0.865976 0.596980 0.814101 -0.739715
H25   H     H_    0.809060 0.616167 0.818194 0.357521
C70   C     C_2   0.858432 0.563381 0.179217 0.898204
O23   O     O_2   0.782512 0.561689 0.193747 -0.561156
O24   O     O_R   0.874955 0.596854 0.120306 -0.748310
H26   H     H_    0.818573 0.616070 0.094253 0.355000
C71   C     C_2   0.343782 0.764418 0.495595 0.866105
O25   O     O_2   0.375316 0.779434 0.448953 -0.583821
O26   O     O_R   0.358652 0.689899 0.541494 -0.756506
H27   H     H_    0.406052 0.661783 0.533254 0.328080
C72   C     C_2   0.676561 0.214182 0.441284 0.866169
O27   O     O_2   0.653224 0.162301 0.402432 -0.534120
O28   O     O_R   0.670491 0.309842 0.427627 -0.758998
H28   H     H_    0.647554 0.328205 0.384148 0.346705
C73   C     C_2   0.036737 0.848844 0.480536 0.931305
O29   O     O_2   0.994348 0.807703 0.524362 -0.558794
O30   O     O_R   0.981878 0.871568 0.426425 -0.704242
H29   H     H_    0.907808 0.851582 0.429366 0.353035
C74   C     C_2   0.955417 0.158028 0.588824 0.927884
O31   O     O_2   0.990443 0.175575 0.639187 -0.557721
O32   O     O_R   0.017037 0.157915 0.551266 -0.703268
H30   H     H_    0.089140 0.170975 0.571167 0.349914

loop_
_geom_bond_atom_site_label_1
_geom_bond_atom_site_label_2
_ccdc_geom_bond_type
C2    O4    A    
O16   H22   S    
O22   H25   S    
C39   C41   A    
C27   C33   A    
C15   C19   A    
C65   O14   S    
C59   C64   A    
C51   H5    S    
C4    C70   S    
C60   C63   A    
C24   O8    A    
Cu2   O7    S    
C45   N1    A    
Cu1   O8    S    
C67   O17   D    
C29   C32   A    
C24   O6    A    
C30   C31   A    
C7    C23   S    
C57   C59   A    
C58   C60   A    
O18   H23   S    
C40   H7    S    
C12   H18   S    
Cu1   O1    S    
C34   H20   S    
C39   H8    S    
C61   C63   A    
C33   H19   S    
C62   C64   A    
C66   O16   S    
C17   C19   A    
C53   O11   S    
C49   C51   A    
C50   C52   A    
O14   H21   S    
C31   C33   A    
C1    C15   S    
C56   C58   A    
C47   C50   A    
C2    C16   S    
C3    C13   A    
C46   C60   A    
C44   C52   A    
C40   C42   A    
C28   C34   A    
C1    O1    A    
C41   C43   A    
C42   C44   A    
C50   H12   S    
C21   C72   S    
Cu2   N3    S    
C46   N2    A    
C38   H9    S    
C53   C55   A    
C25   C29   A    
Cu1   N4    S    
C54   C56   A    
C17   C27   A    
O28   H28   S    
C18   C28   A    
C4    C6    A    
C21   C25   A    
C45   O9    S    
C5    C7    A    
C32   H4    S    
Cu2   O2    S    
C11   H17   S    
C10   H16   S    
C1    O3    A    
C64   C68   S    
C49   H11   S    
C74   O32   S    
C32   C34   A    
C20   C73   S    
C29   C30   A    
C52   H6    S    
C70   O24   S    
C73   O30   S    
C61   H1    S    
C6    H14   S    
C47   C48   A    
Cu1   O5    S    
C16   C20   A    
C41   C47   A    
C53   N1    A    
C42   C48   A    
C71   O26   S    
O20   H24   S    
C2    O2    A    
C9    C11   A    
C69   O21   D    
C10   C12   A    
Cu2   O3    S    
C8    C10   A    
Cu1   O4    S    
C23   O7    A    
C37   H10   S    
C12   C14   A    
C26   C30   A    
C55   C57   A    
C22   C71   S    
C72   O27   D    
C56   C62   A    
C36   C44   A    
C5    H13   S    
O26   H27   S    
C35   C43   A    
Cu2   O6    S    
C71   O25   D    
C73   O29   D    
C7    C9    A    
C46   O10   S    
C45   C59   A    
C16   C22   A    
C35   C37   A    
C54   O12   S    
C18   I2    S    
C3    C5    A    
C14   N1    S    
C6    C8    A    
O30   H29   S    
O24   H26   S    
C62   H2    S    
C25   C27   A    
C65   O13   D    
C38   N4    A    
C26   C28   A    
C37   N3    A    
C68   O20   S    
C17   I1    S    
C74   O31   D    
C54   N2    A    
C11   C13   A    
C43   C51   A    
C57   C58   A    
C70   O23   D    
C15   C21   A    
C48   C49   A    
C55   C61   A    
C13   N2    S    
C36   C38   A    
C8    C24   S    
C23   O5    A    
C18   C20   A    
C4    C14   A    
C69   O22   S    
C63   C67   S    
C3    C69   S    
C31   H3    S    
C19   C74   S    
Cu1   Cu2   S    
C22   C26   A    
C66   O15   D    
C36   C66   S    
C72   O28   S    
C35   C65   S    
C40   N4    A    
C68   O19   D    
C39   N3    A    
O32   H30   S    
C9    H15   S    
C67   O18   S    
