data_mof_unit_48854.cif
_audit_creation_date              2012-10-26T20:05:04-0400
_audit_creation_method            fapswitch 2.2
_symmetry_space_group_name_H-M    P1
_symmetry_Int_Tables_number       1
_space_group_crystal_system       triclinic
_cell_length_a                    15.856214
_cell_length_b                    14.997591
_cell_length_c                    13.829428
_cell_angle_alpha                 89.86397
_cell_angle_beta                  89.995233
_cell_angle_gamma                 87.699654
_cell_volume                      3286.04783953

loop_
_atom_site_label
_atom_site_type_symbol
_atom_type_description
_atom_site_fract_x
_atom_site_fract_y
_atom_site_fract_z
_atom_type_partial_charge
C1    C     C_R   0.500676 0.329236 0.500058 0.544376
C2    C     C_R   0.500071 0.046804 0.499915 -0.011089
C3    C     C_R   0.429003 0.909464 0.463594 0.037622
C4    C     C_R   0.570996 0.090536 0.536407 0.037622
C5    C     C_R   0.632737 0.946924 0.591016 -0.014361
C6    C     C_R   0.367263 0.053076 0.408984 -0.014363
C7    C     C_R   0.633116 0.041071 0.590450 -0.010698
C8    C     C_R   0.366883 0.958929 0.409551 -0.010698
C9    C     C_R   0.561072 0.451815 0.795970 0.119589
C10   C     C_R   0.438928 0.548185 0.204030 0.119588
C11   C     C_R   0.439021 0.548345 0.795629 0.135299
C12   C     C_R   0.499323 0.670764 0.499942 0.544376
C13   C     C_R   0.560979 0.451655 0.204371 0.135299
C14   C     C_R   0.428806 0.532321 0.897002 0.008218
C15   C     C_R   0.571194 0.467679 0.102998 0.008218
C16   C     C_R   0.340048 0.500338 0.499989 0.532056
C17   C     C_R   0.659952 0.499662 0.500011 0.532057
C18   C     C_R   0.500013 0.500048 0.948726 -0.003374
C19   C     C_R   0.499987 0.499951 0.051274 -0.003374
C20   C     C_R   0.571258 0.467887 0.897244 0.008760
C21   C     C_R   0.428742 0.532113 0.102756 0.008760
C22   C     C_R   0.351395 0.547217 0.948125 0.015191
C23   C     C_R   0.499540 0.767393 0.499999 0.021539
C24   C     C_R   0.648605 0.452783 0.051875 0.015191
C25   C     C_R   0.351347 0.547021 0.051468 0.015160
C26   C     C_R   0.648653 0.452979 0.948532 0.015161
C27   C     C_3   0.974018 0.447872 0.572020 0.025128
C28   C     C_3   0.025982 0.552128 0.427980 0.025128
C29   C     C_3   0.031361 0.416561 0.487303 0.026730
C30   C     C_3   0.968639 0.583439 0.512697 0.026730
C31   C     C_1   0.250619 0.500393 0.500002 -0.050125
C32   C     C_1   0.749381 0.499607 0.499997 -0.050125
C33   C     C_3   0.026744 0.531481 0.584752 0.026613
C34   C     C_R   0.500459 0.232607 0.500001 0.021539
C35   C     C_3   0.973256 0.468519 0.415248 0.026613
C36   C     C_3   0.083689 0.500175 0.500035 0.050748
C37   C     C_3   0.916311 0.499824 0.499965 0.050748
C38   C     C_1   0.175223 0.500340 0.500024 -0.062746
C39   C     C_1   0.824777 0.499660 0.499976 -0.062746
C40   C     C_R   0.424448 0.816861 0.480553 0.005638
C41   C     C_R   0.575551 0.183139 0.519448 0.005636
C42   C     C_3   0.067969 0.322192 0.472942 -0.406604
C43   C     C_3   0.932031 0.677808 0.527058 -0.406604
C44   C     C_3   0.267703 0.552191 0.894297 -0.404904
C45   C     C_R   0.574739 0.809896 0.520454 0.010293
C46   C     C_3   0.732297 0.447808 0.105703 -0.404904
C47   C     C_3   0.267584 0.551577 0.105133 -0.401379
C48   C     C_3   0.732416 0.448423 0.894868 -0.401379
C49   C     C_3   0.943502 0.388974 0.653534 -0.404099
C50   C     C_3   0.056498 0.611026 0.346466 -0.404099
C51   C     C_3   0.941931 0.432972 0.319333 -0.406610
C52   C     C_3   0.058069 0.567027 0.680667 -0.406610
C53   C     C_3   0.340810 0.771601 0.488408 -0.363266
C54   C     C_3   0.659190 0.228399 0.511596 -0.363269
C55   C     C_3   0.657927 0.756222 0.515745 -0.352550
C56   C     C_R   0.425261 0.190104 0.479544 0.010292
C57   C     C_3   0.342073 0.243779 0.484251 -0.352551
C58   C     C_2   0.687801 0.896646 0.661338 0.216158
C59   C     C_2   0.312199 0.103354 0.338661 0.216158
C60   C     C_2   0.689258 0.086600 0.659417 0.214377
C61   C     C_2   0.310739 0.913399 0.340587 0.214376
C62   C     C_3   0.603504 0.368811 0.753564 -0.312569
C63   C     C_3   0.396496 0.631189 0.246436 -0.312568
C64   C     C_3   0.397510 0.631998 0.752918 -0.332013
C65   C     C_3   0.602489 0.368001 0.247082 -0.332012
C66   C     C_R   0.570594 0.902989 0.536984 0.035773
C67   C     C_R   0.429405 0.097011 0.463015 0.035773
C68   C     C_R   0.499928 0.953196 0.500085 -0.011090
Cu1   Cu    Cu3+1 0.500010 0.499990 0.597420 0.923126
Cu2   Cu    Cu3+1 0.499990 0.500010 0.402580 0.923125
H1    H     H_    0.015943 0.275323 0.465838 0.126991
H2    H     H_    0.725726 0.460079 0.184268 0.131448
H3    H     H_    0.764549 0.381613 0.094234 0.128920
H4    H     H_    0.773618 0.500909 0.080284 0.129975
H5    H     H_    0.274064 0.538471 0.183607 0.133733
H6    H     H_    0.235407 0.617914 0.094015 0.132002
H7    H     H_    0.226242 0.498771 0.079309 0.132472
H8    H     H_    0.764593 0.382086 0.905984 0.132001
H9    H     H_    0.725935 0.461529 0.816393 0.133733
H10   H     H_    0.773758 0.501230 0.920692 0.132472
H11   H     H_    0.998546 0.359987 0.693920 0.131078
H12   H     H_    0.107139 0.319483 0.406425 0.138209
H13   H     H_    0.902804 0.429365 0.703528 0.131547
H14   H     H_    0.906667 0.334291 0.623045 0.131825
H15   H     H_    0.001454 0.640013 0.306080 0.131078
H16   H     H_    0.093333 0.665709 0.376955 0.131826
H17   H     H_    0.097196 0.570635 0.296472 0.131547
H18   H     H_    0.996573 0.415576 0.271922 0.131926
H19   H     H_    0.905322 0.372553 0.332268 0.128523
H20   H     H_    0.900812 0.484659 0.283314 0.130507
H21   H     H_    0.003427 0.584424 0.728078 0.131926
H22   H     H_    0.099188 0.515341 0.716686 0.130507
H23   H     H_    0.107817 0.302430 0.536010 0.129890
H24   H     H_    0.094678 0.627447 0.667732 0.128523
H25   H     H_    0.339957 0.730210 0.555017 0.105105
H26   H     H_    0.286692 0.820340 0.495294 0.117213
H27   H     H_    0.331381 0.727846 0.425265 0.159366
H28   H     H_    0.660044 0.269789 0.444987 0.105107
H29   H     H_    0.668617 0.272155 0.574739 0.159361
H30   H     H_    0.713309 0.179660 0.504713 0.117211
H31   H     H_    0.659895 0.714654 0.449353 0.123839
H32   H     H_    0.712948 0.799311 0.510344 0.110804
H33   H     H_    0.664872 0.711461 0.579537 0.183786
H34   H     H_    0.984057 0.724677 0.534162 0.126992
H35   H     H_    0.340104 0.285347 0.550643 0.123839
H36   H     H_    0.335128 0.288539 0.420459 0.183786
H37   H     H_    0.287051 0.200690 0.489654 0.110803
H38   H     H_    0.753405 0.912710 0.670104 0.077384
H39   H     H_    0.246594 0.087291 0.329896 0.077383
H40   H     H_    0.754816 0.064481 0.667452 0.078407
H41   H     H_    0.245182 0.935521 0.332552 0.078411
H42   H     H_    0.555007 0.322233 0.730822 0.184236
H43   H     H_    0.646400 0.384137 0.693652 0.149791
H44   H     H_    0.640847 0.329993 0.808093 0.130386
H45   H     H_    0.892183 0.697570 0.463990 0.129890
H46   H     H_    0.444993 0.677767 0.269178 0.184235
H47   H     H_    0.359153 0.670007 0.191907 0.130387
H48   H     H_    0.353600 0.615863 0.306349 0.149793
H49   H     H_    0.355719 0.617857 0.691597 0.148421
H50   H     H_    0.359382 0.670414 0.806881 0.096633
H51   H     H_    0.446718 0.678490 0.731693 0.172794
H52   H     H_    0.640618 0.329586 0.193119 0.096633
H53   H     H_    0.644280 0.382142 0.308404 0.148422
H54   H     H_    0.553281 0.321510 0.268307 0.172794
H55   H     H_    0.892861 0.680517 0.593575 0.138209
H56   H     H_    0.235450 0.618387 0.905766 0.128920
H57   H     H_    0.274274 0.539920 0.815732 0.131448
H58   H     H_    0.226382 0.499091 0.919716 0.129975
N1    N     N_R   0.499960 0.499930 0.743810 -0.213734
N2    N     N_R   0.500040 0.500070 0.256190 -0.213734
O1    O     O_R   0.500020 0.370250 0.582280 -0.508741
O2    O     O_2   0.340798 0.161551 0.287778 -0.492780
O3    O     O_2   0.661638 0.147677 0.710005 -0.517917
O4    O     O_2   0.338356 0.852320 0.290003 -0.517922
O5    O     O_R   0.499980 0.629750 0.417720 -0.508742
O6    O     O_R   0.500010 0.370270 0.417740 -0.503265
O7    O     O_R   0.499990 0.629730 0.582260 -0.503264
O8    O     O_R   0.379080 0.499980 0.582260 -0.504830
O9    O     O_R   0.620920 0.500020 0.417740 -0.504830
O10   O     O_R   0.379070 0.500000 0.417710 -0.501943
O11   O     O_R   0.620930 0.500000 0.582290 -0.501943
O12   O     O_2   0.659204 0.838447 0.712219 -0.492781

loop_
_geom_bond_atom_site_label_1
_geom_bond_atom_site_label_2
_ccdc_geom_bond_type
C57   H35   S    
C44   H57   S    
C34   C56   A    
C23   C45   A    
C29   C42   S    
C53   H25   S    
C42   H23   S    
C44   H58   S    
C14   C18   A    
C66   C68   A    
C3    C68   A    
C42   H12   S    
C43   H55   S    
C13   C65   S    
C27   C33   S    
C16   C31   S    
Cu2   O10   S    
C29   C36   S    
C44   H56   S    
C64   H49   S    
C5    C58   S    
C49   H14   S    
C35   C37   S    
C24   C26   A    
C47   H6    S    
C62   H44   S    
C2    C68   A    
C51   H20   S    
C63   H47   S    
C11   C14   A    
C65   H54   S    
C27   C29   S    
C4    C41   A    
Cu1   O11   S    
C23   C40   A    
C55   H33   S    
Cu2   N2    S    
C33   C36   S    
C56   C57   S    
C18   C20   A    
C17   O11   A    
C18   C19   A    
C32   C39   T    
C49   H11   S    
C43   H34   S    
C50   H15   S    
C43   H45   S    
C15   C19   A    
C28   C50   S    
C22   C44   S    
C10   C63   S    
C28   C35   S    
C12   O5    A    
C61   O4    D    
C13   N2    A    
C52   H24   S    
C1    O6    A    
C25   C47   S    
C46   H2    S    
C26   C48   S    
C8    C61   S    
C57   H36   S    
Cu2   O9    S    
C53   H26   S    
Cu2   O6    S    
C54   H30   S    
C16   O10   A    
C34   C41   A    
C4    C7    A    
C64   H51   S    
C11   N1    A    
C1    C34   S    
C10   C21   A    
Cu1   O7    S    
C59   O2    D    
C9    C62   S    
C62   H43   S    
C3    C8    A    
C12   C23   S    
C5    C7    A    
C63   H48   S    
C6    C8    A    
C53   H27   S    
C22   C25   A    
C30   C37   S    
C33   C52   S    
C2    C4    A    
C10   N2    A    
C58   O12   D    
C9    C20   A    
C55   H32   S    
Cu1   O1    S    
C17   O9    A    
C65   H52   S    
C45   C55   S    
C50   H17   S    
C63   H46   S    
C15   C24   A    
C57   H37   S    
C3    C40   A    
C11   C64   S    
C13   C15   A    
C35   C51   S    
Cu2   O5    S    
C54   H29   S    
C52   H22   S    
C47   H7    S    
C61   H41   S    
C48   H8    S    
C7    C60   S    
C46   H4    S    
C48   H9    S    
Cu1   O8    S    
C21   C25   A    
C6    C67   A    
C30   C33   S    
C19   C21   A    
C6    C59   S    
C16   O8    A    
C5    C66   A    
C1    O1    A    
C51   H18   S    
C9    N1    A    
C56   C67   A    
C29   C35   S    
C64   H50   S    
C31   C38   T    
C24   C46   S    
C14   C22   A    
C28   C30   S    
C47   H5    S    
C37   C39   S    
C48   H10   S    
C51   H19   S    
C49   H13   S    
C20   C26   A    
C27   C37   S    
C55   H31   S    
C36   C38   S    
C42   H1    S    
C59   H39   S    
C58   H38   S    
C65   H53   S    
Cu1   Cu2   S    
C30   C43   S    
C41   C54   S    
C60   H40   S    
C50   H16   S    
C2    C67   A    
C62   H42   S    
C28   C36   S    
Cu1   N1    S    
C40   C53   S    
C45   C66   A    
C17   C32   S    
C12   O7    A    
C54   H28   S    
C52   H21   S    
C60   O3    D    
C46   H3    S    
C27   C49   S    
