data_mof_unit_17114.cif
_audit_creation_date              2012-12-11T16:35:21-0500
_audit_creation_method            fapswitch 2.2
_symmetry_space_group_name_H-M    P1
_symmetry_Int_Tables_number       1
_space_group_crystal_system       triclinic
_cell_length_a                    6.927322
_cell_length_b                    17.761386
_cell_length_c                    19.445524
_cell_angle_alpha                 109.022677
_cell_angle_beta                  90.638367
_cell_angle_gamma                 90.725425
_cell_volume                      2261.42014399

loop_
_atom_site_label
_atom_site_type_symbol
_atom_type_description
_atom_site_fract_x
_atom_site_fract_y
_atom_site_fract_z
_atom_type_partial_charge
O1    O     O_R   0.505700 0.440210 0.561730 -0.546184
O2    O     O_R   0.169350 0.406300 0.412660 -0.539957
O3    O     O_R   0.005650 0.559790 0.438270 -0.549793
C1    C     C_R   0.337333 0.382609 0.385176 0.693776
O4    O     O_R   0.175560 0.430650 0.559600 -0.542565
O5    O     O_R   0.011900 0.584320 0.586250 -0.537722
C2    C     C_R   0.344675 0.415942 0.581344 0.677453
O6    O     O_R   0.499450 0.415680 0.413750 -0.535443
O7    O     O_3   0.341370 0.550390 0.508570 -0.358837
V1    V     V_3+5 0.063940 0.490650 0.498410 1.412389
O8    O     O_R   0.682570 0.593700 0.587340 -0.538239
C3    C     C_R   0.853120 0.615896 0.615350 0.688250
O9    O     O_R   0.676370 0.569350 0.440400 -0.513342
C4    C     C_R   0.845064 0.585686 0.419837 0.726725
V2    V     V_3+5 0.564750 0.509350 0.501590 1.439972
O10   O     O_3   0.837190 0.449610 0.491430 -0.372020
C5    C     C_R   0.023620 0.676702 0.280257 -0.233312
H1    H     H_    0.146511 0.669118 0.244810 0.134557
C6    C     C_R   0.013183 0.631785 0.327147 -0.244853
H2    H     H_    0.128795 0.591120 0.326619 0.145384
C7    C     C_R   0.854498 0.637363 0.372704 -0.116959
C8    C     C_R   0.706044 0.691605 0.372155 0.230593
C9    C     C_R   0.717447 0.737902 0.324742 0.252472
C10   C     C_R   0.876421 0.729279 0.277468 0.014967
C11   C     C_R   0.731373 0.780654 0.181781 -0.095820
H3    H     H_    0.596542 0.750164 0.184177 0.124373
C12   C     C_R   0.743184 0.826221 0.135191 -0.192907
H4    H     H_    0.616305 0.830513 0.103725 0.117218
C13   C     C_R   0.916802 0.865208 0.128870 -0.044882
C14   C     C_R   0.078716 0.857024 0.169996 -0.160445
H5    H     H_    0.214588 0.886346 0.166542 0.120467
C15   C     C_R   0.065665 0.812758 0.217747 -0.169656
H6    H     H_    0.191398 0.809497 0.250101 0.119893
C16   C     C_R   0.891195 0.774730 0.224936 0.132145
C17   C     C_R   0.055317 0.895703 0.743622 0.368682
C18   C     C_R   0.148367 0.897895 0.679960 0.288402
C19   C     C_R   0.136225 0.831017 0.617687 -0.220102
C20   C     C_R   0.043653 0.761964 0.619060 -0.234562
C21   C     C_R   0.964849 0.755695 0.683769 0.020857
C22   C     C_R   0.976357 0.822800 0.748455 -0.057453
C23   C     C_R   0.869322 0.684580 0.683670 -0.129399
C24   C     C_R   0.793399 0.678539 0.749061 0.073418
C25   C     C_R   0.811818 0.743874 0.814714 0.021340
C26   C     C_R   0.902705 0.816125 0.814790 -0.161205
C27   C     C_R   0.703595 0.607161 0.750844 -0.224880
C28   C     C_R   0.632699 0.600380 0.815328 -0.131617
C29   C     C_R   0.651813 0.663845 0.880242 0.353301
C30   C     C_R   0.740642 0.734881 0.879741 -0.216619
H7    H     H_    0.192325 0.832837 0.566591 0.144717
H8    H     H_    0.034595 0.713744 0.567994 0.141497
H9    H     H_    0.688023 0.555381 0.702641 0.126183
H10   H     H_    0.562332 0.545306 0.814563 0.130151
H11   H     H_    0.755520 0.782223 0.931295 0.099859
H12   H     H_    0.086179 0.453376 0.178166 0.141202
C31   C     C_R   0.489733 0.231007 0.384780 -0.129920
C32   C     C_R   0.574848 0.160972 0.386472 -0.119950
C33   C     C_R   0.609049 0.099819 0.322063 -0.117867
C34   C     C_R   0.558122 0.108072 0.255406 -0.154093
C35   C     C_R   0.473782 0.178852 0.251738 0.054205
C36   C     C_R   0.438372 0.241694 0.317964 0.079814
C37   C     C_R   0.425753 0.187672 0.183651 -0.191598
C38   C     C_R   0.346789 0.261014 0.182387 -0.023243
C39   C     C_R   0.296754 0.320898 0.248828 0.020972
C40   C     C_R   0.349114 0.312810 0.316736 -0.164846
C41   C     C_R   0.324332 0.278532 0.116323 0.454290
C42   C     C_R   0.224247 0.346073 0.115246 -0.186991
C43   C     C_R   0.160453 0.400554 0.179430 -0.217077
C44   C     C_R   0.201146 0.389630 0.245695 -0.153766
H13   H     H_    0.462929 0.276216 0.436452 0.095775
H14   H     H_    0.613624 0.153987 0.438118 0.113638
H15   H     H_    0.675620 0.045644 0.323713 0.111471
H16   H     H_    0.587468 0.058605 0.206964 0.102817
H17   H     H_    0.203432 0.357916 0.064475 0.133841
H18   H     H_    0.156392 0.435741 0.294277 0.122752
C45   C     C_R   0.534597 0.283682 0.685118 -0.147735
H19   H     H_    0.665565 0.251565 0.686388 0.103018
C46   C     C_R   0.523897 0.327697 0.637193 -0.174258
H20   H     H_    0.647583 0.329197 0.604035 0.122520
C47   C     C_R   0.354790 0.368167 0.631263 -0.051562
C48   C     C_R   0.197087 0.364124 0.674811 -0.158771
H21   H     H_    0.065490 0.395451 0.672172 0.118314
C49   C     C_R   0.208959 0.321403 0.723797 -0.141930
H22   H     H_    0.086228 0.321971 0.757879 0.100198
C50   C     C_R   0.377730 0.280172 0.729602 0.091389
C51   C     C_R   0.224117 0.196776 0.798416 -0.161138
H23   H     H_    0.084557 0.201404 0.774722 0.102443
C52   C     C_R   0.236400 0.151707 0.845338 -0.149891
H24   H     H_    0.105592 0.125711 0.857931 0.148365
C53   C     C_R   0.414982 0.138909 0.874302 -0.026891
C54   C     C_R   0.579448 0.177805 0.859315 -0.182197
H25   H     H_    0.718202 0.173375 0.883502 0.101067
C55   C     C_R   0.567115 0.224328 0.813549 -0.143211
H26   H     H_    0.697067 0.253855 0.804294 0.097446
C56   C     C_R   0.389767 0.233282 0.781107 0.095739
O11   O     O_R   0.273230 0.084330 0.086440 -0.536013
O12   O     O_R   0.596660 0.069390 0.940470 -0.555331
O13   O     O_R   0.760270 0.915710 0.913690 -0.546472
C57   C     C_R   0.427193 0.085936 0.920098 0.774220
O14   O     O_R   0.603330 0.093680 0.087390 -0.539069
O15   O     O_R   0.766990 0.940160 0.061660 -0.549478
C58   C     C_R   0.435573 0.117388 0.115173 0.784297
O16   O     O_R   0.266510 0.059870 0.938470 -0.515520
O17   O     O_3   0.431050 0.949630 0.991510 -0.379960
V3    V     V_3+5 0.708490 0.009340 0.001580 1.416452
O18   O     O_R   0.096270 0.930570 0.059390 -0.548466
C59   C     C_R   0.927500 0.915056 0.080595 0.666816
O19   O     O_R   0.089600 0.906290 0.912460 -0.525069
C60   C     C_R   0.919005 0.883773 0.884428 0.802241
V4    V     V_3+5 0.207670 0.990600 0.998190 1.468484
O20   O     O_3   0.935250 0.050360 0.008480 -0.366706
O21   O     O_3   0.030741 0.966555 0.798921 -0.569941
C61   C     C_3   0.853017 0.997976 0.786197 -0.307561
H27   H     H_    0.730438 0.954934 0.779973 0.137021
H28   H     H_    0.860304 0.018765 0.738140 0.147030
H29   H     H_    0.822713 0.049610 0.834137 0.170141
N1    N     N_2   0.241192 0.969434 0.677530 -0.512041
H30   H     H_    0.236688 0.017266 0.724736 0.291332
C62   C     C_3   0.428852 0.961184 0.643912 -0.576689
H31   H     H_    0.495758 0.021040 0.653700 0.200382
H32   H     H_    0.414703 0.932147 0.584206 0.200549
H33   H     H_    0.525511 0.926065 0.667364 0.193042
O22   O     O_3   0.415494 0.234431 0.053692 -0.573205
C63   C     C_3   0.603153 0.267125 0.055029 -0.260548
H34   H     H_    0.683319 0.273235 0.106650 0.137802
H35   H     H_    0.597161 0.325679 0.045841 0.140171
H36   H     H_    0.687690 0.226492 0.010738 0.163478
N2    N     N_2   0.550619 0.701554 0.421633 -0.506265
H37   H     H_    0.415255 0.707277 0.401744 0.248450
C64   C     C_3   0.590624 0.756320 0.493881 -0.501046
H38   H     H_    0.600438 0.818311 0.492788 0.183177
H39   H     H_    0.727782 0.741292 0.515919 0.183797
H40   H     H_    0.473260 0.751765 0.530693 0.194546
N3    N     N_2   0.573144 0.794918 0.325997 -0.543965
H41   H     H_    0.432018 0.780475 0.332870 0.247005
C65   C     C_3   0.625735 0.877953 0.360830 -0.535286
H42   H     H_    0.555355 0.900981 0.414507 0.184111
H43   H     H_    0.574691 0.912628 0.326151 0.199974
H44   H     H_    0.784604 0.886981 0.368934 0.200452
N4    N     N_2   0.577120 0.657160 0.945980 -0.522732
H45   H     H_    0.555121 0.710942 0.986074 0.248850
C66   C     C_3   0.675478 0.601083 0.973308 -0.554290
H46   H     H_    0.604288 0.598846 0.023516 0.196984
H47   H     H_    0.828724 0.620076 0.986661 0.199461
H48   H     H_    0.668917 0.540328 0.932663 0.200782

loop_
_geom_bond_atom_site_label_1
_geom_bond_atom_site_label_2
_ccdc_geom_bond_type
C65   H44   S    
C14   C15   A    
C52   H24   S    
C12   C13   A    
C23   C24   A    
O2    C1    A    
C17   C18   A    
C1    O6    A    
C61   H28   S    
C8    N2    S    
C65   H42   S    
C21   C23   A    
C46   H20   S    
N1    H30   S    
C13   C14   A    
C4    C7    S    
C18   C19   A    
C6    C7    A    
C19   C20   A    
C66   H47   S    
C51   H23   S    
C20   C21   A    
C45   C50   A    
C63   H35   S    
C27   H9    S    
C44   H18   S    
V2    O10   S    
C28   H10   S    
O15   V3    S    
C32   C33   A    
C62   H31   S    
C28   C29   A    
O13   C60   A    
O8    V2    S    
O21   C61   S    
O12   C57   A    
O19   C60   A    
O1    V2    S    
O9    C4    A    
C25   C30   A    
C11   C16   A    
C64   H40   S    
C51   C52   A    
C42   C43   A    
C35   C36   A    
C31   C36   A    
O19   V4    S    
O5    C3    A    
C61   H27   S    
C26   C60   S    
C30   H11   S    
C35   C37   A    
C5    C10   A    
C9    N3    S    
C43   C44   A    
C63   H34   S    
C48   C49   A    
O11   V4    S    
C66   H48   S    
C53   C54   A    
C21   C22   A    
O4    C2    A    
C63   H36   S    
H12   C43   S    
C34   C35   A    
C57   O16   A    
C42   H17   S    
C10   C16   S    
C47   C48   A    
C24   C27   A    
C15   C16   A    
C37   C58   S    
C45   H19   S    
N2    C64   S    
C38   C39   A    
C19   H7    S    
C51   C56   A    
C54   C55   A    
C29   C30   A    
C9    C10   A    
C31   C32   A    
C55   C56   A    
C5    H1    S    
C46   C47   A    
C50   C56   S    
C41   O22   S    
C33   H15   S    
C45   C46   A    
C31   H13   S    
O3    C4    A    
O14   C58   A    
C41   C42   A    
O6    V2    S    
C32   H14   S    
O9    V2    S    
C25   C26   A    
N3    H41   S    
C13   C59   S    
C29   N4    S    
C24   C25   A    
C54   H25   S    
N2    H37   S    
C18   N1    S    
O17   V3    S    
C17   O21   S    
C3    C23   S    
C2    C47   S    
C64   H38   S    
O7    V1    S    
C65   H43   S    
O18   V4    S    
C39   C44   A    
C38   C41   A    
O1    C2    A    
O15   C59   A    
C48   H21   S    
O5    V1    S    
N4    H45   S    
C20   H8    S    
C11   C12   A    
O18   C59   A    
C1    C40   S    
C49   C50   A    
C36   C40   A    
C53   C57   S    
O17   V4    S    
C15   H6    S    
C6    H2    S    
O12   V3    S    
C17   C22   A    
C11   H3    S    
O4    V1    S    
O3    V1    S    
V1    O10   S    
C66   H46   S    
V3    O20   S    
N4    C66   S    
C34   H16   S    
C33   C34   A    
C14   H5    S    
C55   H26   S    
C5    C6    A    
N1    C62   S    
O14   V3    S    
O7    V2    S    
C37   C38   A    
C62   H32   S    
O13   V3    S    
C39   C40   A    
C27   C28   A    
C22   C26   A    
C49   H22   S    
V4    O20   S    
C12   H4    S    
N3    C65   S    
C52   C53   A    
C8    C9    A    
O16   V4    S    
O22   C63   S    
C7    C8    A    
C62   H33   S    
C61   H29   S    
O11   C58   A    
O8    C3    A    
C64   H39   S    
O2    V1    S    
