data_mof_unit_66951.cif
_audit_creation_date              2013-03-05T15:57:31-0500
_audit_creation_method            fapswitch 2.2
_symmetry_space_group_name_H-M    P1
_symmetry_Int_Tables_number       1
_space_group_crystal_system       triclinic
_cell_length_a                    17.29286
_cell_length_b                    18.419162
_cell_length_c                    8.431421
_cell_angle_alpha                 90.0
_cell_angle_beta                  101.797162
_cell_angle_gamma                 89.988746
_cell_volume                      2628.85004102

loop_
_atom_site_label
_atom_site_type_symbol
_atom_site_description
_atom_site_fract_x
_atom_site_fract_y
_atom_site_fract_z
_atom_type_partial_charge
P1    P     P_3+3 0.834140 0.419320 0.003900 0.958930
P2    P     P_3+3 0.834140 0.580680 0.503900 0.958928
P3    P     P_3+3 0.334140 0.919320 0.003900 0.958967
P4    P     P_3+3 0.334140 0.080680 0.503900 0.959025
O1    O     O_2   0.841960 0.394640 0.833410 -0.468890
O2    O     O_2   0.841960 0.605360 0.333410 -0.468158
O3    O     O_2   0.341960 0.894640 0.833410 -0.468689
O4    O     O_2   0.341960 0.105360 0.333410 -0.468001
O5    O     O_3   0.907950 0.463080 0.102990 -0.491024
O6    O     O_3   0.907950 0.536920 0.602990 -0.491482
O7    O     O_3   0.407950 0.963080 0.102990 -0.491067
O8    O     O_3   0.407950 0.036920 0.602990 -0.491436
O9    O     O_3   0.972780 0.329600 0.629720 -0.484775
O10   O     O_3   0.972780 0.670400 0.129720 -0.484654
O11   O     O_3   0.472780 0.829600 0.629720 -0.484681
O12   O     O_3   0.472780 0.170400 0.129720 -0.484631
O13   O     O_2   0.838960 0.275179 0.690696 -0.473671
O14   O     O_2   0.838849 0.724717 0.190751 -0.473614
O15   O     O_2   0.338841 0.775314 0.690468 -0.473572
O16   O     O_2   0.338669 0.224509 0.190413 -0.473442
O17   O     O_3   0.753054 0.478036 0.969160 -0.651320
O18   O     O_3   0.753031 0.522016 0.468898 -0.651581
O19   O     O_3   0.253047 0.978027 0.969093 -0.651359
O20   O     O_3   0.253046 0.021997 0.468862 -0.651585
O21   O     O_3   0.940099 0.180617 0.635549 -0.606898
O22   O     O_3   0.939946 0.819249 0.135568 -0.606486
O23   O     O_3   0.439929 0.680620 0.635830 -0.606625
O24   O     O_3   0.439684 0.319237 0.135917 -0.606468
H1    H     H_    0.056992 0.209323 0.717248 0.102281
H2    H     H_    0.056928 0.790649 0.216726 0.102201
H3    H     H_    0.556923 0.709091 0.716998 0.102099
H4    H     H_    0.556769 0.290945 0.216748 0.102026
C1    C     C_3   0.045367 0.104256 0.605479 -0.425910
C2    C     C_3   0.044935 0.895630 0.104666 -0.426440
C3    C     C_3   0.544909 0.603948 0.605548 -0.426005
C4    C     C_3   0.544352 0.395994 0.104968 -0.426506
H5    H     H_    0.606983 0.602020 0.589065 0.085228
H6    H     H_    0.606379 0.398054 0.088219 0.085441
H7    H     H_    0.107483 0.102494 0.589233 0.085304
H8    H     H_    0.106992 0.897492 0.088068 0.085550
H9    H     H_    0.039774 0.076673 0.719042 0.125993
H10   H     H_    0.039407 0.923229 0.218239 0.126355
H11   H     H_    0.539365 0.576471 0.719264 0.125913
H12   H     H_    0.538814 0.423492 0.218658 0.126065
P5    P     P_3+3 0.165830 0.418670 0.685610 0.960624
P6    P     P_3+3 0.165830 0.581330 0.185610 0.960282
P7    P     P_3+3 0.665830 0.918670 0.685610 0.960524
P8    P     P_3+3 0.665830 0.081330 0.185610 0.960297
P9    P     P_3+3 0.104386 0.266295 0.113403 0.948176
P10   P     P_3+3 0.104210 0.733902 0.613266 0.948168
P11   P     P_3+3 0.604302 0.766197 0.113310 0.948265
P12   P     P_3+3 0.604195 0.233923 0.613265 0.948132
O25   O     O_2   0.157990 0.394030 0.856030 -0.463221
O26   O     O_2   0.157990 0.605970 0.356030 -0.462504
O27   O     O_2   0.657990 0.894030 0.856030 -0.462950
O28   O     O_2   0.657990 0.105970 0.356030 -0.462815
O29   O     O_3   0.027110 0.329490 0.059550 -0.469540
O30   O     O_3   0.027110 0.670510 0.559550 -0.469054
O31   O     O_3   0.527110 0.829490 0.059550 -0.469232
O32   O     O_3   0.527110 0.170510 0.559550 -0.469007
O33   O     O_2   0.167910 0.284394 0.015709 -0.476522
O34   O     O_2   0.167647 0.715830 0.515311 -0.476765
O35   O     O_2   0.667753 0.784247 0.015401 -0.476730
O36   O     O_2   0.667601 0.215888 0.515205 -0.476808
O37   O     O_3   0.246964 0.476858 0.724674 -0.644104
O38   O     O_3   0.246989 0.523133 0.224897 -0.644096
O39   O     O_3   0.746978 0.976828 0.724736 -0.644208
O40   O     O_3   0.747012 0.023146 0.224682 -0.644097
O41   O     O_3   0.071810 0.181792 0.033369 -0.602420
O42   O     O_3   0.071481 0.818418 0.533042 -0.602089
O43   O     O_3   0.571605 0.681701 0.033227 -0.602245
O44   O     O_3   0.571443 0.318465 0.533174 -0.602132
C5    C     C_3   0.033843 0.143644 0.140172 0.375124
C6    C     C_3   0.033792 0.856794 0.640024 0.375151
C7    C     C_3   0.533827 0.643458 0.140211 0.375167
C8    C     C_3   0.533669 0.356777 0.640122 0.375280
H13   H     H_    0.032035 0.172897 0.254180 -0.033513
H14   H     H_    0.030628 0.826922 0.752571 -0.032603
H15   H     H_    0.531402 0.673028 0.253523 -0.033144
H16   H     H_    0.530022 0.326648 0.752090 -0.032490
C9    C     C_3   0.077733 0.072014 0.183713 -0.361751
C10   C     C_3   0.078945 0.927562 0.686647 -0.362581
C11   C     C_3   0.578365 0.572248 0.185212 -0.362175
C12   C     C_3   0.579095 0.427313 0.687997 -0.363191
H17   H     H_    0.574024 0.537755 0.076206 0.112749
H18   H     H_    0.554580 0.456874 0.780590 0.078320
H19   H     H_    0.072657 0.037773 0.074130 0.112373
H20   H     H_    0.075793 0.962165 0.578193 0.113370
H21   H     H_    0.141076 0.081373 0.232800 0.119290
H22   H     H_    0.141743 0.917094 0.738085 0.118234
H23   H     H_    0.641510 0.582130 0.234931 0.119022
H24   H     H_    0.576694 0.462019 0.579944 0.113842
C13   C     C_3   0.225299 0.454550 0.272139 0.280572
C14   C     C_3   0.225456 0.545239 0.773416 0.281031
C15   C     C_3   0.725468 0.954697 0.272942 0.280840
C16   C     C_3   0.725504 0.045220 0.773465 0.280842
H25   H     H_    0.225734 0.455924 0.403215 0.010445
H26   H     H_    0.226552 0.543438 0.904715 0.011428
H27   H     H_    0.726277 0.956373 0.404138 0.011316
H28   H     H_    0.726724 0.043456 0.904812 0.012126
H29   H     H_    0.166722 0.435766 0.204931 0.060901
H30   H     H_    0.166623 0.564059 0.707585 0.059406
H31   H     H_    0.666745 0.935875 0.206578 0.059859
H32   H     H_    0.666632 0.064030 0.707819 0.059167
C17   C     C_3   0.286214 0.400610 0.238860 -0.336895
C18   C     C_3   0.286038 0.599429 0.739685 -0.337875
C19   C     C_3   0.786204 0.900577 0.239512 -0.337867
C20   C     C_3   0.786046 0.099373 0.739423 -0.338372
H33   H     H_    0.345486 0.425398 0.268140 0.130026
H34   H     H_    0.345245 0.574417 0.765692 0.130512
H35   H     H_    0.845439 0.925504 0.266512 0.130676
H36   H     H_    0.845204 0.074247 0.764836 0.130600
H37   H     H_    0.285299 0.350421 0.310799 0.084713
H38   H     H_    0.286015 0.649039 0.813843 0.083811
H39   H     H_    0.785894 0.850823 0.313082 0.083929
H40   H     H_    0.786238 0.148944 0.813800 0.084169
H41   H     H_    0.274306 0.387158 0.108638 0.146983
H42   H     H_    0.273008 0.613959 0.610093 0.147758
H43   H     H_    0.773532 0.886311 0.109773 0.147325
H44   H     H_    0.772806 0.113996 0.609900 0.147644
Ba1   Ba    Ba6+2 0.000000 0.447380 0.844850 1.629612
Ba2   Ba    Ba6+2 0.000000 0.552620 0.344850 1.629753
Ba3   Ba    Ba6+2 0.500000 0.947380 0.844850 1.629802
Ba4   Ba    Ba6+2 0.500000 0.052620 0.344850 1.629875
C21   C     C_3   0.773204 0.543218 0.902658 0.269403
C22   C     C_3   0.773372 0.456628 0.403514 0.268885
C23   C     C_3   0.273184 0.043201 0.902541 0.269199
C24   C     C_3   0.273371 0.956670 0.403198 0.268826
H45   H     H_    0.770837 0.534801 0.772234 0.041201
H46   H     H_    0.771777 0.464794 0.273295 0.040840
H47   H     H_    0.270619 0.034811 0.772045 0.041270
H48   H     H_    0.271527 0.964897 0.272912 0.041026
H49   H     H_    0.832347 0.563639 0.962983 0.048609
H50   H     H_    0.832232 0.436071 0.465274 0.049651
H51   H     H_    0.332401 0.063557 0.962558 0.048518
H52   H     H_    0.332334 0.936179 0.464511 0.049425
C25   C     C_3   0.712940 0.600424 0.923387 -0.353563
C26   C     C_3   0.712653 0.399719 0.423232 -0.352767
C27   C     C_3   0.213060 0.100463 0.923714 -0.353669
C28   C     C_3   0.212834 0.899647 0.423279 -0.353146
H53   H     H_    0.653378 0.576172 0.899341 0.136355
H54   H     H_    0.653167 0.424145 0.397387 0.135577
H55   H     H_    0.153472 0.076275 0.899955 0.136484
H56   H     H_    0.153315 0.924006 0.398032 0.135824
H57   H     H_    0.713167 0.646042 0.838128 0.066546
H58   H     H_    0.713284 0.353859 0.338774 0.066946
H59   H     H_    0.213236 0.146103 0.838491 0.066641
H60   H     H_    0.213343 0.853865 0.338566 0.066880
H61   H     H_    0.726299 0.621516 0.049004 0.141808
H62   H     H_    0.725192 0.378942 0.549118 0.141490
H63   H     H_    0.226600 0.121509 0.049356 0.142130
H64   H     H_    0.225660 0.878769 0.549081 0.141654
O45   O     O_3   0.092100 0.536880 0.086720 -0.494352
O46   O     O_3   0.092100 0.463120 0.586720 -0.493702
O47   O     O_3   0.592100 0.036880 0.086720 -0.494063
O48   O     O_3   0.592100 0.963120 0.586720 -0.493787
P13   P     P_3+3 0.897905 0.735085 0.078020 0.955834
P14   P     P_3+3 0.898030 0.264811 0.578002 0.955496
P15   P     P_3+3 0.397841 0.235036 0.077994 0.955890
P16   P     P_3+3 0.397993 0.764835 0.577992 0.955656
C29   C     C_3   0.018323 0.181670 0.613307 0.353444
C30   C     C_3   0.018094 0.818221 0.112865 0.354380
C31   C     C_3   0.518099 0.681448 0.613254 0.354050
C32   C     C_3   0.517798 0.318482 0.113023 0.354516
H65   H     H_    0.024318 0.209216 0.499348 -0.059709
H66   H     H_    0.023993 0.790672 0.998825 -0.060395
H67   H     H_    0.524064 0.708884 0.499156 -0.060399
H68   H     H_    0.523741 0.291046 0.998889 -0.060693
H69   H     H_    0.505985 0.575542 0.503783 0.114544
H70   H     H_    0.505179 0.424213 0.003231 0.114687
H71   H     H_    0.006598 0.075862 0.503495 0.114364
H72   H     H_    0.005904 0.923857 0.002759 0.114494
H73   H     H_    0.554557 0.543013 0.279243 0.078226
H74   H     H_    0.641678 0.416545 0.740597 0.117980
H75   H     H_    0.053955 0.042817 0.277840 0.078071
H76   H     H_    0.054759 0.957058 0.779790 0.078257
C33   C     C_R   0.137211 0.678091 0.927252 -0.277444
C34   C     C_R   0.137322 0.322038 0.427180 -0.278089
C35   C     C_R   0.637180 0.178112 0.927279 -0.277354
C36   C     C_R   0.637269 0.821991 0.427186 -0.277774
C37   C     C_R   0.863057 0.322563 0.264672 -0.277811
C38   C     C_R   0.863058 0.677418 0.764617 -0.277175
C39   C     C_R   0.363096 0.822532 0.264607 -0.277419
C40   C     C_R   0.363078 0.177425 0.764558 -0.277022
C41   C     C_R   0.790700 0.213619 0.301640 -0.092643
C42   C     C_R   0.790636 0.786325 0.801628 -0.092972
C43   C     C_R   0.290714 0.713610 0.301605 -0.092871
C44   C     C_R   0.290671 0.286336 0.801556 -0.092998
C45   C     C_R   0.847369 0.266127 0.363219 -0.006172
C46   C     C_R   0.847306 0.733809 0.863212 -0.006614
C47   C     C_R   0.347397 0.766107 0.363167 -0.006417
C48   C     C_R   0.347338 0.233821 0.863139 -0.006629
C49   C     C_R   0.817327 0.332663 0.109357 0.056686
C50   C     C_R   0.817271 0.667287 0.609375 0.056899
C51   C     C_R   0.317324 0.832666 0.109342 0.056731
C52   C     C_R   0.317241 0.167261 0.609380 0.056862
C53   C     C_R   0.757039 0.280461 0.047085 -0.055137
C54   C     C_R   0.756922 0.719444 0.547147 -0.055145
C55   C     C_R   0.257011 0.780485 0.047092 -0.055124
C56   C     C_R   0.256857 0.219388 0.547189 -0.055280
C57   C     C_R   0.243818 0.719694 0.144492 -0.061951
C58   C     C_R   0.243781 0.280268 0.644472 -0.062076
C59   C     C_R   0.743801 0.219703 0.144525 -0.062016
C60   C     C_R   0.743772 0.780272 0.644497 -0.061964
C61   C     C_R   0.183296 0.667752 0.081769 0.044929
C62   C     C_R   0.183319 0.332275 0.581748 0.045508
C63   C     C_R   0.683269 0.167765 0.081793 0.045053
C64   C     C_R   0.683295 0.832263 0.581750 0.045346
C65   C     C_R   0.153126 0.734241 0.828913 -0.019840
C66   C     C_R   0.153092 0.265774 0.329032 -0.019508
C67   C     C_R   0.653153 0.234219 0.828890 -0.019932
C68   C     C_R   0.653121 0.765782 0.328945 -0.019683
C69   C     C_R   0.211310 0.785545 0.888944 -0.104941
C70   C     C_R   0.210942 0.214167 0.389256 -0.103756
C71   C     C_R   0.711422 0.285451 0.888860 -0.105322
C72   C     C_R   0.711128 0.714312 0.389094 -0.104231
H77   H     H_    0.283906 0.668545 0.378274 0.108095
H78   H     H_    0.283880 0.331414 0.878160 0.107944
H79   H     H_    0.783908 0.168544 0.378289 0.107959
H80   H     H_    0.783840 0.831399 0.878270 0.108028
H81   H     H_    0.722566 0.327004 0.807799 0.104029
H82   H     H_    0.721855 0.672397 0.308383 0.102970
H83   H     H_    0.222302 0.827229 0.808019 0.103637
H84   H     H_    0.221408 0.172038 0.308742 0.102476
H85   H     H_    0.092058 0.638890 0.877944 0.058654
H86   H     H_    0.092328 0.361374 0.377706 0.058547
H87   H     H_    0.591994 0.138935 0.878000 0.058677
H88   H     H_    0.592200 0.861269 0.377784 0.058620
H89   H     H_    0.908178 0.361800 0.313815 0.059071
H90   H     H_    0.908258 0.638226 0.813689 0.059056
H91   H     H_    0.408241 0.861752 0.313726 0.058987
H92   H     H_    0.408293 0.138243 0.813616 0.059021
C73   C     C_3   0.948885 0.130605 0.051349 -0.183944
C74   C     C_3   0.900383 0.087591 0.150725 -0.471524
H93   H     H_    0.918218 0.029539 0.158642 0.148055
H94   H     H_    0.906743 0.110671 0.274305 0.131787
H95   H     H_    0.837706 0.090859 0.089109 0.149592
H96   H     H_    0.919767 0.184088 0.019188 0.122569
H97   H     H_    0.950654 0.100983 0.937720 0.128811
C75   C     C_3   0.949524 0.871910 0.549984 -0.184128
C76   C     C_3   0.900705 0.913148 0.651537 -0.471663
H98   H     H_    0.906051 0.887866 0.772612 0.130804
H99   H     H_    0.919185 0.970880 0.665340 0.147769
H100  H     H_    0.838245 0.911143 0.588218 0.150701
H101  H     H_    0.952540 0.903722 0.439934 0.125215
H102  H     H_    0.919844 0.819310 0.511885 0.125673
C77   C     C_3   0.449166 0.629420 0.050916 -0.183892
C78   C     C_3   0.400615 0.587159 0.151407 -0.471646
H103  H     H_    0.418792 0.529235 0.161933 0.147876
H104  H     H_    0.406551 0.611228 0.273923 0.131379
H105  H     H_    0.338014 0.589847 0.089087 0.150181
H106  H     H_    0.419715 0.682509 0.016092 0.123881
H107  H     H_    0.451493 0.598799 0.938845 0.127054
C79   C     C_3   0.449642 0.372424 0.549441 -0.184121
C80   C     C_3   0.400643 0.413417 0.651039 -0.471288
H108  H     H_    0.405761 0.387864 0.771788 0.130545
H109  H     H_    0.419182 0.471116 0.665654 0.147713
H110  H     H_    0.338238 0.411560 0.587285 0.150764
H111  H     H_    0.453161 0.404639 0.440197 0.124411
H112  H     H_    0.419795 0.320032 0.510016 0.126267

loop_
_geom_bond_atom_site_label_1
_geom_bond_atom_site_label_2
_geom_bond_distance
_ccdc_geom_bond_type
C10   H20   1.106789 S    
P6    C61   1.870820 S    
C67   C71   1.397689 A    
C80   H109  1.109693 S    
P1    O17   1.747311 S    
P5    C62   1.870498 S    
O10   Ba2   2.805076 S    
C35   C67   1.387902 A    
C20   H44   1.102414 S    
P3    O19   1.747306 S    
O7    Ba4   2.843598 S    
C2    H10   1.105408 S    
P8    O28   1.539033 D    
P4    O4    1.539733 D    
O6    Ba1   2.843235 S    
C54   C72   1.407274 A    
C28   H60   1.106300 S    
C54   C60   1.434203 A    
C7    C77   1.525289 S    
Ba3   Ba4   4.640014 S    
C70   H84   1.070470 S    
Ba3   O47   2.843577 S    
C77   H106  1.113759 S    
C26   H62   1.107208 S    
C78   H104  1.109405 S    
C34   C66   1.387564 A    
C1    H7    1.110765 S    
C7    H15   1.107940 S    
O11   Ba3   2.805219 S    
P7    C64   1.870571 S    
C18   H38   1.107265 S    
P1    O1    1.539716 D    
O15   P16   1.542573 D    
O28   Ba4   2.886974 S    
C25   H57   1.106324 S    
C3    H5    1.110776 S    
C23   H51   1.110661 S    
P6    O38   1.742943 S    
P3    O3    1.539716 D    
C24   H52   1.110692 S    
C43   H77   1.073256 S    
P4    O20   1.747381 S    
C15   H27   1.103832 S    
O18   C22   1.399041 S    
P7    O48   1.598768 S    
C14   H26   1.103815 S    
C21   H49   1.110697 S    
O1    Ba1   2.883630 S    
P9    O29   1.760142 S    
P4    Ba4   3.444436 S    
O22   P13   1.738794 S    
C36   C68   1.387750 A    
C76   H98   1.108556 S    
C50   C54   1.436339 A    
C33   C65   1.387896 A    
O32   Ba4   2.804500 S    
P7    O27   1.539048 D    
P13   C46   1.843472 S    
C25   H53   1.102883 S    
P12   O32   1.760700 S    
O23   C31   1.403199 S    
C30   H66   1.110173 S    
P5    O37   1.742798 S    
C37   C45   1.391686 A    
P11   C68   1.841384 S    
C38   H90   1.082045 S    
C14   C18   1.515562 S    
C60   C64   1.436680 A    
P10   C65   1.841895 S    
C15   H31   1.110087 S    
O16   P15   1.542648 D    
P9    C66   1.840846 S    
P2    O18   1.747376 S    
P12   C67   1.841917 S    
C39   C51   1.396905 A    
C40   C48   1.391537 A    
O41   C5    1.406284 S    
C38   C50   1.396883 A    
P4    O8    1.593863 S    
C3    H11   1.105530 S    
C73   C74   1.523435 S    
C28   H64   1.107204 S    
C5    C73   1.525533 S    
C53   C71   1.407164 A    
C78   H105  1.103576 S    
C52   C56   1.436291 A    
O25   Ba1   2.886610 S    
C9    H21   1.102529 S    
C33   H85   1.082294 S    
C28   H56   1.102811 S    
C16   C20   1.515479 S    
C80   H110  1.103417 S    
P5    O25   1.539048 D    
P9    O41   1.743625 S    
C18   H42   1.102529 S    
O12   P15   1.747932 S    
C75   H102  1.112702 S    
Ba2   O46   2.843215 S    
C17   H41   1.103121 S    
P2    O2    1.539733 D    
C74   H94   1.109793 S    
C6    C10   1.529109 S    
C12   H74   1.100426 S    
C24   H48   1.102883 S    
C22   H50   1.110712 S    
P7    O39   1.742648 S    
P3    Ba3   3.444605 S    
C51   C55   1.436529 A    
Ba3   O48   2.962248 S    
P2    Ba2   3.444436 S    
O31   Ba3   2.804358 S    
O26   Ba2   2.886974 S    
H3    C31   1.111365 S    
C8    C12   1.529291 S    
O30   Ba2   2.804500 S    
O40   C15   1.398598 S    
P9    O33   1.538338 D    
Ba1   O46   2.962248 S    
O10   P13   1.747762 S    
C42   C60   1.409045 A    
P10   O30   1.760626 S    
C11   H73   1.105250 S    
C68   C72   1.397785 A    
C32   H68   1.110136 S    
C2    H72   1.107646 S    
P11   O35   1.538337 D    
Ba1   O45   2.843577 S    
C40   H92   1.082045 S    
C26   H54   1.102846 S    
P14   C45   1.843590 S    
C37   H89   1.082059 S    
O20   C24   1.399053 S    
C22   H46   1.102927 S    
O4    Ba4   2.883268 S    
P5    Ba1   3.446674 S    
O23   P16   1.739199 S    
C40   C52   1.396854 A    
C42   H80   1.073153 S    
O22   C30   1.403229 S    
O24   P15   1.738771 S    
P3    C51   1.878391 S    
C20   H36   1.103095 S    
P2    C50   1.877919 S    
C74   H95   1.103640 S    
C3    C31   1.506313 S    
C42   C46   1.399010 A    
C1    C29   1.506189 S    
C73   H96   1.114214 S    
C36   C64   1.394102 A    
O42   C6    1.406496 S    
C79   C80   1.522637 S    
P12   O44   1.744966 S    
H1    C29   1.111368 S    
C27   H63   1.107204 S    
O9    Ba1   2.805219 S    
C19   H35   1.103056 S    
C39   H91   1.082057 S    
P7    Ba3   3.446674 S    
C33   C61   1.394294 A    
C35   C63   1.394329 A    
C79   H112  1.112738 S    
C31   H67   1.109988 S    
C27   H59   1.106309 S    
P6    O26   1.539033 D    
O5    Ba2   2.843598 S    
P1    O5    1.594117 S    
O44   C8    1.406566 S    
C10   H22   1.100856 S    
P8    O40   1.743046 S    
C12   H24   1.106740 S    
O13   P14   1.542576 D    
C19   H39   1.107247 S    
Ba1   Ba2   4.640014 S    
C9    H19   1.107245 S    
C15   C19   1.515548 S    
C5    C9    1.528786 S    
O38   C13   1.398716 S    
C77   H107  1.108216 S    
O37   C14   1.398540 S    
C25   H61   1.107266 S    
P8    O47   1.599024 S    
C10   H76   1.105024 S    
C34   C62   1.393858 A    
O21   C29   1.403259 S    
Ba4   O48   2.843215 S    
P12   O36   1.538411 D    
O39   C16   1.398502 S    
P10   O34   1.538392 D    
Ba2   O45   2.962187 S    
C2    H8    1.110788 S    
C4    H12   1.105470 S    
P11   O31   1.760225 S    
C74   H93   1.111012 S    
O2    Ba2   2.883268 S    
C13   H29   1.110097 S    
C80   H108  1.108597 S    
C1    H71   1.107611 S    
O27   Ba3   2.886610 S    
C13   H25   1.103931 S    
O9    P14   1.747946 S    
C8    C79   1.524659 S    
C78   H103  1.110615 S    
O24   C32   1.403134 S    
C55   C57   1.434204 A    
C18   H34   1.103014 S    
C17   H37   1.107552 S    
P4    C52   1.877669 S    
P6    O45   1.599024 S    
C17   H33   1.103037 S    
C22   C26   1.516804 S    
C5    H13   1.107968 S    
C41   H79   1.073229 S    
P1    Ba1   3.444605 S    
C11   H17   1.107148 S    
C58   C62   1.436655 A    
C55   C69   1.407233 A    
C43   C47   1.399135 A    
C56   C70   1.407316 A    
C8    H16   1.107943 S    
P16   C47   1.843579 S    
C12   H18   1.104939 S    
C2    C30   1.505493 S    
C39   C47   1.391681 A    
P8    Ba4   3.446848 S    
C77   C78   1.523095 S    
P11   O43   1.744149 S    
C41   C45   1.399153 A    
P5    O46   1.598768 S    
C44   H78   1.073002 S    
H2    C30   1.111374 S    
C11   H23   1.101875 S    
C43   C57   1.409152 A    
O19   C23   1.399033 S    
C4    H70   1.107751 S    
C19   H43   1.102570 S    
C44   C48   1.398955 A    
C76   H100  1.103298 S    
C21   C25   1.516878 S    
C20   H40   1.107295 S    
C23   H47   1.102947 S    
C16   H32   1.110098 S    
C73   H97   1.108362 S    
C1    H9    1.105516 S    
O11   P16   1.748084 S    
C13   C17   1.515241 S    
O14   P13   1.542659 D    
C66   C70   1.397890 A    
C41   C59   1.409186 A    
C4    H6    1.110801 S    
O43   C7    1.406339 S    
C69   H83   1.069701 S    
C7    C11   1.528949 S    
C75   H101  1.107613 S    
O8    Ba3   2.843235 S    
C59   C63   1.436898 A    
C79   H111  1.107757 S    
C26   H58   1.106291 S    
C49   C53   1.436564 A    
P15   C48   1.843364 S    
H4    C32   1.111364 S    
P8    C63   1.870807 S    
C44   C58   1.408910 A    
C75   C76   1.522531 S    
C3    H69   1.107707 S    
C36   H88   1.082304 S    
C53   C59   1.434145 A    
C6    C75   1.524754 S    
C65   C69   1.397747 A    
P10   O42   1.744801 S    
C34   H86   1.082320 S    
C72   H82   1.070100 S    
P3    O7    1.594117 S    
O29   Ba1   2.804358 S    
C21   H45   1.102975 S    
C35   H87   1.082295 S    
C16   H28   1.103801 S    
C14   H30   1.110093 S    
C56   C58   1.434259 A    
C6    H14   1.107894 S    
Ba4   O47   2.962187 S    
O21   P14   1.739188 S    
C4    C32   1.505603 S    
C57   C61   1.436828 A    
P1    C49   1.878479 S    
P6    Ba2   3.446848 S    
C27   H55   1.102835 S    
C37   C49   1.396899 A    
C38   C46   1.391610 A    
C76   H99   1.109665 S    
O12   Ba4   2.805076 S    
O17   C21   1.399022 S    
C23   C27   1.516824 S    
C9    H75   1.105282 S    
C29   H65   1.110016 S    
C71   H81   1.069569 S    
O3    Ba3   2.883630 S    
C24   C28   1.516789 S    
P2    O6    1.593863 S    
