data_mof_unit_19896.cif
_audit_creation_date              2012-12-10T19:09:28-0500
_audit_creation_method            fapswitch 2.2
_symmetry_space_group_name_H-M    P1
_symmetry_Int_Tables_number       1
_space_group_crystal_system       triclinic
_cell_length_a                    15.184855
_cell_length_b                    15.367531
_cell_length_c                    9.891681
_cell_angle_alpha                 89.714713
_cell_angle_beta                  90.524333
_cell_angle_gamma                 90.139146
_cell_volume                      2308.12883585

loop_
_atom_site_label
_atom_site_type_symbol
_atom_type_description
_atom_site_fract_x
_atom_site_fract_y
_atom_site_fract_z
_atom_type_partial_charge
C1    C     C_R   0.120002 0.377820 0.500304 1.132079
C2    C     C_R   0.122528 0.618978 0.500186 1.172555
C3    C     C_R   0.620771 0.879026 0.500754 1.107725
C4    C     C_R   0.622111 0.119647 0.500310 1.091523
C5    C     C_3   0.908610 0.523289 0.077290 0.457505
C6    C     C_3   0.913138 0.535909 0.914661 0.584536
C7    C     C_3   0.437428 0.931931 0.082229 0.493779
C8    C     C_3   0.431544 0.937246 0.917596 0.499014
C9    C     C_R   0.880077 0.377931 0.499899 1.147453
C10   C     C_R   0.880554 0.622659 0.499683 1.169845
C11   C     C_R   0.381415 0.876486 0.499602 1.152171
C12   C     C_R   0.380701 0.122344 0.499334 1.123562
C13   C     C_3   0.814106 0.259118 0.638325 0.962738
C14   C     C_3   0.828037 0.243221 0.382525 0.963107
C15   C     C_3   0.787799 0.719245 0.352953 0.917908
C16   C     C_3   0.846738 0.774235 0.576695 0.954652
C17   C     C_3   0.312256 0.759858 0.638716 0.899088
C18   C     C_3   0.333555 0.736413 0.388600 0.943145
C19   C     C_3   0.288021 0.216510 0.349820 0.968708
C20   C     C_3   0.346347 0.273175 0.573779 0.940724
C21   C     C_3   0.246627 0.683149 0.635937 0.737341
C22   C     C_3   0.256073 0.671144 0.378182 0.713755
C23   C     C_3   0.220422 0.291282 0.350796 0.756368
C24   C     C_3   0.269775 0.338925 0.589366 0.719127
C25   C     C_3   0.748388 0.182080 0.634202 0.749703
C26   C     C_3   0.752216 0.176040 0.374749 0.731380
C27   C     C_3   0.721588 0.794704 0.353473 0.795413
C28   C     C_3   0.770256 0.840525 0.592799 0.706796
C29   C     C_3   0.719450 0.352075 0.481413 1.042738
C30   C     C_3   0.728357 0.655594 0.572202 1.024135
C31   C     C_3   0.221742 0.848567 0.470053 0.949090
C32   C     C_3   0.228673 0.153648 0.569710 1.045125
C33   C     C_3   0.811826 0.309218 0.500168 -0.862842
C34   C     C_3   0.812365 0.691668 0.500412 -0.813283
C35   C     C_3   0.313800 0.806646 0.498588 -0.752008
C36   C     C_3   0.312403 0.190350 0.498240 -0.853289
C37   C     C_3   0.191772 0.686218 0.499758 -0.614433
C38   C     C_3   0.188777 0.308915 0.500234 -0.656804
C39   C     C_3   0.690629 0.188012 0.500373 -0.685611
C40   C     C_3   0.689509 0.811012 0.502469 -0.686735
C41   C     C_3   0.147068 0.778210 0.482019 0.528611
C42   C     C_3   0.151332 0.220605 0.560073 0.512374
C43   C     C_3   0.645469 0.280796 0.489124 0.534489
C44   C     C_3   0.651538 0.723227 0.563232 0.534460
C45   C     C_3   0.019784 0.410872 0.082222 0.800493
C46   C     C_3   0.005537 0.408653 0.922219 0.700859
C47   C     C_3   0.071371 0.556144 0.918419 0.696931
C48   C     C_3   0.069144 0.560161 0.079520 0.614800
C49   C     C_3   0.589034 0.983465 0.080877 0.710172
C50   C     C_3   0.586707 0.973978 0.920182 0.649803
C51   C     C_3   0.477117 0.088666 0.918866 0.739029
C52   C     C_3   0.469251 0.086285 0.081041 0.707034
N1    N     N_3   0.998760 0.500000 0.138610 -0.363733
N2    N     N_3   0.998760 0.500000 0.861390 -0.320337
N3    N     N_3   0.498760 0.000000 0.138610 -0.254157
N4    N     N_3   0.498760 0.000000 0.861390 -0.273707
O1    O     O_R   0.092530 0.407440 0.616040 -0.591679
O2    O     O_R   0.092530 0.407440 0.383960 -0.560633
O3    O     O_R   0.092530 0.592560 0.383960 -0.580533
O4    O     O_R   0.092530 0.592560 0.616040 -0.505439
O5    O     O_R   0.592530 0.907440 0.616040 -0.595930
O6    O     O_R   0.592530 0.907440 0.383960 -0.495176
O7    O     O_R   0.592530 0.092560 0.383960 -0.536538
O8    O     O_R   0.592530 0.092560 0.616040 -0.547756
O9    O     O_R   0.907330 0.407420 0.616040 -0.510668
O10   O     O_R   0.907330 0.407420 0.383960 -0.495887
O11   O     O_R   0.907330 0.592580 0.383960 -0.550723
O12   O     O_R   0.907330 0.592580 0.616040 -0.501514
O13   O     O_R   0.407330 0.907420 0.616040 -0.513240
O14   O     O_R   0.407330 0.907420 0.383960 -0.507221
O15   O     O_R   0.407330 0.092580 0.383960 -0.518055
O16   O     O_R   0.407330 0.092580 0.616040 -0.483588
Zn1   Zn    Zn3+2 0.999890 0.500000 0.654960 1.214431
Zn2   Zn    Zn3+2 0.999890 0.500000 0.345040 1.181581
Zn3   Zn    Zn3+2 0.499890 0.000000 0.654960 1.210011
Zn4   Zn    Zn3+2 0.499890 0.000000 0.345040 1.241111
F1    F     F_    0.790814 0.314635 0.742421 -0.463357
F2    F     F_    0.831806 0.285776 0.258926 -0.424248
F3    F     F_    0.750426 0.648903 0.285945 -0.505922
F4    F     F_    0.879943 0.753018 0.703267 -0.464743
F5    F     F_    0.285167 0.818064 0.735727 -0.580990
F6    F     F_    0.344523 0.773785 0.263168 -0.518863
F7    F     F_    0.252333 0.145109 0.282966 -0.456427
F8    F     F_    0.379887 0.252223 0.700602 -0.443839
F9    F     F_    0.898648 0.230446 0.667500 -0.562142
F10   F     F_    0.908107 0.201836 0.402335 -0.565880
F11   F     F_    0.862499 0.744989 0.283845 -0.568808
F12   F     F_    0.915473 0.811644 0.505592 -0.598457
F13   F     F_    0.395870 0.731666 0.675304 -0.589063
F14   F     F_    0.411078 0.693410 0.419991 -0.569477
F15   F     F_    0.362531 0.241486 0.278960 -0.558195
F16   F     F_    0.414446 0.311135 0.502193 -0.605854
O17   O     O_3   0.287956 0.601824 0.654910 -0.634593
H1    H     H_    0.342982 0.599732 0.602275 0.404264
O18   O     O_3   0.286848 0.584796 0.377465 -0.708907
H2    H     H_    0.317654 0.576124 0.290467 0.426856
O19   O     O_3   0.253695 0.367573 0.289010 -0.623329
H3    H     H_    0.313362 0.380488 0.324567 0.400326
O20   O     O_3   0.296729 0.423280 0.552693 -0.694234
H4    H     H_    0.343188 0.440745 0.618491 0.430950
O21   O     O_3   0.790860 0.100858 0.645658 -0.631481
H5    H     H_    0.844920 0.100800 0.590552 0.401140
O22   O     O_3   0.785059 0.090513 0.369560 -0.691172
H6    H     H_    0.815213 0.084149 0.281540 0.416482
O23   O     O_3   0.756884 0.871361 0.295118 -0.570497
H7    H     H_    0.816691 0.882853 0.331211 0.395272
O24   O     O_3   0.797790 0.924853 0.557380 -0.711503
H8    H     H_    0.844774 0.941265 0.622972 0.427759
F17   F     F_    0.192180 0.693443 0.745394 -0.504771
F18   F     F_    0.211974 0.685894 0.256413 -0.466191
F19   F     F_    0.149440 0.264678 0.272618 -0.465800
F20   F     F_    0.246424 0.341201 0.724496 -0.519784
F21   F     F_    0.695991 0.188251 0.747434 -0.512699
F22   F     F_    0.704704 0.190814 0.255927 -0.484548
F23   F     F_    0.650844 0.770897 0.271679 -0.478744
F24   F     F_    0.746035 0.842550 0.727892 -0.481617
F25   F     F_    0.707276 0.415185 0.579117 -0.524357
F26   F     F_    0.715933 0.394783 0.357317 -0.477745
F27   F     F_    0.703626 0.576966 0.515293 -0.529825
F28   F     F_    0.748094 0.638425 0.706877 -0.491563
F29   F     F_    0.207518 0.915815 0.559756 -0.519780
F30   F     F_    0.221060 0.885184 0.341481 -0.515027
F31   F     F_    0.204856 0.075045 0.512393 -0.531234
F32   F     F_    0.248277 0.136156 0.704592 -0.419565
O25   O     O_3   0.089251 0.794485 0.590614 -0.579829
H9    H     H_    0.122124 0.817307 0.669593 0.439818
O26   O     O_3   0.095455 0.778880 0.362788 -0.520440
H10   H     H_    0.062666 0.834726 0.360153 0.441196
O27   O     O_3   0.079896 0.189304 0.480267 -0.602507
H11   H     H_    0.100895 0.152914 0.405032 0.443477
O28   O     O_3   0.120128 0.233239 0.691955 -0.508378
H12   H     H_    0.056248 0.245647 0.686466 0.454260
O29   O     O_3   0.588081 0.294905 0.598938 -0.582316
H13   H     H_    0.622098 0.311416 0.680594 0.430010
O30   O     O_3   0.594457 0.286987 0.369523 -0.517143
H14   H     H_    0.540601 0.251292 0.381121 0.414740
O31   O     O_3   0.580025 0.692084 0.484144 -0.602587
H15   H     H_    0.601411 0.659047 0.405500 0.439321
O32   O     O_3   0.620386 0.736569 0.695613 -0.492357
H16   H     H_    0.558397 0.756391 0.690095 0.443135
F33   F     F_    0.965160 0.349351 0.139988 -0.386339
F34   F     F_    0.928116 0.363053 0.898493 -0.410579
F35   F     F_    0.063090 0.639976 0.867947 -0.476187
F36   F     F_    0.055878 0.645539 0.117286 -0.502971
F37   F     F_    0.623198 0.907697 0.134195 -0.492939
F38   F     F_    0.604356 0.887456 0.889358 -0.502158
F39   F     F_    0.396423 0.116229 0.869250 -0.398790
F40   F     F_    0.381757 0.100662 0.113494 -0.435182
O33   O     O_3   0.104318 0.382678 0.120725 -0.592339
H17   H     H_    0.149729 0.399697 0.055152 0.364503
O34   O     O_3   0.068455 0.356439 0.860022 -0.605616
H18   H     H_    0.124436 0.387140 0.850765 0.402841
O35   O     O_3   0.153471 0.526570 0.873027 -0.700261
H19   H     H_    0.198777 0.570046 0.899435 0.465566
O36   O     O_3   0.154485 0.541108 0.128697 -0.653919
H20   H     H_    0.151187 0.513528 0.218312 0.415846
O37   O     O_3   0.647213 0.050365 0.119678 -0.621697
H21   H     H_    0.708175 0.029543 0.104471 0.424662
O38   O     O_3   0.654355 0.024786 0.863374 -0.647575
H22   H     H_    0.677539 0.994237 0.783427 0.449305
O39   O     O_3   0.537183 0.151907 0.872171 -0.587928
H23   H     H_    0.588046 0.156022 0.934903 0.406868
O40   O     O_3   0.517256 0.154074 0.142271 -0.637320
H24   H     H_    0.490417 0.209683 0.111529 0.426131
O41   O     O_3   0.848642 0.455463 0.107484 -0.504070
H25   H     H_    0.787443 0.477752 0.099592 0.433748
O42   O     O_3   0.842630 0.491126 0.852367 -0.515287
H26   H     H_    0.787152 0.520732 0.877526 0.422497
O43   O     O_3   0.902217 0.623853 0.874561 -0.538076
H27   H     H_    0.926404 0.664841 0.941756 0.411764
O44   O     O_3   0.872551 0.598032 0.134661 -0.600786
H28   H     H_    0.918769 0.640536 0.152728 0.427937
O45   O     O_3   0.464941 0.849099 0.129714 -0.580794
H29   H     H_    0.508479 0.822896 0.068615 0.426414
O46   O     O_3   0.445570 0.854632 0.860809 -0.615341
H30   H     H_    0.403150 0.813470 0.902466 0.405228
O47   O     O_3   0.347152 0.965598 0.875010 -0.525661
H31   H     H_    0.302462 0.922394 0.902959 0.411517
O48   O     O_3   0.353044 0.945844 0.136078 -0.522481
H32   H     H_    0.316457 0.893819 0.116634 0.423798

loop_
_geom_bond_atom_site_label_1
_geom_bond_atom_site_label_2
_ccdc_geom_bond_type
C16   C28   S    
C9    C33   S    
O44   H28   S    
O41   H25   S    
C29   C33   S    
C24   O20   S    
C22   O18   S    
C41   O26   S    
O40   H24   S    
C24   F20   S    
C7    N3    S    
C49   O37   S    
C8    N4    S    
C14   C33   S    
O19   H3    S    
C11   O14   A    
C7    C8    S    
C46   F34   S    
C45   C46   S    
O5    Zn3   S    
C20   F16   S    
C4    O7    A    
O37   H21   S    
O25   H9    S    
C30   F28   S    
C32   C36   S    
C5    N1    S    
C38   C42   S    
C29   F26   S    
C25   F21   S    
C19   C36   S    
O38   H22   S    
C5    C6    S    
C2    O4    A    
C26   C39   S    
O7    Zn4   S    
C27   O23   S    
C28   O24   S    
O10   Zn2   S    
C47   F35   S    
O4    Zn1   S    
O9    Zn1   S    
C48   F36   S    
C51   N4    S    
O43   H27   S    
O1    Zn1   S    
C43   O29   S    
C32   F32   S    
C9    O10   A    
C28   F24   S    
C16   C34   S    
C8    O47   S    
C15   F3    S    
N1    Zn2   S    
C22   F18   S    
C47   C48   S    
C24   C38   S    
O24   H8    S    
C51   O39   S    
C42   O28   S    
C5    O41   S    
C12   C36   S    
C18   C35   S    
C15   C34   S    
C45   O33   S    
C52   N3    S    
C50   F38   S    
C46   O34   S    
C12   O16   A    
C45   N1    S    
C52   F40   S    
N4    Zn3   S    
C29   C43   S    
C45   F33   S    
C30   C44   S    
C32   F31   S    
O6    Zn4   S    
C6    N2    S    
O16   Zn3   S    
C19   F7    S    
O39   H23   S    
C9    O9    A    
C3    O5    A    
C48   N1    S    
C13   F1    S    
C8    O46   S    
C30   C34   S    
C49   F37   S    
C51   C52   S    
C18   F14   S    
O21   H5    S    
C41   O25   S    
O30   H14   S    
C17   F13   S    
C31   F29   S    
O42   H26   S    
O11   Zn2   S    
C2    O3    A    
C39   C43   S    
C47   O35   S    
O12   Zn1   S    
O45   H29   S    
C22   C37   S    
C29   F25   S    
C50   N4    S    
C16   F4    S    
C19   C23   S    
C26   F22   S    
C13   C33   S    
C1    O1    A    
C26   O22   S    
N2    Zn1   S    
C15   C27   S    
O46   H30   S    
C4    C39   S    
C51   F39   S    
C27   C40   S    
O34   H18   S    
C49   N3    S    
C46   N2    S    
C5    O44   S    
C7    O48   S    
C10   C34   S    
O17   H1    S    
C14   C26   S    
C43   O30   S    
O3    Zn2   S    
C14   F10   S    
C1    C38   S    
C44   O31   S    
N3    Zn4   S    
C23   O19   S    
C12   O15   A    
C3    C40   S    
C49   C50   S    
C44   O32   S    
C47   N2    S    
O14   Zn4   S    
O29   H13   S    
C31   C35   S    
O28   H12   S    
O22   H6    S    
O2    Zn2   S    
C15   F11   S    
O27   H11   S    
O31   H15   S    
C3    O6    A    
C6    O42   S    
C32   C42   S    
C31   C41   S    
C18   C22   S    
C48   O36   S    
C31   F30   S    
C13   C25   S    
C21   F17   S    
O32   H16   S    
C11   O13   A    
C10   O12   A    
C50   O38   S    
C23   C38   S    
C23   F19   S    
O23   H7    S    
C4    O8    A    
O20   H4    S    
C20   F8    S    
O18   H2    S    
C10   O11   A    
O33   H17   S    
C25   C39   S    
C2    C37   S    
C25   O21   S    
O15   Zn4   S    
C21   O17   S    
C7    O45   S    
C11   C35   S    
C18   F6    S    
O8    Zn3   S    
O13   Zn3   S    
C42   O27   S    
C17   F5    S    
C14   F2    S    
C37   C41   S    
C17   C21   S    
C19   F15   S    
C52   O40   S    
O48   H32   S    
C20   C36   S    
C40   C44   S    
C21   C37   S    
O47   H31   S    
C30   F27   S    
C13   F9    S    
O36   H20   S    
C16   F12   S    
C28   C40   S    
C17   C35   S    
O35   H19   S    
C1    O2    A    
C20   C24   S    
O26   H10   S    
C6    O43   S    
C27   F23   S    
