data_mof_unit_12739.cif
_audit_creation_date              2012-12-11T14:06:48-0500
_audit_creation_method            fapswitch 2.2
_symmetry_space_group_name_H-M    P1
_symmetry_Int_Tables_number       1
_space_group_crystal_system       triclinic
_cell_length_a                    6.973503
_cell_length_b                    17.251406
_cell_length_c                    23.809413
_cell_angle_alpha                 102.969036
_cell_angle_beta                  90.602066
_cell_angle_gamma                 89.912942
_cell_volume                      2791.11730643

loop_
_atom_site_label
_atom_site_type_symbol
_atom_type_description
_atom_site_fract_x
_atom_site_fract_y
_atom_site_fract_z
_atom_type_partial_charge
O1    O     O_R   0.494290 0.391990 0.999150 -0.509095
O2    O     O_R   0.827170 0.534410 0.082350 -0.542030
O3    O     O_R   0.994360 0.608010 0.000850 -0.550273
C1    C     C_R   0.659053 0.548356 0.106228 0.685027
O4    O     O_R   0.824210 0.388010 0.004470 -0.560414
O5    O     O_R   0.991370 0.460560 0.922410 -0.542857
C2    C     C_R   0.653900 0.355264 0.002450 0.812921
O6    O     O_R   0.497270 0.539440 0.077590 -0.545899
O7    O     O_3   0.659770 0.523970 0.973170 -0.369408
V1    V     V_3+5 0.935840 0.495550 0.004980 1.380450
O8    O     O_R   0.320910 0.465590 0.917650 -0.533993
C3    C     C_R   0.150628 0.452775 0.893653 0.710543
O9    O     O_R   0.323870 0.611990 0.995530 -0.534271
C4    C     C_R   0.154878 0.645491 0.000900 0.654944
V2    V     V_3+5 0.435470 0.504450 0.995020 1.432646
O10   O     O_3   0.161670 0.476030 0.026830 -0.373150
C5    C     C_2   0.144836 0.733247 0.009271 0.260204
C6    C     C_2   0.976879 0.769119 0.000120 -0.442980
H1    H     H_    0.847142 0.733980 0.989057 0.133252
C7    C     C_R   0.029536 0.281317 0.625668 0.571593
N1    N     N_R   0.074619 0.360010 0.645641 -0.570676
C8    C     C_R   0.097712 0.409489 0.608241 0.613808
C9    C     C_R   0.078241 0.379762 0.547583 -0.111160
C10   C     C_R   0.035331 0.297960 0.527006 -0.076449
C11   C     C_R   0.008122 0.248923 0.566354 -0.006037
C12   C     C_R   0.100037 0.428550 0.507025 0.392784
C13   C     C_R   0.097909 0.392465 0.447416 -0.236715
C14   C     C_R   0.054925 0.311571 0.427095 -0.071801
C15   C     C_R   0.020789 0.264462 0.466957 -0.021750
C16   C     C_R   0.975599 0.183220 0.446781 -0.019840
C17   C     C_R   0.944299 0.135907 0.486680 -0.150689
C18   C     C_R   0.961379 0.168219 0.545671 -0.131742
C19   C     C_R   0.046899 0.276322 0.367507 0.625089
N2    N     N_R   0.002729 0.197162 0.348513 -0.538468
C20   C     C_R   0.964641 0.150902 0.387013 0.616032
O11   O     O_2   0.007071 0.234061 0.663291 -0.513490
O12   O     O_2   0.138793 0.486863 0.629712 -0.476377
H2    H     H_    0.131501 0.428097 0.416739 0.184712
O13   O     O_2   0.084218 0.320779 0.328955 -0.512380
O14   O     O_2   0.916332 0.073755 0.367592 -0.527171
H3    H     H_    0.909010 0.073418 0.472481 0.154798
H4    H     H_    0.938461 0.129485 0.575036 0.176069
C21   C     C_R   0.134047 0.104260 0.262538 0.476525
C22   C     C_R   0.118496 0.067692 0.203029 -0.387788
H5    H     H_    0.216213 0.020759 0.183789 0.140486
C23   C     C_R   0.974015 0.089986 0.168146 -0.090569
C24   C     C_R   0.843736 0.150279 0.193043 0.158176
C25   C     C_R   0.855476 0.185089 0.252249 -0.250803
H6    H     H_    0.752977 0.230440 0.271228 0.164616
C26   C     C_R   0.997297 0.161795 0.287280 0.272643
C27   C     C_R   0.932684 0.395494 0.742564 -0.082521
H7    H     H_    0.791683 0.382559 0.723268 0.115776
C28   C     C_R   0.951916 0.415364 0.802658 -0.192494
H8    H     H_    0.823431 0.418314 0.828192 0.133219
C29   C     C_R   0.133813 0.430349 0.829343 -0.062104
C30   C     C_R   0.295772 0.426071 0.793811 -0.191302
H9    H     H_    0.437790 0.437670 0.812611 0.129684
C31   C     C_R   0.276032 0.406095 0.733406 -0.080585
H10   H     H_    0.402656 0.401166 0.706911 0.118937
C32   C     C_R   0.094262 0.390139 0.707328 0.374064
C33   C     C_R   0.566578 0.851446 0.615726 0.589693
N3    N     N_R   0.539172 0.800670 0.651863 -0.540882
C34   C     C_R   0.541209 0.719718 0.630495 0.615522
C35   C     C_R   0.569876 0.687569 0.571162 -0.079025
C36   C     C_R   0.587788 0.739241 0.533361 -0.037165
C37   C     C_R   0.586622 0.821874 0.555963 -0.039475
C38   C     C_R   0.574346 0.605060 0.548746 -0.165198
C39   C     C_R   0.592907 0.573330 0.489265 0.150274
C40   C     C_R   0.606356 0.625105 0.450423 -0.045898
C41   C     C_R   0.603316 0.708508 0.472970 -0.123189
C42   C     C_R   0.615114 0.761417 0.435317 -0.018618
C43   C     C_R   0.617127 0.844616 0.458950 0.204009
C44   C     C_R   0.603964 0.873600 0.518590 -0.208061
C45   C     C_R   0.614489 0.596661 0.389654 0.586222
N4    N     N_R   0.623771 0.648720 0.353927 -0.581526
C46   C     C_R   0.624924 0.729219 0.375294 0.599733
O15   O     O_2   0.575607 0.930659 0.637510 -0.518793
O16   O     O_2   0.511844 0.670264 0.666153 -0.512372
H11   H     H_    0.560663 0.564353 0.577144 0.200618
O17   O     O_2   0.614343 0.517886 0.366276 -0.485085
O18   O     O_2   0.634665 0.777679 0.338121 -0.496303
H12   H     H_    0.604782 0.937431 0.535358 0.169920
C47   C     C_R   0.464999 0.602189 0.259199 -0.088352
H13   H     H_    0.327094 0.607726 0.280212 0.112463
C48   C     C_R   0.473241 0.579619 0.198935 -0.208699
H14   H     H_    0.340245 0.567083 0.174740 0.128444
C49   C     C_R   0.650660 0.573513 0.170381 -0.056469
C50   C     C_R   0.819540 0.590280 0.203955 -0.191705
H15   H     H_    0.958552 0.586477 0.183682 0.124422
C51   C     C_R   0.810825 0.613039 0.264239 -0.088656
H16   H     H_    0.941937 0.627055 0.289201 0.108747
C52   C     C_R   0.633588 0.619035 0.292246 0.386183
C53   C     C_R   0.627283 0.811607 0.754495 -0.199269
H17   H     H_    0.734003 0.765928 0.740734 0.156536
C54   C     C_R   0.610437 0.848429 0.813558 0.355020
C55   C     C_R   0.468354 0.907655 0.831583 -0.198811
C56   C     C_R   0.345719 0.928246 0.789228 0.082801
C57   C     C_R   0.365707 0.890550 0.731007 -0.056505
H18   H     H_    0.271816 0.907546 0.699277 0.169536
C58   C     C_R   0.508829 0.833506 0.712840 0.245724
C59   C     C_2   0.633566 0.272159 0.008779 -0.409878
H19   H     H_    0.741915 0.249311 0.033942 0.107372
C60   C     C_2   0.477743 0.227451 0.987180 0.236486
O19   O     O_R   0.618210 0.960470 0.922400 -0.516234
O20   O     O_R   0.291310 0.111960 0.995450 -0.552278
O21   O     O_R   0.124210 0.039530 0.077580 -0.543883
C61   C     C_R   0.461113 0.144387 0.995746 0.661240
O22   O     O_R   0.288310 0.965490 0.917650 -0.562308
O23   O     O_R   0.121180 0.892010 0.999220 -0.505967
C62   C     C_R   0.456356 0.947555 0.894214 0.756223
O24   O     O_R   0.621230 0.107990 0.000760 -0.544272
O25   O     O_3   0.455770 0.976060 0.026840 -0.351882
V3    V     V_3+5 0.179680 0.004440 0.995020 1.410701
O26   O     O_R   0.791670 0.888040 0.004570 -0.534318
C63   C     C_R   0.961815 0.855264 0.002358 0.807655
O27   O     O_R   0.794680 0.034510 0.082370 -0.526897
C64   C     C_R   0.963778 0.052165 0.105593 0.750857
V4    V     V_3+5 0.680070 0.995560 0.005010 1.468545
O28   O     O_3   0.953840 0.023940 0.973160 -0.388260
O29   O     O_3   0.307370 0.779239 0.027678 -0.547417
C65   C     C_3   0.368544 0.770439 0.083010 0.117394
H20   H     H_    0.512131 0.798646 0.091844 0.126810
H21   H     H_    0.390069 0.707261 0.084838 0.111174
C66   C     C_3   0.232831 0.811946 0.131027 -0.372939
H22   H     H_    0.249108 0.877405 0.137592 0.189902
H23   H     H_    0.081007 0.796629 0.119094 0.185227
C67   C     C_3   0.276044 0.786673 0.187342 -0.800034
H24   H     H_    0.245671 0.722267 0.182225 0.226298
H25   H     H_    0.183408 0.820466 0.222024 0.246256
H26   H     H_    0.428738 0.798184 0.200157 0.246061
N5    N     N_3   0.591510 0.488429 0.468707 -0.600118
H27   H     H_    0.457058 0.467332 0.476495 0.265520
H28   H     H_    0.689377 0.463365 0.493060 0.213956
N6    N     N_3   0.632514 0.900699 0.422968 -0.583105
H29   H     H_    0.513059 0.938218 0.430042 0.234991
H30   H     H_    0.754895 0.935396 0.435684 0.239182
O30   O     O_3   0.715382 0.821003 0.855155 -0.564025
C68   C     C_3   0.914932 0.817552 0.844051 0.088387
H31   H     H_    0.988414 0.855757 0.881820 0.145773
H32   H     H_    0.958535 0.840796 0.805978 0.104138
C69   C     C_3   0.985087 0.731925 0.837599 -0.338974
H33   H     H_    0.943814 0.709831 0.876163 0.199139
H34   H     H_    0.915852 0.693082 0.799228 0.212943
C70   C     C_3   0.202319 0.726168 0.831041 -0.752498
H35   H     H_    0.246198 0.745541 0.791628 0.246036
H36   H     H_    0.248328 0.663550 0.827162 0.237214
H37   H     H_    0.274773 0.763882 0.869325 0.234075
N7    N     N_3   0.208635 0.991159 0.803133 -0.643221
H38   H     H_    0.282500 0.042791 0.822952 0.229263
H39   H     H_    0.107619 0.977176 0.831372 0.234324
O31   O     O_3   0.372592 0.252192 0.944194 -0.571313
C71   C     C_3   0.172105 0.244456 0.948358 0.117444
H40   H     H_    0.108468 0.302815 0.946438 0.153254
H41   H     H_    0.122655 0.231518 0.989613 0.102739
C72   C     C_3   0.099984 0.182546 0.895922 -0.337660
H42   H     H_    0.161707 0.195451 0.856115 0.219924
H43   H     H_    0.148410 0.122870 0.899819 0.200220
C73   C     C_3   0.882427 0.181592 0.890249 -0.765794
H44   H     H_    0.819591 0.160529 0.926570 0.238637
H45   H     H_    0.838755 0.139782 0.849541 0.240406
H46   H     H_    0.826951 0.241776 0.889565 0.229365
O32   O     O_3   0.145289 0.509000 0.526127 -0.545713
C74   C     C_3   0.037034 0.558998 0.497603 0.074951
H47   H     H_    0.952984 0.600128 0.530724 0.169323
H48   H     H_    0.939361 0.527091 0.463325 0.148801
C75   C     C_3   0.169897 0.608647 0.469795 -0.336784
H49   H     H_    0.256095 0.646069 0.504468 0.231965
H50   H     H_    0.257675 0.567355 0.437901 0.222509
C76   C     C_3   0.069906 0.664833 0.438275 -0.824735
H51   H     H_    0.983194 0.630707 0.401950 0.238347
H52   H     H_    0.179392 0.698730 0.420121 0.235869
H53   H     H_    0.981825 0.708103 0.468712 0.244404
O33   O     O_3   0.267852 0.080841 0.299334 -0.555926
C77   C     C_3   0.452865 0.066835 0.275226 0.073264
H54   H     H_    0.557833 0.099566 0.307300 0.167724
H55   H     H_    0.473373 0.089580 0.235525 0.102278
C78   C     C_3   0.499059 0.978069 0.264509 -0.266966
H56   H     H_    0.506997 0.959867 0.306404 0.243873
H57   H     H_    0.382475 0.943700 0.238366 0.194946
C79   C     C_3   0.688230 0.958244 0.232939 -0.784993
H58   H     H_    0.680143 0.973109 0.189941 0.215870
H59   H     H_    0.718270 0.893680 0.226774 0.237563
H60   H     H_    0.807560 0.991856 0.258432 0.269601
N8    N     N_3   0.703667 0.178356 0.157839 -0.661215
H61   H     H_    0.567767 0.172093 0.174341 0.223786
H62   H     H_    0.727690 0.239046 0.161211 0.231875

loop_
_geom_bond_atom_site_label_1
_geom_bond_atom_site_label_2
_ccdc_geom_bond_type
C73   H45   S    
C49   C50   A    
C53   H17   S    
C72   H43   S    
C21   O33   S    
C76   H51   S    
C54   C55   A    
C1    O6    A    
O26   C63   A    
C1    C49   S    
C48   H14   S    
C22   H5    S    
C47   C52   A    
O20   C61   A    
C12   C13   A    
C19   O13   S    
C16   C20   A    
O24   V4    S    
O20   V3    S    
C14   C15   A    
C74   H48   S    
N7    H39   S    
C6    H1    S    
C69   H34   S    
O5    C3    A    
C16   C17   A    
N5    H27   S    
C7    C11   A    
C13   H2    S    
C31   C32   A    
C36   C41   A    
C30   H9    S    
C5    C6    D    
N2    C20   A    
C9    C12   A    
C77   H54   S    
C65   C66   S    
C73   H46   S    
V4    O28   S    
O8    V2    S    
C33   C37   A    
N3    C34   A    
C17   C18   A    
C33   O15   S    
C39   C40   A    
C78   H57   S    
O31   C71   S    
C41   C42   A    
O1    V2    S    
O7    V1    S    
C5    O29   S    
C79   H60   S    
C60   O31   S    
C11   C18   A    
C48   C49   A    
N8    H61   S    
C53   C54   A    
C45   O17   S    
O9    C4    A    
C72   C73   S    
C75   H50   S    
C76   H52   S    
C4    C5    S    
C33   N3    A    
C70   H37   S    
O4    V1    S    
O25   V3    S    
C59   H19   S    
C79   H59   S    
C56   C57   A    
O19   V4    S    
C28   C29   A    
C54   O30   S    
N2    C26   S    
C45   N4    A    
O21   V3    S    
C38   C39   A    
C3    C29   S    
C35   C38   A    
C74   C75   S    
C38   H11   S    
C10   C11   A    
N1    C32   S    
C70   H36   S    
C69   C70   S    
O4    C2    A    
C70   H35   S    
N6    H30   S    
C22   C23   A    
C31   H10   S    
C28   H8    S    
C8    O12   S    
C55   C62   S    
C12   O32   S    
C27   H7    S    
C23   C64   S    
C27   C28   A    
O22   V3    S    
C46   O18   S    
C39   N5    S    
O2    C1    A    
N4    C46   A    
C67   H25   S    
C15   C16   A    
C51   C52   A    
C24   C25   A    
C77   C78   S    
C71   C72   S    
C9    C10   A    
C78   C79   S    
C55   C56   A    
C29   C30   A    
C19   N2    A    
C40   C45   A    
V3    O28   S    
C7    N1    A    
C43   N6    S    
C53   C58   A    
C65   H20   S    
O26   V4    S    
O3    C4    A    
C68   H32   S    
N4    C52   S    
O27   V4    S    
C66   C67   S    
N3    C58   S    
C25   H6    S    
C47   C48   A    
C50   C51   A    
C14   C19   A    
C36   C37   A    
O6    V2    S    
C57   C58   A    
O9    V2    S    
C21   C22   A    
C75   H49   S    
C56   N7    S    
C47   H13   S    
C67   H24   S    
O2    V1    S    
C44   H12   S    
C13   C14   A    
O29   C65   S    
O19   C62   A    
C66   H23   S    
O32   C74   S    
C23   C24   A    
C17   H3    S    
O1    C2    A    
C61   O24   A    
C78   H56   S    
C71   H41   S    
C43   C44   A    
N5    H28   S    
C68   C69   S    
C6    C63   S    
O5    V1    S    
O8    C3    A    
O22   C62   A    
C21   C26   A    
N6    H29   S    
C27   C32   A    
O23   V3    S    
O30   C68   S    
N8    H62   S    
C35   C36   A    
C20   O14   S    
O7    V2    S    
C67   H26   S    
C42   C43   A    
O21   C64   A    
O3    V1    S    
V1    O10   S    
C69   H33   S    
O25   V4    S    
C37   C44   A    
C51   H16   S    
C73   H44   S    
C24   N8    S    
C25   C26   A    
C76   H53   S    
C30   C31   A    
O27   C64   A    
N7    H38   S    
C40   C41   A    
C77   H55   S    
C65   H21   S    
C74   H47   S    
C68   H31   S    
O23   C63   A    
O33   C77   S    
C34   C35   A    
C7    O11   S    
C42   C46   A    
C10   C15   A    
C50   H15   S    
C75   C76   S    
C59   C60   D    
C57   H18   S    
C2    C59   S    
C72   H42   S    
C18   H4    S    
C8    C9    A    
C60   C61   S    
C71   H40   S    
N1    C8    A    
C79   H58   S    
V2    O10   S    
C66   H22   S    
C34   O16   S    
