data_mof_unit_32177.cif
_audit_creation_date              2012-10-26T19:02:59-0400
_audit_creation_method            fapswitch 2.2
_symmetry_space_group_name_H-M    P1
_symmetry_Int_Tables_number       1
_space_group_crystal_system       triclinic
_cell_length_a                    15.017292
_cell_length_b                    10.95227
_cell_length_c                    9.960918
_cell_angle_alpha                 110.154306
_cell_angle_beta                  97.252272
_cell_angle_gamma                 94.441859
_cell_volume                      1512.76474465

loop_
_atom_site_label
_atom_site_type_symbol
_atom_type_description
_atom_site_fract_x
_atom_site_fract_y
_atom_site_fract_z
_atom_type_partial_charge
C1    C     C_R   0.494881 0.254742 0.441076 0.548163
C2    C     C_2   0.495279 0.469710 0.910495 0.297171
C3    C     C_R   0.329305 0.500515 0.501572 0.542956
C4    C     C_R   0.670879 0.500452 0.498989 0.542823
C5    C     C_R   0.809086 0.545596 0.403506 -0.140853
C6    C     C_R   0.192956 0.465307 0.606041 -0.133586
C7    C     C_R   0.767739 0.499973 0.498418 -0.008788
C8    C     C_R   0.232973 0.503415 0.504619 -0.005844
C9    C     C_R   0.819642 0.458001 0.597566 -0.130984
C10   C     C_R   0.180686 0.542932 0.403904 -0.135920
C11   C     C_R   0.912782 0.459881 0.600937 0.011607
C12   C     C_R   0.508659 0.745606 0.558565 0.557666
C13   C     C_R   0.088108 0.544422 0.403534 0.010726
C14   C     C_R   0.953897 0.502569 0.502302 0.061105
C15   C     C_R   0.047356 0.503602 0.503771 0.060942
C16   C     C_R   0.901686 0.545034 0.402758 0.013916
C17   C     C_R   0.099980 0.463762 0.605349 0.014475
C18   C     C_R   0.965432 0.419999 0.701099 -0.132607
C19   C     C_R   0.035674 0.585812 0.304580 -0.134447
C20   C     C_3   0.430334 0.348102 0.805428 -0.245219
C21   C     C_3   0.350183 0.289869 0.855115 -0.456423
C22   C     C_3   0.614264 0.411643 0.084105 -0.256981
C23   C     C_R   0.058655 0.422423 0.703674 -0.131018
C24   C     C_3   0.653449 0.337884 0.948400 -0.478376
C25   C     C_R   0.942968 0.586922 0.304823 -0.133272
C26   C     C_2   0.493651 0.115007 0.407636 -0.121972
C27   C     C_2   0.519650 0.885887 0.589786 -0.130861
C28   C     C_2   0.523600 0.070175 0.510829 -0.167779
C29   C     C_2   0.513285 0.930596 0.480887 -0.153380
C30   C     C_2   0.522660 0.456056 0.057450 0.273847
Cu1   Cu    Cu3+1 0.515770 0.521810 0.644910 0.946231
Cu2   Cu    Cu3+1 0.484230 0.478190 0.355090 0.965469
H1    H     H_    0.770012 0.585382 0.333643 0.113161
H2    H     H_    0.553280 0.136359 0.619064 0.142672
H3    H     H_    0.533984 0.952948 0.701940 0.102577
H4    H     H_    0.466439 0.048052 0.298212 0.114985
H5    H     H_    0.372318 0.252806 0.942717 0.172388
H6    H     H_    0.300342 0.360257 0.884665 0.172491
H7    H     H_    0.313896 0.203213 0.762735 0.123833
H8    H     H_    0.397068 0.364545 0.711823 0.205018
H9    H     H_    0.471330 0.267055 0.769288 0.122881
H10   H     H_    0.609037 0.245203 0.883081 0.123803
H11   H     H_    0.663532 0.398764 0.881393 0.192712
H12   H     H_    0.233788 0.434285 0.683128 0.115934
H13   H     H_    0.720637 0.312086 0.981938 0.142066
H14   H     H_    0.662478 0.499721 0.148881 0.169133
H15   H     H_    0.608510 0.341674 0.141726 0.177301
H16   H     H_    0.633198 0.688657 0.899149 0.358945
H17   H     H_    0.338237 0.466623 0.143513 0.352189
H18   H     H_    0.787462 0.423781 0.671967 0.123508
H19   H     H_    0.212283 0.573760 0.326699 0.126845
H20   H     H_    0.934553 0.387329 0.777566 0.109753
H21   H     H_    0.066399 0.617571 0.227366 0.113923
H22   H     H_    0.098353 0.391500 0.781997 0.108263
H23   H     H_    0.903459 0.619585 0.227866 0.116760
H24   H     H_    0.497252 0.864182 0.368508 0.183726
N1    N     N_2   0.460520 0.445420 0.137370 -0.106043
N2    N     N_2   0.539480 0.554580 0.862630 -0.084893
O1    O     O_R   0.508410 0.332340 0.577400 -0.542853
O2    O     O_3   0.388719 0.504294 0.109671 -0.628361
O3    O     O_R   0.491590 0.667660 0.422600 -0.461926
O4    O     O_R   0.481780 0.295500 0.332650 -0.502116
O5    O     O_R   0.518220 0.704500 0.667350 -0.492214
O6    O     O_R   0.383570 0.518390 0.622380 -0.522279
O7    O     O_R   0.616430 0.481610 0.377620 -0.531171
O8    O     O_R   0.356940 0.481550 0.377630 -0.511684
O9    O     O_R   0.643060 0.518450 0.622370 -0.507815
O10   O     O_3   0.605889 0.642657 0.956879 -0.642294

loop_
_geom_bond_atom_site_label_1
_geom_bond_atom_site_label_2
_ccdc_geom_bond_type
C18   H20   S    
C4    O9    A    
C2    N2    D    
C11   C18   A    
C7    C9    A    
C29   H24   S    
C27   C29   D    
C24   H10   S    
C1    C26   S    
C26   C28   D    
Cu1   Cu2   S    
C21   H7    S    
C2    C30   S    
C1    O4    A    
C19   H21   S    
C1    O1    A    
C22   H15   S    
Cu2   O4    S    
C5    C16   A    
C6    H12   S    
C3    O6    A    
H16   O10   S    
Cu1   O9    S    
C12   O3    A    
C9    C11   A    
C17   C23   A    
H17   O2    S    
Cu2   N1    S    
C4    C7    S    
C19   C25   A    
C24   H13   S    
Cu1   N2    S    
N2    O10   S    
C28   C29   S    
C22   H14   S    
Cu2   O3    S    
C20   H9    S    
C22   C24   S    
C13   C15   A    
C4    O7    A    
C20   H8    S    
C11   C14   A    
C14   C16   A    
C3    O8    A    
C10   H19   S    
C12   C27   S    
C28   H2    S    
C18   C23   A    
C30   N1    D    
Cu1   O5    S    
C21   H5    S    
C20   C21   S    
C23   H22   S    
Cu2   O8    S    
C3    C8    S    
C26   H4    S    
C16   C25   A    
C15   C17   A    
C6    C17   A    
C13   C19   A    
C5    C7    A    
C21   H6    S    
C24   H11   S    
C6    C8    A    
C22   C30   S    
C27   H3    S    
C14   C15   A    
C2    C20   S    
Cu1   O6    S    
C10   C13   A    
C8    C10   A    
C9    H18   S    
C25   H23   S    
C5    H1    S    
Cu2   O7    S    
N1    O2    S    
Cu1   O1    S    
C12   O5    A    
