data_mof_unit_9587.cif
_audit_creation_date              2012-12-10T20:53:14-0500
_audit_creation_method            fapswitch 2.2
_symmetry_space_group_name_H-M    P1
_symmetry_Int_Tables_number       1
_space_group_crystal_system       triclinic
_cell_length_a                    15.867281
_cell_length_b                    15.077193
_cell_length_c                    10.749401
_cell_angle_alpha                 90.121354
_cell_angle_beta                  90.073216
_cell_angle_gamma                 91.313178
_cell_volume                      2570.93939442

loop_
_atom_site_label
_atom_site_type_symbol
_atom_type_description
_atom_site_fract_x
_atom_site_fract_y
_atom_site_fract_z
_atom_type_partial_charge
C1    C     C_R   0.338774 0.498905 0.499064 0.883892
C2    C     C_1   0.498791 0.192935 0.500150 0.168799
C3    C     C_R   0.498718 0.499640 0.261694 0.975555
C4    C     C_R   0.494027 0.499776 0.737858 1.003716
C5    C     C_2   0.459147 0.425263 0.932705 0.431800
C6    C     C_2   0.454315 0.429618 0.068502 0.400106
C7    C     C_2   0.473628 0.500106 0.867522 -0.545588
C8    C     C_2   0.491723 0.498448 0.129477 -0.517382
C9    C     C_R   0.960069 0.565412 0.545309 -0.225666
C10   C     C_R   0.046771 0.562597 0.542754 -0.222508
C11   C     C_R   0.912392 0.496421 0.492862 0.110642
C12   C     C_R   0.661021 0.500982 0.501193 0.907760
C13   C     C_R   0.086149 0.490715 0.488079 0.113021
C14   C     C_R   0.950100 0.422836 0.435627 0.081058
C15   C     C_R   0.039225 0.419536 0.433962 0.078783
C16   C     C_1   0.823830 0.502021 0.498804 -0.070845
C17   C     C_1   0.175414 0.492655 0.489954 -0.075440
C18   C     C_1   0.250284 0.495827 0.493985 -0.204142
C19   C     C_1   0.749192 0.503040 0.501022 -0.189000
C20   C     C_3   0.374757 0.307699 0.870915 0.176062
C21   C     C_3   0.363750 0.250294 0.755769 -0.890638
C22   C     C_3   0.345800 0.365497 0.177974 0.068930
C23   C     C_R   0.428615 0.950654 0.454556 -0.003931
C24   C     C_3   0.324587 0.287857 0.262806 -0.706139
C25   C     C_3   0.894659 0.349037 0.379145 -0.431157
C26   C     C_3   0.867886 0.281282 0.478703 -0.361450
C27   C     C_3   0.810605 0.208362 0.424188 -0.813312
C28   C     C_3   0.083585 0.342693 0.372457 -0.432876
C29   C     C_3   0.095125 0.360113 0.232436 -0.336113
C30   C     C_3   0.102915 0.274087 0.158593 -0.911031
C31   C     C_3   0.305558 0.116923 0.498340 0.087797
C32   C     C_3   0.214799 0.107628 0.453493 -0.865166
C33   C     C_3   0.624385 0.123234 0.717844 0.091761
C34   C     C_R   0.569145 0.955287 0.548895 -0.015597
C35   C     C_3   0.700070 0.178623 0.761648 -0.800276
C36   C     C_3   0.353677 0.898557 0.401317 -0.346062
C37   C     C_3   0.297112 0.861000 0.505277 -0.357139
C38   C     C_3   0.223349 0.806308 0.452078 -0.878023
C39   C     C_3   0.647177 0.908362 0.594061 -0.366041
C40   C     C_3   0.702165 0.880357 0.484140 -0.308302
C41   C     C_3   0.778407 0.829100 0.528324 -0.893866
C42   C     C_R   0.499192 0.905136 0.501715 -0.108267
C43   C     C_R   0.567079 0.049691 0.551886 0.395108
C44   C     C_R   0.427980 0.045105 0.455724 0.407910
C45   C     C_R   0.497668 0.095004 0.502546 -0.211288
C46   C     C_1   0.499896 0.806999 0.500694 0.083709
H1    H     H_    0.466370 0.565263 0.908327 0.124224
H2    H     H_    0.298860 0.367014 0.101139 0.099744
H3    H     H_    0.340905 0.427708 0.233230 0.129840
H4    H     H_    0.375709 0.279472 0.331710 0.282302
H5    H     H_    0.265818 0.300443 0.314045 0.191511
H6    H     H_    0.317103 0.225903 0.207447 0.245785
H7    H     H_    0.751582 0.237054 0.387946 0.277143
H8    H     H_    0.843245 0.173370 0.347726 0.245796
H9    H     H_    0.794022 0.159438 0.497729 0.280488
H10   H     H_    0.924599 0.250526 0.519372 0.214011
H11   H     H_    0.833576 0.314948 0.554813 0.235094
H12   H     H_    0.519922 0.555591 0.083627 0.127465
H13   H     H_    0.837818 0.377398 0.335418 0.209863
H14   H     H_    0.926529 0.315019 0.301468 0.210776
H15   H     H_    0.154845 0.233764 0.195087 0.263418
H16   H     H_    0.043117 0.234516 0.163884 0.261005
H17   H     H_    0.116029 0.289794 0.059520 0.247629
H18   H     H_    0.040584 0.396372 0.194375 0.223280
H19   H     H_    0.152474 0.402528 0.217999 0.212861
H20   H     H_    0.145678 0.332018 0.416534 0.192811
H21   H     H_    0.048304 0.279480 0.389317 0.210121
H22   H     H_    0.319117 0.188112 0.517276 0.160663
H23   H     H_    0.083423 0.616764 0.583863 0.153350
H24   H     H_    0.310879 0.079322 0.587385 0.122218
H25   H     H_    0.198017 0.036708 0.436952 0.256086
H26   H     H_    0.171671 0.134532 0.524807 0.208614
H27   H     H_    0.206537 0.144846 0.365660 0.258927
H28   H     H_    0.617908 0.063842 0.778822 0.125611
H29   H     H_    0.567285 0.164097 0.728376 0.161962
H30   H     H_    0.707064 0.239208 0.703571 0.262905
H31   H     H_    0.691182 0.198669 0.860140 0.218726
H32   H     H_    0.758300 0.139460 0.754203 0.240319
H33   H     H_    0.184108 0.848033 0.390940 0.255962
H34   H     H_    0.930005 0.621533 0.588457 0.155992
H35   H     H_    0.246877 0.749177 0.397832 0.269994
H36   H     H_    0.183438 0.780396 0.529249 0.247514
H37   H     H_    0.333847 0.818017 0.568051 0.230183
H38   H     H_    0.272027 0.916296 0.561623 0.218913
H39   H     H_    0.315350 0.940634 0.339445 0.239113
H40   H     H_    0.376381 0.843847 0.341474 0.191068
H41   H     H_    0.817825 0.870740 0.592072 0.259053
H42   H     H_    0.757598 0.767614 0.577345 0.268093
H43   H     H_    0.817254 0.810313 0.446984 0.251743
H44   H     H_    0.665021 0.837657 0.418827 0.223919
H45   H     H_    0.325851 0.359817 0.867333 0.091177
H46   H     H_    0.724503 0.940393 0.432869 0.232541
H47   H     H_    0.685752 0.951615 0.656651 0.222101
H48   H     H_    0.628291 0.849545 0.650571 0.189317
H49   H     H_    0.363274 0.264692 0.953126 0.180973
H50   H     H_    0.410708 0.196815 0.755333 0.240291
H51   H     H_    0.299407 0.219725 0.754600 0.193991
H52   H     H_    0.372032 0.291840 0.671516 0.274915
N1    N     N_1   0.500000 0.270550 0.500000 -0.107279
N2    N     N_1   0.500000 0.729450 0.500000 -0.098306
O1    O     O_R   0.378020 0.573650 0.500040 -0.610849
O2    O     O_3   0.427790 0.353745 0.130940 -0.571065
O3    O     O_3   0.360343 0.088074 0.403524 -0.614384
O4    O     O_3   0.637014 0.098071 0.592679 -0.614913
O5    O     O_R   0.621980 0.573650 0.499960 -0.613526
O6    O     O_R   0.378020 0.426320 0.500100 -0.643769
O7    O     O_R   0.621980 0.426320 0.499900 -0.608463
O8    O     O_R   0.500000 0.573650 0.319080 -0.628326
O9    O     O_R   0.500000 0.573650 0.680920 -0.630900
O10   O     O_R   0.500000 0.426320 0.319140 -0.555002
O11   O     O_R   0.500000 0.426320 0.680860 -0.554711
O12   O     O_3   0.458223 0.342749 0.874886 -0.559714
Zn1   Zn    Zn3+2 0.500000 0.598370 0.500000 0.954125
Zn2   Zn    Zn3+2 0.500000 0.401630 0.500000 0.986512

loop_
_geom_bond_atom_site_label_1
_geom_bond_atom_site_label_2
_ccdc_geom_bond_type
C24   H6    S    
C41   H43   S    
C4    O9    A    
C33   O4    S    
O1    Zn1   S    
C22   H2    S    
C34   C42   A    
N1    Zn2   S    
C27   H8    S    
C39   H48   S    
C1    C18   S    
C29   C30   S    
C23   C42   A    
O6    Zn2   S    
O5    Zn1   S    
C28   C29   S    
C12   O5    A    
C11   C14   A    
C27   H9    S    
C38   H33   S    
C3    O10   A    
C42   C46   S    
C43   O4    S    
C39   H47   S    
C8    H12   S    
C20   O12   S    
C33   H29   S    
C31   H24   S    
C37   H38   S    
C25   H14   S    
C9    C10   A    
O10   Zn2   S    
O9    Zn1   S    
C1    O6    A    
C9    C11   A    
C24   H5    S    
C29   H18   S    
C30   H17   S    
C38   H36   S    
C4    C7    S    
C44   O3    S    
C32   H25   S    
C2    C45   S    
C24   H4    S    
C31   H22   S    
C41   H41   S    
C20   H45   S    
C35   H30   S    
N2    Zn1   S    
C34   C39   S    
C28   H21   S    
C32   H26   S    
C3    C8    S    
C39   C40   S    
C5    C7    D    
C6    C8    D    
C36   H40   S    
C25   C26   S    
C35   H31   S    
C23   C44   A    
C9    H34   S    
C7    H1    S    
O8    Zn1   S    
C28   H20   S    
O7    Zn2   S    
C37   C38   S    
C21   H51   S    
C11   C16   S    
C31   C32   S    
C17   C18   T    
C26   C27   S    
C40   H46   S    
C43   C45   A    
C22   H3    S    
C29   H19   S    
C40   C41   S    
C5    O12   S    
C20   H49   S    
C2    N1    T    
C13   C15   A    
C38   H35   S    
C3    O8    A    
C22   C24   S    
C1    O1    A    
C32   H27   S    
C44   C45   A    
C41   H42   S    
C46   N2    T    
C36   C37   S    
C4    O11   A    
C34   C43   A    
C10   C13   A    
C26   H10   S    
C12   O7    A    
C27   H7    S    
C21   H50   S    
C36   H39   S    
C35   H32   S    
C22   O2    S    
C13   C17   S    
C30   H16   S    
C21   H52   S    
C15   C28   S    
C5    C6    S    
C16   C19   T    
C12   C19   S    
C33   C35   S    
O11   Zn2   S    
C6    O2    S    
C14   C25   S    
C26   H11   S    
C10   H23   S    
C33   H28   S    
C20   C21   S    
C23   C36   S    
C30   H15   S    
C14   C15   A    
C37   H37   S    
C25   H13   S    
C40   H44   S    
C31   O3    S    
