data_mof_unit_56159.cif
_audit_creation_date              2012-12-10T17:15:53-0500
_audit_creation_method            fapswitch 2.2
_symmetry_space_group_name_H-M    P1
_symmetry_Int_Tables_number       1
_space_group_crystal_system       triclinic
_cell_length_a                    10.207356
_cell_length_b                    10.698624
_cell_length_c                    10.53375
_cell_angle_alpha                 91.569026
_cell_angle_beta                  94.315986
_cell_angle_gamma                 82.817449
_cell_volume                      1137.88341369

loop_
_atom_site_label
_atom_site_type_symbol
_atom_type_description
_atom_site_fract_x
_atom_site_fract_y
_atom_site_fract_z
_atom_type_partial_charge
C1    C     C_R   0.446138 0.520751 0.267320 0.891808
C2    C     C_R   0.543531 0.054983 0.373302 0.003291
C3    C     C_R   0.486982 0.129040 0.474164 -0.053822
C4    C     C_R   0.431028 0.074892 0.572272 -0.156916
C5    C     C_R   0.436505 0.946897 0.576772 -0.142807
C6    C     C_R   0.503342 0.871367 0.486671 -0.042535
C7    C     C_2   0.419633 0.551918 0.133691 0.270257
C8    C     C_2   0.518441 0.590236 0.073572 -0.218595
C9    C     C_2   0.583698 0.508262 0.869915 0.142776
C10   C     C_2   0.512179 0.597831 0.936685 0.385494
C11   C     C_2   0.075747 0.475391 0.502445 0.517978
C12   C     C_R   0.495787 0.261085 0.489228 0.945563
C13   C     C_2   0.932341 0.486797 0.528812 -0.071520
C14   C     C_R   0.554586 0.496773 0.733988 0.881044
C15   C     C_R   0.501291 0.739346 0.496660 0.839144
C16   C     C_R   0.576686 0.105636 0.258337 0.340763
C17   C     C_R   0.649921 0.030647 0.171928 -0.140023
C18   C     C_R   0.679441 0.902348 0.190469 0.394575
C19   C     C_R   0.630036 0.847811 0.292299 -0.259144
C20   C     C_R   0.561298 0.923086 0.385285 -0.003572
H1    H     H_    0.386092 0.131887 0.647987 0.184303
H2    H     H_    0.903031 0.521656 0.621359 0.124543
H3    H     H_    0.676295 0.070822 0.085456 0.228343
H4    H     H_    0.645975 0.746736 0.294591 0.197665
H5    H     H_    0.391706 0.906303 0.653446 0.206756
H6    H     H_    0.614077 0.598599 0.123372 0.205230
N1    N     N_2   0.157290 0.551390 0.551110 -0.115895
N2    N     N_2   0.842740 0.448550 0.448960 0.071165
O1    O     O_R   0.568950 0.489660 0.307530 -0.576696
O2    O     O_R   0.348880 0.522640 0.340350 -0.531911
O3    O     O_R   0.610060 0.300270 0.483590 -0.582739
O4    O     O_R   0.389990 0.333260 0.516410 -0.568579
O5    O     O_R   0.651120 0.477360 0.659650 -0.599897
O6    O     O_R   0.431050 0.510340 0.692470 -0.575223
O7    O     O_R   0.610010 0.666740 0.483590 -0.639942
O8    O     O_R   0.389940 0.699730 0.516410 -0.606497
Zn1   Zn    Zn3+2 0.646940 0.477980 0.478090 1.080760
Zn2   Zn    Zn3+2 0.353060 0.522020 0.521910 1.081094
Cl1   Cl    Cl    0.263672 0.532977 0.055931 -0.399015
Cl2   Cl    Cl    0.137289 0.346135 0.407334 -0.422482
Cl3   Cl    Cl    0.866626 0.447722 0.287323 -0.323536
C21   C     C_3   0.110655 0.654790 0.634510 -0.595747
H7    H     H_    0.191158 0.713898 0.657657 0.279499
H8    H     H_    0.025444 0.715167 0.587008 0.195759
H9    H     H_    0.082798 0.618169 0.725106 0.237269
Cl4   Cl    Cl    0.496168 0.246590 0.197384 -0.524846
Cl5   Cl    Cl    0.767826 0.808045 0.078775 -0.508189
Cl6   Cl    Cl    0.407287 0.725151 0.865843 -0.575842
Cl7   Cl    Cl    0.702456 0.393338 0.943891 -0.469110

loop_
_geom_bond_atom_site_label_1
_geom_bond_atom_site_label_2
_ccdc_geom_bond_type
C14   O6    A    
C9    C14   S    
C13   N2    D    
O4    Zn2   S    
C2    C16   A    
C9    C10   D    
C15   O8    A    
C19   C20   A    
C11   N1    D    
C18   Cl5   S    
C14   O5    A    
O8    Zn2   S    
C19   H4    S    
C9    Cl7   S    
C7    C8    D    
O6    Zn2   S    
C12   O4    A    
C4    H1    S    
C11   C13   S    
N1    C21   S    
C17   H3    S    
C21   H8    S    
N2    Zn1   S    
C5    H5    S    
C5    C6    A    
C1    O1    A    
C1    O2    A    
O7    Zn1   S    
C13   H2    S    
C17   C18   A    
C2    C3    A    
C12   O3    A    
C10   Cl6   S    
C11   Cl2   S    
C21   H7    S    
C8    H6    S    
N1    Zn2   S    
O1    Zn1   S    
C3    C4    A    
N2    Cl3   S    
C6    C20   A    
O2    Zn2   S    
C8    C10   S    
C18   C19   A    
C16   Cl4   S    
C15   O7    A    
C7    Cl1   S    
C4    C5    A    
C3    C12   S    
C6    C15   S    
C1    C7    S    
C2    C20   A    
O5    Zn1   S    
O3    Zn1   S    
C16   C17   A    
C21   H9    S    
