data_mof_unit_54395.cif
_audit_creation_date              2012-12-10T18:22:26-0500
_audit_creation_method            fapswitch 2.2
_symmetry_space_group_name_H-M    P1
_symmetry_Int_Tables_number       1
_space_group_crystal_system       triclinic
_cell_length_a                    23.633871
_cell_length_b                    10.933563
_cell_length_c                    9.635756
_cell_angle_alpha                 88.103618
_cell_angle_beta                  88.222802
_cell_angle_gamma                 91.471769
_cell_volume                      2486.45261499

loop_
_atom_site_label
_atom_site_type_symbol
_atom_type_description
_atom_site_fract_x
_atom_site_fract_y
_atom_site_fract_z
_atom_type_partial_charge
C1    C     C_R   0.503104 0.260195 0.501834 0.806913
C2    C     C_R   0.500625 0.740643 0.497458 0.792428
C3    C     C_R   0.246030 0.579376 0.379844 0.127700
C4    C     C_R   0.758668 0.453927 0.347002 0.167302
C5    C     C_R   0.301630 0.593937 0.428053 0.021409
C6    C     C_R   0.701432 0.423052 0.382627 0.050139
C7    C     C_R   0.327550 0.495320 0.496568 -0.120102
C8    C     C_R   0.673663 0.488186 0.489748 -0.125949
C9    C     C_R   0.292648 0.393809 0.542465 0.055227
C10   C     C_R   0.709659 0.549091 0.583698 0.070898
C11   C     C_R   0.232689 0.402140 0.539556 0.133126
C12   C     C_R   0.768283 0.524472 0.581077 0.145283
C13   C     C_R   0.209542 0.490945 0.448598 0.272054
C14   C     C_R   0.793672 0.492137 0.453835 0.256210
C15   C     C_3   0.554980 0.038239 0.551093 0.158080
C16   C     C_3   0.455621 0.966386 0.444753 0.168857
C17   C     C_3   0.548658 0.964347 0.418397 0.142637
C18   C     C_3   0.463159 0.036202 0.579438 0.143389
C19   C     C_3   0.503148 0.878978 0.491059 -0.123969
C20   C     C_3   0.507147 0.123015 0.505570 -0.118367
C21   C     C_3   0.510491 0.950806 0.625215 -0.194509
C22   C     C_3   0.501926 0.051103 0.371500 -0.183761
C23   C     C_R   0.391071 0.495888 0.501001 0.810073
C24   C     C_R   0.609332 0.494944 0.497820 0.798043
C25   C     C_3   0.485093 0.604673 0.047310 0.217192
C26   C     C_3   0.513691 0.395006 0.954372 0.214540
C27   C     C_3   0.450039 0.523350 0.954093 0.154205
C28   C     C_3   0.549008 0.478040 0.045773 0.158057
C29   C     C_3   0.534484 0.582108 0.944405 0.153146
C30   C     C_3   0.464256 0.419077 0.057104 0.146160
C31   C     C_R   0.883990 0.603525 0.431906 0.551758
C32   C     C_R   0.120926 0.397326 0.376463 0.547819
C33   C     C_R   0.882230 0.385720 0.425990 0.547111
C34   C     C_R   0.120603 0.596557 0.470006 0.559948
C35   C     C_R   0.941850 0.384744 0.416471 -0.092337
C36   C     C_R   0.062217 0.605902 0.446379 -0.097222
C37   C     C_R   0.972363 0.496673 0.416327 -0.079159
C38   C     C_R   0.032127 0.497989 0.414366 -0.083054
C39   C     C_R   0.943571 0.607075 0.420178 -0.096002
C40   C     C_R   0.061216 0.391527 0.380437 -0.096721
C41   C     C_R   0.972099 0.276239 0.404887 0.174273
C42   C     C_R   0.032748 0.717422 0.448725 0.158899
C43   C     C_R   0.029263 0.282772 0.360375 0.162432
C44   C     C_R   0.975404 0.717300 0.412903 0.182001
Cu1   Cu    Cu3+1 0.500010 0.499990 0.643150 0.942628
Cu2   Cu    Cu3+1 0.499990 0.500010 0.356850 0.940759
H1    H     H_    0.515298 0.913584 0.731455 0.183176
H2    H     H_    0.500430 0.090979 0.264634 0.194149
N1    N     N_R   0.854648 0.493862 0.435654 -0.449143
N2    N     N_R   0.148994 0.494993 0.430714 -0.444698
N3    N     N_3   0.500040 0.499970 0.858290 -0.246394
N4    N     N_3   0.499960 0.500030 0.141710 -0.242043
O1    O     O_R   0.500030 0.316850 0.620870 -0.538593
O2    O     O_R   0.499970 0.683150 0.379130 -0.534877
O3    O     O_R   0.500000 0.316860 0.379090 -0.613043
O4    O     O_R   0.500000 0.683140 0.620910 -0.610984
O5    O     O_R   0.417890 0.499960 0.620920 -0.591595
O6    O     O_R   0.582110 0.500040 0.379080 -0.602591
O7    O     O_R   0.417870 0.499970 0.379140 -0.585723
O8    O     O_R   0.582130 0.500030 0.620860 -0.569294
O9    O     O_2   0.855531 0.708034 0.445464 -0.508251
O10   O     O_2   0.151118 0.305233 0.325372 -0.512678
O11   O     O_2   0.851696 0.280183 0.422956 -0.535702
O12   O     O_2   0.149012 0.685675 0.533952 -0.516929
I1    I     I_    0.942681 0.114354 0.515755 -0.160001
I2    I     I_    0.070494 0.887591 0.503742 -0.164679
C45   C     C_3   0.392010 0.562322 0.903592 -0.340555
C46   C     C_3   0.348733 0.586288 0.020191 -0.855980
H3    H     H_    0.350342 0.517417 0.106764 0.270054
H4    H     H_    0.354950 0.678606 0.061401 0.285508
H5    H     H_    0.305740 0.582572 0.977278 0.242062
H6    H     H_    0.397811 0.646184 0.836423 0.217790
H7    H     H_    0.373704 0.489443 0.842620 0.229316
C47   C     C_3   0.606827 0.442542 0.093517 -0.349043
C48   C     C_3   0.647308 0.409689 0.973118 -0.849508
H8    H     H_    0.627738 0.420545 0.870516 0.293948
H9    H     H_    0.686141 0.468956 0.971694 0.230673
H10   H     H_    0.660136 0.313068 0.985311 0.268243
H11   H     H_    0.626169 0.518221 0.151033 0.227952
H12   H     H_    0.598075 0.361706 0.163366 0.216008
I3    I     I_    0.463512 0.785615 0.106782 -0.434195
I4    I     I_    0.533803 0.211136 0.907780 -0.420344
C49   C     C_3   0.567065 0.694240 0.882754 -0.343918
C50   C     C_3   0.615055 0.737764 0.972810 -0.863023
H13   H     H_    0.599203 0.747500 0.081002 0.274078
H14   H     H_    0.650144 0.672882 0.972972 0.247109
H15   H     H_    0.631944 0.828017 0.932005 0.270755
H16   H     H_    0.581148 0.677732 0.776575 0.249277
H17   H     H_    0.537416 0.769395 0.871831 0.214620
C51   C     C_3   0.426511 0.317961 0.130454 -0.316926
C52   C     C_3   0.385097 0.256124 0.037227 -0.882944
H18   H     H_    0.352836 0.321684 0.004997 0.263147
H19   H     H_    0.407900 0.218454 0.947356 0.283243
H20   H     H_    0.362519 0.179344 0.094955 0.292833
H21   H     H_    0.453992 0.246938 0.172900 0.238780
H22   H     H_    0.401408 0.354603 0.216780 0.239010
I5    I     I_    0.059004 0.138070 0.237183 -0.169492
I6    I     I_    0.946367 0.861312 0.281307 -0.170296
C53   C     C_3   0.226306 0.657659 0.257132 -0.384673
C54   C     C_3   0.201414 0.581069 0.142399 -0.793509
H23   H     H_    0.226017 0.497053 0.127225 0.261254
H24   H     H_    0.156493 0.555441 0.166799 0.261855
H25   H     H_    0.202559 0.635760 0.043075 0.244611
H26   H     H_    0.195065 0.725033 0.291888 0.251433
H27   H     H_    0.262523 0.710363 0.206823 0.208407
C55   C     C_3   0.782339 0.441185 0.199992 -0.401820
C56   C     C_3   0.793627 0.567146 0.130122 -0.824485
H28   H     H_    0.753193 0.615445 0.117826 0.247655
H29   H     H_    0.822553 0.623750 0.191465 0.289365
H30   H     H_    0.814003 0.556722 0.026348 0.242898
H31   H     H_    0.752613 0.390703 0.134898 0.210212
H32   H     H_    0.821876 0.389047 0.198678 0.236063
C57   C     C_3   0.329141 0.719509 0.429951 -0.353161
C58   C     C_3   0.337381 0.758027 0.579638 -0.785148
H33   H     H_    0.301940 0.723190 0.649870 0.265484
H34   H     H_    0.377896 0.723575 0.617495 0.237454
H35   H     H_    0.338733 0.859016 0.584792 0.266675
H36   H     H_    0.370262 0.720855 0.371005 0.249361
H37   H     H_    0.301778 0.788857 0.382464 0.240968
C59   C     C_3   0.678650 0.299669 0.339141 -0.455394
C60   C     C_3   0.718224 0.196970 0.381151 -0.675287
H38   H     H_    0.756936 0.199959 0.312864 0.269946
H39   H     H_    0.730925 0.205400 0.490486 0.292084
H40   H     H_    0.696991 0.106738 0.368747 0.247094
H41   H     H_    0.635783 0.279065 0.385863 0.222524
H42   H     H_    0.676562 0.296730 0.225724 0.207939
C61   C     C_3   0.318350 0.276401 0.589698 -0.385760
C62   C     C_3   0.324089 0.273490 0.746024 -0.888561
H43   H     H_    0.366983 0.308494 0.766211 0.261678
H44   H     H_    0.293021 0.331472 0.799913 0.268767
H45   H     H_    0.318300 0.178666 0.789295 0.264118
H46   H     H_    0.292138 0.197015 0.557510 0.224751
H47   H     H_    0.360347 0.265701 0.537091 0.191865
C63   C     C_3   0.688232 0.645671 0.677638 -0.400907
C64   C     C_3   0.663163 0.752257 0.596147 -0.807074
H48   H     H_    0.695414 0.792557 0.520409 0.270929
H49   H     H_    0.624959 0.724725 0.540308 0.226868
H50   H     H_    0.650898 0.823355 0.669493 0.271213
H51   H     H_    0.659105 0.599810 0.753866 0.221511
H52   H     H_    0.721984 0.689460 0.737109 0.217591
C65   C     C_3   0.193842 0.321586 0.636692 -0.368558
C66   C     C_3   0.168553 0.395605 0.754092 -0.792216
H53   H     H_    0.202617 0.443209 0.810095 0.248402
H54   H     H_    0.139093 0.464289 0.713350 0.267160
H55   H     H_    0.144442 0.333303 0.829122 0.260964
H56   H     H_    0.159380 0.276520 0.580968 0.239784
H57   H     H_    0.215922 0.244492 0.685915 0.229265
C67   C     C_3   0.802649 0.524152 0.712570 -0.419277
C68   C     C_3   0.815861 0.393657 0.760728 -0.779420
H58   H     H_    0.776050 0.337735 0.775312 0.265652
H59   H     H_    0.844295 0.349536 0.685414 0.283547
H60   H     H_    0.837399 0.395332 0.861442 0.240785
H61   H     H_    0.842423 0.579503 0.696472 0.234942
H62   H     H_    0.779502 0.562494 0.801487 0.193367
C69   C     C_3   0.598113 0.922264 0.326676 -0.407576
C70   C     C_3   0.607375 0.001643 0.194252 -0.781829
H63   H     H_    0.610511 0.099951 0.218957 0.254894
H64   H     H_    0.647268 0.976206 0.139992 0.251315
H65   H     H_    0.571841 0.986975 0.123465 0.292726
H66   H     H_    0.637315 0.925145 0.386421 0.215951
H67   H     H_    0.590151 0.826065 0.298627 0.218375
C71   C     C_3   0.415280 0.068202 0.680350 -0.421092
C72   C     C_3   0.407712 0.979142 0.805701 -0.787106
H68   H     H_    0.367461 0.996674 0.863062 0.256805
H69   H     H_    0.406677 0.882945 0.772903 0.254411
H70   H     H_    0.442883 0.992312 0.877725 0.294237
H71   H     H_    0.424949 0.159996 0.718438 0.242181
H72   H     H_    0.375297 0.068428 0.624114 0.229373
I7    I     I_    0.631329 0.088121 0.650086 -0.454116
I8    I     I_    0.380936 0.992766 0.327821 -0.507567

loop_
_geom_bond_atom_site_label_1
_geom_bond_atom_site_label_2
_ccdc_geom_bond_type
C64   H50   S    
C22   H2    S    
Cu1   O8    S    
Cu2   O7    S    
C18   C21   S    
C18   C71   S    
C31   O9    S    
C36   C42   A    
C72   H68   S    
C50   H15   S    
C30   C51   S    
C28   C47   S    
C62   H43   S    
C58   H33   S    
C51   H21   S    
C55   H32   S    
Cu1   Cu2   S    
C69   H67   S    
C23   O7    A    
Cu1   O5    S    
C9    C61   S    
C67   H62   S    
C28   C29   S    
C72   H69   S    
C50   H14   S    
C29   C49   S    
C68   H59   S    
C63   H52   S    
C33   C35   A    
C59   H42   S    
C14   N1    S    
C55   C56   S    
Cu1   N3    S    
C33   N1    A    
Cu2   N4    S    
C15   I7    S    
C64   H49   S    
C45   H6    S    
C1    O1    A    
C61   H46   S    
C60   H40   S    
C17   C19   S    
C57   H37   S    
C44   I6    S    
C40   C43   A    
C49   C50   S    
Cu1   O4    S    
C46   H3    S    
Cu2   O3    S    
C56   H28   S    
C45   H7    S    
C41   C43   A    
C18   C20   S    
C3    C13   A    
C24   O8    A    
C5    C57   S    
C57   H36   S    
C53   H26   S    
C69   H66   S    
Cu1   O1    S    
C26   I4    S    
C47   H12   S    
Cu2   O6    S    
C27   C30   S    
C25   I3    S    
C56   H29   S    
C66   H55   S    
C42   C44   A    
C31   N1    A    
C53   H27   S    
C6    C59   S    
C27   N3    S    
C7    C9    A    
C55   H31   S    
C25   C29   S    
C15   C20   S    
C49   H17   S    
C34   N2    A    
C47   C48   S    
C45   C46   S    
C10   C63   S    
C64   H48   S    
C72   H70   S    
C67   C68   S    
C4    C6    A    
C2    O2    A    
C68   H60   S    
C52   H18   S    
C5    C7    A    
C59   H41   S    
C6    C8    A    
C4    C55   S    
C54   H25   S    
C13   N2    S    
C71   C72   S    
C48   H8    S    
C37   C38   A    
C3    C53   S    
C52   H19   S    
C48   H9    S    
C58   H34   S    
C53   C54   S    
C33   O11   S    
Cu2   O2    S    
C34   O12   S    
C16   C18   S    
C50   H13   S    
C11   C65   S    
C32   N2    A    
C60   H38   S    
C57   C58   S    
C10   C12   A    
C65   H56   S    
C23   O5    A    
C24   O6    A    
C20   C22   S    
C26   C30   S    
C47   H11   S    
C9    C11   A    
C56   H30   S    
C71   H72   S    
C26   N3    S    
C67   H61   S    
C61   C62   S    
C17   C69   S    
C62   H45   S    
C63   H51   S    
C66   H54   S    
C59   C60   S    
C35   C37   A    
C54   H24   S    
C29   N3    S    
C15   C17   S    
C30   N4    S    
C70   H63   S    
C1    C20   S    
C16   C22   S    
C19   C21   S    
C2    C19   S    
C70   H65   S    
C61   H47   S    
C12   C14   A    
C3    C5    A    
C62   H44   S    
C41   I1    S    
C51   H22   S    
C39   C44   A    
C28   N4    S    
C25   C27   S    
C63   C64   S    
C26   C28   S    
C17   C22   S    
C12   C67   S    
C70   H64   S    
C1    O3    A    
C25   N4    S    
C32   O10   S    
C37   C39   A    
C2    O4    A    
C68   H58   S    
C52   H20   S    
C38   C40   A    
C11   C13   A    
C51   C52   S    
C46   H5    S    
C7    C23   S    
C36   C38   A    
C54   H23   S    
C8    C24   S    
C31   C39   A    
C49   H16   S    
C34   C36   A    
C32   C40   A    
C4    C14   A    
C35   C41   A    
C48   H10   S    
C60   H39   S    
C58   H35   S    
C27   C45   S    
C65   H57   S    
C71   H71   S    
C16   I8    S    
C15   C21   S    
C8    C10   A    
C43   I5    S    
C69   C70   S    
C42   I2    S    
C46   H4    S    
C66   H53   S    
C65   C66   S    
C21   H1    S    
C16   C19   S    
