data_mof_unit_42408.cif
_audit_creation_date              2012-12-10T17:28:32-0500
_audit_creation_method            fapswitch 2.2
_symmetry_space_group_name_H-M    P1
_symmetry_Int_Tables_number       1
_space_group_crystal_system       triclinic
_cell_length_a                    10.625093
_cell_length_b                    11.926898
_cell_length_c                    12.897271
_cell_angle_alpha                 92.98909
_cell_angle_beta                  89.854736
_cell_angle_gamma                 87.191265
_cell_volume                      1630.19330719

loop_
_atom_site_label
_atom_site_type_symbol
_atom_type_description
_atom_site_fract_x
_atom_site_fract_y
_atom_site_fract_z
_atom_type_partial_charge
C1    C     C_R   0.498819 0.521836 0.700546 0.884935
C2    C     C_R   0.480961 0.561292 0.132145 -0.280356
C3    C     C_R   0.513310 0.446938 0.974440 0.186941
C4    C     C_R   0.486690 0.553062 0.025560 0.186941
C5    C     C_R   0.365480 0.955483 0.419524 -0.349972
C6    C     C_R   0.634519 0.044517 0.580477 -0.349974
C7    C     C_R   0.380659 0.838706 0.425119 0.019323
C8    C     C_R   0.619340 0.161294 0.574881 0.019326
C9    C     C_R   0.560828 0.857556 0.531966 -0.074345
C10   C     C_R   0.439171 0.142444 0.468035 -0.074344
C11   C     C_R   0.549628 0.975300 0.528472 0.097341
C12   C     C_R   0.501181 0.478164 0.299454 0.884947
C13   C     C_R   0.450371 0.024700 0.471529 0.097341
C14   C     C_R   0.739820 0.499412 0.484727 0.895771
C15   C     C_R   0.260182 0.500589 0.515281 0.895777
C16   C     C_R   0.899346 0.294201 0.431482 -0.126210
C17   C     C_R   0.100664 0.705804 0.568530 -0.126199
C18   C     C_R   0.960693 0.191948 0.452435 -0.158217
C19   C     C_R   0.039312 0.808056 0.547573 -0.158203
C20   C     C_R   0.068830 0.190758 0.512823 -0.177802
C21   C     C_R   0.931165 0.809243 0.487199 -0.177818
C22   C     C_R   0.120559 0.291832 0.545384 -0.131574
C23   C     C_R   0.502637 0.465293 0.188266 -0.052762
C24   C     C_R   0.879440 0.708169 0.454639 -0.131579
C25   C     C_R   0.064976 0.396255 0.516846 0.090892
C26   C     C_R   0.935025 0.603747 0.483177 0.090884
C27   C     C_R   0.945995 0.397182 0.470957 0.083907
C28   C     C_R   0.054008 0.602820 0.529063 0.083911
C29   C     C_R   0.124429 0.499503 0.531977 -0.263204
C30   C     C_R   0.875574 0.500499 0.468041 -0.263202
C31   C     C_R   0.497363 0.534707 0.811734 -0.052758
C32   C     C_R   0.466624 0.649417 0.969452 -0.222011
C33   C     C_R   0.533376 0.350583 0.030548 -0.222011
C34   C     C_R   0.471987 0.640253 0.862153 -0.208807
C35   C     C_R   0.528013 0.359747 0.137847 -0.208806
C36   C     C_R   0.519039 0.438708 0.867855 -0.280357
H1    H     H_    0.886228 0.888456 0.466795 0.134013
H2    H     H_    0.539736 0.357028 0.828873 0.160584
H3    H     H_    0.544952 0.285064 0.181097 0.161499
H4    H     H_    0.455048 0.714936 0.818903 0.161499
H5    H     H_    0.446385 0.731105 0.008358 0.138566
H6    H     H_    0.553615 0.268895 0.991642 0.138566
H7    H     H_    0.364470 0.182211 0.423910 0.139324
H8    H     H_    0.635528 0.817789 0.576092 0.139323
H9    H     H_    0.685145 0.215009 0.614342 0.145131
H10   H     H_    0.314854 0.784991 0.385658 0.145131
H11   H     H_    0.288118 0.991182 0.375416 0.148785
H12   H     H_    0.113766 0.111545 0.533232 0.134007
H13   H     H_    0.711879 0.008818 0.624585 0.148784
H14   H     H_    0.815307 0.292312 0.384245 0.146917
H15   H     H_    0.184713 0.707700 0.615763 0.146910
H16   H     H_    0.922457 0.113694 0.424114 0.132759
H17   H     H_    0.077554 0.886311 0.575890 0.132752
H18   H     H_    0.202423 0.287249 0.594910 0.157230
H19   H     H_    0.797586 0.712747 0.405108 0.157240
H20   H     H_    0.460264 0.642972 0.171127 0.160584
N1    N     N_R   0.523130 0.207800 0.519340 -0.105219
N2    N     N_R   0.476870 0.792200 0.480660 -0.105219
O1    O     O_R   0.506170 0.421700 0.658830 -0.628747
O2    O     O_R   0.493830 0.578300 0.341170 -0.628744
O3    O     O_R   0.491330 0.609310 0.646410 -0.629250
O4    O     O_R   0.508670 0.390690 0.353590 -0.629245
O5    O     O_R   0.690650 0.406190 0.506220 -0.621963
O6    O     O_R   0.309350 0.593810 0.493780 -0.621963
O7    O     O_R   0.675800 0.593810 0.493800 -0.624003
O8    O     O_R   0.324200 0.406190 0.506200 -0.624000
Zn1   Zn    Zn3+2 0.509910 0.374730 0.508290 0.930513
Zn2   Zn    Zn3+2 0.490090 0.625270 0.491710 0.930512

loop_
_geom_bond_atom_site_label_1
_geom_bond_atom_site_label_2
_ccdc_geom_bond_type
C35   H3    S    
C15   O6    A    
C15   C29   S    
C19   C21   A    
C8    N1    A    
C25   C27   A    
C12   O4    A    
C7    N2    A    
C5    C13   A    
C12   C23   S    
C20   C22   A    
C32   H5    S    
O7    Zn2   S    
O1    Zn1   S    
C19   H17   S    
C16   C27   A    
C36   H2    S    
O8    Zn1   S    
C31   C34   A    
C18   H16   S    
C22   H18   S    
C2    H20   S    
C15   O8    A    
C27   C30   A    
C9    C11   A    
O3    Zn2   S    
C17   H15   S    
C4    C32   A    
C33   H6    S    
C3    C36   A    
N1    Zn1   S    
C34   H4    S    
C2    C4    A    
O6    Zn2   S    
N2    Zn2   S    
C28   C29   A    
C17   C19   A    
C14   O7    A    
C16   H14   S    
C26   C30   A    
C23   C35   A    
C1    O1    A    
C6    H13   S    
C25   C29   A    
O5    Zn1   S    
C11   C13   A    
O4    Zn1   S    
C14   O5    A    
C6    C11   A    
C3    C4    A    
C12   O2    A    
C7    H10   S    
C1    C31   S    
C10   N1    A    
C21   H1    S    
O2    Zn2   S    
C18   C20   A    
C16   C18   A    
C9    N2    A    
C21   C24   A    
C2    C23   A    
C5    C7    A    
C3    C33   A    
C8    H9    S    
C5    H11   S    
C9    H8    S    
C6    C8    A    
C20   H12   S    
C33   C35   A    
C10   H7    S    
C31   C36   A    
C17   C28   A    
C26   C28   A    
C10   C13   A    
C14   C30   S    
C24   C26   A    
C32   C34   A    
C24   H19   S    
C22   C25   A    
C1    O3    A    
