data_mof_unit_9276.cif
_audit_creation_date              2012-12-10T18:46:21-0500
_audit_creation_method            fapswitch 2.2
_symmetry_space_group_name_H-M    P1
_symmetry_Int_Tables_number       1
_space_group_crystal_system       triclinic
_cell_length_a                    9.869757
_cell_length_b                    10.712005
_cell_length_c                    13.029241
_cell_angle_alpha                 90.025544
_cell_angle_beta                  71.642738
_cell_angle_gamma                 90.010177
_cell_volume                      1307.41480102

loop_
_atom_site_label
_atom_site_type_symbol
_atom_type_description
_atom_site_fract_x
_atom_site_fract_y
_atom_site_fract_z
_atom_type_partial_charge
C1    C     C_R   0.500020 0.740038 0.500073 0.849987
C2    C     C_R   0.385180 0.574666 0.811557 -0.176076
C3    C     C_R   0.608343 0.936053 0.526280 -0.195594
C4    C     C_R   0.424237 0.521479 0.701398 0.885284
C5    C     C_R   0.608394 0.063986 0.526162 -0.193760
C6    C     C_R   0.499795 0.127462 0.500346 -0.015900
C7    C     C_R   0.391061 0.063864 0.474793 -0.194580
C8    C     C_R   0.391073 0.935960 0.474826 -0.194566
C9    C     C_R   0.499816 0.872492 0.500427 -0.002981
C10   C     C_R   0.940706 0.396038 0.469910 -0.076703
C11   C     C_R   0.084376 0.396179 0.469681 -0.070987
C12   C     C_R   0.452109 0.610089 0.973232 0.064043
C13   C     C_R   0.059462 0.604040 0.529781 -0.090137
C14   C     C_R   0.916295 0.604255 0.529019 -0.089098
C15   C     C_R   0.499908 0.259965 0.500100 0.881555
C16   C     C_R   0.577848 0.501663 0.295751 0.874986
C17   C     C_R   0.805508 0.535609 0.005571 -0.172433
C18   C     C_R   0.623137 0.521056 0.179379 -0.061835
C19   C     C_R   0.241664 0.597933 0.870546 -0.190712
C20   C     C_R   0.205474 0.638761 0.977766 0.153724
C21   C     C_R   0.308582 0.637896 0.030711 -0.248578
C22   C     C_R   0.492045 0.602484 0.860135 0.090615
C23   C     C_R   0.557497 0.585982 0.023199 0.086184
C24   C     C_R   0.702912 0.575801 0.959324 0.173297
C25   C     C_R   0.742634 0.604152 0.849702 -0.259911
C26   C     C_R   0.637634 0.620880 0.801009 -0.178788
C27   C     C_R   0.520384 0.559107 0.132987 -0.261675
C28   C     C_R   0.765661 0.507763 0.115463 -0.201483
H1    H     H_    0.845409 0.475504 0.150392 0.153221
H2    H     H_    0.915440 0.522842 0.956085 0.153144
H3    H     H_    0.410267 0.563044 0.183040 0.163504
H4    H     H_    0.158956 0.588031 0.832749 0.154855
H5    H     H_    0.275276 0.663806 0.115139 0.131425
H6    H     H_    0.671880 0.648212 0.717192 0.172959
H7    H     H_    0.692178 0.887305 0.547207 0.142916
H8    H     H_    0.068971 0.773972 0.053016 0.191090
H9    H     H_    0.027060 0.630617 0.106006 0.182128
H10   H     H_    0.692344 0.112824 0.546930 0.152083
H11   H     H_    0.307128 0.112558 0.453960 0.145426
H12   H     H_    0.307142 0.887145 0.454010 0.149445
H13   H     H_    0.897004 0.312754 0.445513 0.126274
H14   H     H_    0.148475 0.313046 0.444998 0.123429
H15   H     H_    0.103253 0.687422 0.553941 0.127970
H16   H     H_    0.853428 0.688304 0.551535 0.114114
H17   H     H_    0.854080 0.608317 0.800917 0.147806
N1    N     N_R   0.142790 0.500030 0.500030 -0.076326
N2    N     N_R   0.857180 0.499940 0.500010 -0.075121
N3    N     N_3   0.063615 0.679890 0.033283 -0.470497
O1    O     O_R   0.385370 0.683250 0.500010 -0.634944
O2    O     O_R   0.614700 0.683220 0.500010 -0.640725
O3    O     O_R   0.328400 0.499990 0.653620 -0.607352
O4    O     O_R   0.557730 0.499960 0.653620 -0.611162
O5    O     O_R   0.385300 0.316780 0.499990 -0.624764
O6    O     O_R   0.614630 0.316750 0.499990 -0.626131
O7    O     O_R   0.442270 0.500040 0.346380 -0.616129
O8    O     O_R   0.671600 0.500010 0.346380 -0.610440
Zn1   Zn    Zn3+2 0.346870 0.500020 0.500000 0.939487
Zn2   Zn    Zn3+2 0.653130 0.499980 0.500000 0.938434

loop_
_geom_bond_atom_site_label_1
_geom_bond_atom_site_label_2
_ccdc_geom_bond_type
C2    C22   A    
O1    Zn1   S    
C2    C4    S    
C23   C24   A    
C16   O8    A    
C6    C7    A    
C3    C9    A    
C23   C27   A    
C1    O2    A    
C19   C20   A    
C3    H7    S    
C3    C5    A    
C25   C26   A    
C16   O7    A    
C18   C28   A    
C7    C8    A    
C5    H10   S    
C24   C25   A    
H9    N3    S    
C17   H2    S    
C12   C23   A    
C20   N3    S    
O4    Zn2   S    
C4    O4    A    
O3    Zn1   S    
C19   H4    S    
C15   O5    A    
C14   H16   S    
C28   H1    S    
C14   N2    A    
O8    Zn2   S    
H8    N3    S    
O7    Zn1   S    
N1    Zn1   S    
C22   C26   A    
C5    C6    A    
C12   C22   A    
C17   C24   A    
C21   H5    S    
C10   C11   A    
C4    O3    A    
C27   H3    S    
O2    Zn2   S    
C15   O6    A    
C25   H17   S    
C13   H15   S    
C1    C9    S    
C20   C21   A    
C11   H14   S    
C16   C18   S    
O6    Zn2   S    
C10   N2    A    
C7    H11   S    
C13   N1    A    
C11   N1    A    
O5    Zn1   S    
C8    H12   S    
N2    Zn2   S    
C6    C15   S    
C13   C14   A    
C17   C28   A    
C1    O1    A    
C12   C21   A    
C26   H6    S    
C18   C27   A    
C2    C19   A    
C8    C9    A    
C10   H13   S    
