data_mof_unit_60658.cif
_audit_creation_date              2012-12-10T18:08:37-0500
_audit_creation_method            fapswitch 2.2
_symmetry_space_group_name_H-M    P1
_symmetry_Int_Tables_number       1
_space_group_crystal_system       triclinic
_cell_length_a                    18.361862
_cell_length_b                    18.361825
_cell_length_c                    51.265973
_cell_angle_alpha                 89.999916
_cell_angle_beta                  89.999915
_cell_angle_gamma                 89.867251
_cell_volume                      17284.6504777

loop_
_atom_site_label
_atom_site_type_symbol
_atom_type_description
_atom_site_fract_x
_atom_site_fract_y
_atom_site_fract_z
_atom_type_partial_charge
C1    C     C_R   0.000000 0.500000 0.820081 0.951776
C2    C     C_R   0.984503 0.434818 0.362657 -0.110869
C3    C     C_R   0.196299 0.696299 0.750000 -0.338701
C4    C     C_R   0.303730 0.196270 0.250000 -0.337630
C5    C     C_R   0.696270 0.803730 0.750000 -0.337630
C6    C     C_R   0.196299 0.696299 0.250000 -0.338701
C7    C     C_R   0.803701 0.303701 0.750000 -0.338700
C8    C     C_R   0.448310 0.039617 0.945006 0.532300
C9    C     C_R   0.551690 0.960383 0.054994 0.532300
C10   C     C_R   0.960383 0.551690 0.945006 0.532299
C11   C     C_R   0.039617 0.448310 0.054994 0.532299
C12   C     C_R   0.551690 0.960383 0.945006 0.532300
C13   C     C_R   0.434818 0.984504 0.637343 -0.110870
C14   C     C_R   0.448310 0.039617 0.054994 0.532300
C15   C     C_R   0.039617 0.448310 0.945006 0.532300
C16   C     C_R   0.960383 0.551690 0.054994 0.532300
C17   C     C_R   0.948310 0.539618 0.445006 0.532300
C18   C     C_R   0.051690 0.460382 0.554994 0.532300
C19   C     C_R   0.460383 0.051690 0.445006 0.532300
C20   C     C_R   0.539616 0.948310 0.554994 0.532300
C21   C     C_R   0.051689 0.460382 0.445006 0.532299
C22   C     C_R   0.948310 0.539618 0.554994 0.532299
C23   C     C_R   0.539616 0.948309 0.445006 0.532301
C24   C     C_R   0.565182 0.015496 0.362657 -0.110870
C25   C     C_R   0.460383 0.051691 0.554994 0.532300
C26   C     C_R   0.552649 0.959452 0.972435 -0.027177
C27   C     C_R   0.447351 0.040548 0.027565 -0.027177
C28   C     C_R   0.040548 0.447351 0.972435 -0.027176
C29   C     C_R   0.959452 0.552649 0.027565 -0.027176
C30   C     C_R   0.447351 0.040548 0.972435 -0.027176
C31   C     C_R   0.552649 0.959452 0.027565 -0.027176
C32   C     C_R   0.959452 0.552649 0.972435 -0.027176
C33   C     C_R   0.040548 0.447351 0.027565 -0.027176
C34   C     C_R   0.052649 0.459451 0.472435 -0.027176
C35   C     C_R   0.984504 0.434818 0.637343 -0.110870
C36   C     C_R   0.947351 0.540548 0.527565 -0.027176
C37   C     C_R   0.540547 0.947350 0.472435 -0.027176
C38   C     C_R   0.459453 0.052650 0.527565 -0.027176
C39   C     C_R   0.947351 0.540548 0.472435 -0.027176
C40   C     C_R   0.052649 0.459451 0.527565 -0.027176
C41   C     C_R   0.459453 0.052650 0.472435 -0.027177
C42   C     C_R   0.540547 0.947350 0.527565 -0.027177
C43   C     C_R   0.500000 1.000000 0.986201 -0.011601
C44   C     C_R   0.500000 1.000000 0.013799 -0.011601
C45   C     C_R   1.000000 0.500000 0.986201 -0.011602
C46   C     C_R   0.015496 0.565182 0.362657 -0.110870
C47   C     C_R   0.000000 0.500000 0.013799 -0.011602
C48   C     C_R   1.000000 0.500000 0.486201 -0.011601
C49   C     C_R   0.000000 0.500000 0.513799 -0.011601
C50   C     C_R   0.500000 1.000000 0.486201 -0.011601
C51   C     C_R   0.500000 1.000000 0.513799 -0.011601
C52   C     C_R   0.604960 0.919222 0.986376 -0.126520
C53   C     C_R   0.395040 0.080778 0.013624 -0.126521
C54   C     C_R   0.080779 0.395040 0.986376 -0.126520
C55   C     C_R   0.919221 0.604960 0.013624 -0.126520
C56   C     C_R   0.395040 0.080778 0.986376 -0.126520
C57   C     C_R   0.565182 0.015496 0.637343 -0.110869
C58   C     C_R   0.604960 0.919222 0.013624 -0.126520
C59   C     C_R   0.919221 0.604960 0.986376 -0.126520
C60   C     C_R   0.080779 0.395040 0.013624 -0.126520
C61   C     C_R   0.104959 0.419220 0.486376 -0.126520
C62   C     C_R   0.895041 0.580780 0.513624 -0.126520
C63   C     C_R   0.580777 0.895039 0.486376 -0.126520
C64   C     C_R   0.419223 0.104961 0.513624 -0.126520
C65   C     C_R   0.895041 0.580780 0.486376 -0.126520
C66   C     C_R   0.104959 0.419220 0.513624 -0.126520
C67   C     C_R   0.419223 0.104961 0.486376 -0.126521
C68   C     C_R   0.434818 0.984504 0.362657 -0.110869
C69   C     C_R   0.580777 0.895039 0.513624 -0.126520
C70   C     C_R   0.016006 0.563762 0.609943 -0.099879
C71   C     C_R   0.983994 0.436238 0.390057 -0.099879
C72   C     C_R   0.436238 0.983995 0.609943 -0.099880
C73   C     C_R   0.563762 0.016005 0.390057 -0.099880
C74   C     C_R   0.983995 0.436238 0.609943 -0.099879
C75   C     C_R   0.016005 0.563762 0.390057 -0.099879
C76   C     C_R   0.563762 0.016005 0.609942 -0.099879
C77   C     C_R   0.436238 0.983994 0.390058 -0.099879
C78   C     C_R   0.516006 0.063762 0.109942 -0.099879
C79   C     C_R   0.515496 0.065182 0.137343 -0.110870
C80   C     C_R   0.483994 0.936238 0.890057 -0.099879
C81   C     C_R   0.936238 0.483995 0.109942 -0.099879
C82   C     C_R   0.063762 0.516005 0.890057 -0.099878
C83   C     C_R   0.483995 0.936238 0.109942 -0.099879
C84   C     C_R   0.516005 0.063762 0.890057 -0.099879
C85   C     C_R   0.063762 0.516006 0.109942 -0.099879
C86   C     C_R   0.936238 0.483994 0.890058 -0.099879
C87   C     C_2   0.029942 0.635932 0.650686 1.006793
C88   C     C_2   0.970058 0.364067 0.349314 1.006793
C89   C     C_2   0.364068 0.970059 0.650686 1.006793
C90   C     C_R   0.484504 0.934818 0.862657 -0.110870
C91   C     C_2   0.635932 0.029941 0.349314 1.006793
C92   C     C_2   0.970058 0.364067 0.650686 1.006792
C93   C     C_2   0.029942 0.635932 0.349314 1.006792
C94   C     C_2   0.635932 0.029941 0.650686 1.006792
C95   C     C_2   0.364067 0.970059 0.349314 1.006792
C96   C     C_2   0.529942 0.135933 0.150686 1.006792
C97   C     C_2   0.470058 0.864067 0.849314 1.006792
C98   C     C_2   0.864068 0.470059 0.150686 1.006792
C99   C     C_2   0.135932 0.529941 0.849314 1.006792
C100  C     C_2   0.470059 0.864067 0.150686 1.006793
C101  C     C_R   0.934818 0.484504 0.137343 -0.110869
C102  C     C_2   0.529941 0.135933 0.849314 1.006793
C103  C     C_2   0.135932 0.529942 0.150686 1.006792
C104  C     C_2   0.864068 0.470058 0.849314 1.006792
C105  C     C_R   0.000000 0.500000 0.179919 0.951776
C106  C     C_R   0.065182 0.515496 0.862657 -0.110869
C107  C     C_R   0.484504 0.934818 0.137343 -0.110869
C108  C     C_R   0.515496 0.065182 0.862657 -0.110869
C109  C     C_R   0.065182 0.515496 0.137343 -0.110870
C110  C     C_R   0.934818 0.484503 0.862657 -0.110870
C111  C     C_R   0.000000 0.500000 0.651227 -0.142891
C112  C     C_R   1.000000 0.500000 0.348773 -0.142891
C113  C     C_R   0.500000 0.000000 0.651227 -0.142891
C114  C     C_R   0.500000 1.000000 0.348773 -0.142892
C115  C     C_R   0.500000 1.000000 0.151227 -0.142891
C116  C     C_R   0.500000 0.000000 0.820081 0.951775
C117  C     C_R   0.500000 0.000000 0.848773 -0.142892
C118  C     C_R   0.000000 0.500000 0.151227 -0.142892
C119  C     C_R   0.000000 0.500000 0.848773 -0.142892
C120  C     C_R   0.000000 0.500000 0.596252 0.255910
C121  C     C_R   1.000000 0.500000 0.403748 0.255910
C122  C     C_R   0.500000 0.000000 0.596252 0.255911
C123  C     C_R   0.500000 1.000000 0.403748 0.255911
C124  C     C_R   0.500000 0.000000 0.096252 0.255911
C125  C     C_R   0.500000 1.000000 0.903748 0.255911
C126  C     C_R   0.000000 0.500000 0.096252 0.255910
C127  C     C_R   0.500000 1.000000 0.179919 0.951774
C128  C     C_R   1.000000 0.500000 0.903748 0.255910
C129  C     C_R   0.859749 0.640251 0.750000 0.979688
C130  C     C_R   0.140251 0.359749 0.250000 0.979688
C131  C     C_R   0.359715 0.859715 0.750000 0.964093
C132  C     C_R   0.640285 0.140285 0.250000 0.964093
C133  C     C_R   0.140251 0.359749 0.750000 0.979689
C134  C     C_R   0.859749 0.640251 0.250000 0.979690
C135  C     C_R   0.640285 0.140285 0.750000 0.964093
C136  C     C_R   0.359715 0.859715 0.250000 0.964093
C137  C     C_R   0.859715 0.359715 0.250000 0.964093
C138  C     C_R   0.500000 1.000000 0.320081 0.951777
C139  C     C_R   0.140285 0.640285 0.750000 0.964093
C140  C     C_R   0.359749 0.140251 0.250000 0.979688
C141  C     C_R   0.640251 0.859749 0.750000 0.979688
C142  C     C_R   0.140285 0.640285 0.250000 0.964093
C143  C     C_R   0.859715 0.359715 0.750000 0.964093
C144  C     C_R   0.640251 0.859749 0.250000 0.979690
C145  C     C_R   0.359749 0.140251 0.750000 0.979689
C146  C     C_R   0.778976 0.274752 0.726163 0.314622
C147  C     C_R   0.221024 0.725248 0.273837 0.314622
C148  C     C_R   0.728942 0.782790 0.726319 0.311191
C149  C     C_R   0.500000 0.000000 0.679918 0.951777
C150  C     C_R   0.271058 0.217210 0.273681 0.311191
C151  C     C_R   0.221024 0.725248 0.726163 0.314622
C152  C     C_R   0.778976 0.274752 0.273837 0.314622
C153  C     C_R   0.271058 0.217210 0.726319 0.311191
C154  C     C_R   0.728942 0.782790 0.273681 0.311191
C155  C     C_R   0.782790 0.728942 0.273681 0.311192
C156  C     C_R   0.217210 0.271058 0.726319 0.311192
C157  C     C_R   0.725248 0.221024 0.273837 0.314622
C158  C     C_R   0.274752 0.778976 0.726163 0.314622
C159  C     C_R   0.217209 0.271058 0.273681 0.311192
C160  C     C_R   1.000000 0.500000 0.320081 0.951774
C161  C     C_R   0.782790 0.728942 0.726319 0.311191
C162  C     C_R   0.274752 0.778976 0.273837 0.314622
C163  C     C_R   0.725248 0.221024 0.726163 0.314621
C164  C     C_R   0.278976 0.774752 0.226163 0.314622
C165  C     C_R   0.721024 0.225248 0.773837 0.314622
C166  C     C_R   0.228942 0.282790 0.226319 0.311191
C167  C     C_R   0.771058 0.717210 0.773681 0.311191
C168  C     C_R   0.721024 0.225248 0.226163 0.314622
C169  C     C_R   0.278976 0.774752 0.773837 0.314622
C170  C     C_R   0.771058 0.717210 0.226319 0.311191
C171  C     C_R   1.000000 0.500000 0.679918 0.951774
C172  C     C_R   0.228942 0.282790 0.773681 0.311191
C173  C     C_R   0.282790 0.228942 0.773681 0.311192
C174  C     C_R   0.717210 0.771058 0.226319 0.311192
C175  C     C_R   0.225248 0.721024 0.773837 0.314622
C176  C     C_R   0.774752 0.278976 0.226163 0.314622
C177  C     C_R   0.717210 0.771058 0.773681 0.311192
C178  C     C_R   0.282790 0.228942 0.226319 0.311191
C179  C     C_R   0.774752 0.278976 0.773837 0.314621
C180  C     C_R   0.225248 0.721024 0.226163 0.314621
C181  C     C_R   0.696299 0.196299 0.750000 -0.338701
C182  C     C_R   0.015497 0.565182 0.637343 -0.110869
C183  C     C_R   0.303701 0.803701 0.250000 -0.338700
C184  C     C_R   0.803730 0.696270 0.750000 -0.337630
C185  C     C_R   0.196270 0.303730 0.250000 -0.337630
C186  C     C_R   0.303701 0.803701 0.750000 -0.338701
C187  C     C_R   0.696299 0.196299 0.250000 -0.338701
C188  C     C_R   0.196270 0.303730 0.750000 -0.337631
C189  C     C_R   0.803730 0.696270 0.250000 -0.337631
C190  C     C_R   0.696270 0.803730 0.250000 -0.337631
C191  C     C_R   0.303730 0.196270 0.750000 -0.337631
C192  C     C_R   0.803701 0.303701 0.250000 -0.338701
Cl1   Cl    Cl    0.817459 0.302876 0.696134 -0.452640
Cl2   Cl    Cl    0.173755 0.294868 0.696664 -0.437928
Cl3   Cl    Cl    0.697124 0.182541 0.303866 -0.452640
Cl4   Cl    Cl    0.302876 0.817458 0.696134 -0.452640
Cl5   Cl    Cl    0.173755 0.294867 0.303336 -0.437928
Cl6   Cl    Cl    0.826245 0.705133 0.696664 -0.437928
Cl7   Cl    Cl    0.302876 0.817458 0.303866 -0.452640
Cl8   Cl    Cl    0.697124 0.182542 0.696134 -0.452640
Cl9   Cl    Cl    0.317459 0.802876 0.196134 -0.452640
Cl10  Cl    Cl    0.682541 0.197124 0.803866 -0.452640
Cl11  Cl    Cl    0.205132 0.326245 0.196664 -0.437929
Cl12  Cl    Cl    0.182541 0.697124 0.303866 -0.452640
Cl13  Cl    Cl    0.794867 0.673755 0.803336 -0.437929
Cl14  Cl    Cl    0.682542 0.197125 0.196134 -0.452639
Cl15  Cl    Cl    0.317458 0.802875 0.803866 -0.452639
Cl16  Cl    Cl    0.794868 0.673755 0.196664 -0.437929
Cl17  Cl    Cl    0.205132 0.326244 0.803336 -0.437929
Cl18  Cl    Cl    0.326244 0.205132 0.803336 -0.437929
Cl19  Cl    Cl    0.673755 0.794868 0.196664 -0.437929
Cl20  Cl    Cl    0.197124 0.682541 0.803866 -0.452640
Cl21  Cl    Cl    0.802876 0.317458 0.196134 -0.452640
Cl22  Cl    Cl    0.673755 0.794867 0.803336 -0.437929
Cl23  Cl    Cl    0.705132 0.826245 0.696664 -0.437929
Cl24  Cl    Cl    0.326245 0.205133 0.196664 -0.437929
Cl25  Cl    Cl    0.802875 0.317458 0.803866 -0.452640
Cl26  Cl    Cl    0.197124 0.682542 0.196134 -0.452640
Cl27  Cl    Cl    0.294868 0.173755 0.303336 -0.437929
Cl28  Cl    Cl    0.182542 0.697125 0.696134 -0.452640
Cl29  Cl    Cl    0.817458 0.302875 0.303866 -0.452640
Cl30  Cl    Cl    0.294868 0.173755 0.696664 -0.437929
Cl31  Cl    Cl    0.705132 0.826244 0.303336 -0.437929
Cl32  Cl    Cl    0.826245 0.705132 0.303336 -0.437928
H1    H     H_    0.646084 0.887588 0.976288 0.203868
H2    H     H_    0.853917 0.612414 0.523712 0.203868
H3    H     H_    0.612411 0.853915 0.476289 0.203868
H4    H     H_    0.387589 0.146085 0.523711 0.203868
H5    H     H_    0.853917 0.612414 0.476289 0.203868
H6    H     H_    0.146083 0.387586 0.523711 0.203868
H7    H     H_    0.387589 0.146085 0.476288 0.203868
H8    H     H_    0.612411 0.853915 0.523712 0.203868
H9    H     H_    0.027858 0.612779 0.598979 0.187278
H10   H     H_    0.972141 0.387221 0.401021 0.187278
H11   H     H_    0.387221 0.972143 0.598979 0.187278
H12   H     H_    0.353916 0.112412 0.023711 0.203868
H13   H     H_    0.612779 0.027857 0.401021 0.187278
H14   H     H_    0.972142 0.387221 0.598979 0.187278
H15   H     H_    0.027858 0.612779 0.401021 0.187278
H16   H     H_    0.612779 0.027858 0.598979 0.187278
H17   H     H_    0.387221 0.972142 0.401021 0.187278
H18   H     H_    0.527858 0.112779 0.098979 0.187278
H19   H     H_    0.472142 0.887221 0.901021 0.187278
H20   H     H_    0.887221 0.472142 0.098979 0.187278
H21   H     H_    0.112779 0.527858 0.901021 0.187278
H22   H     H_    0.472142 0.887220 0.098979 0.187278
H23   H     H_    0.112413 0.353916 0.976289 0.203868
H24   H     H_    0.527857 0.112779 0.901021 0.187278
H25   H     H_    0.112779 0.527858 0.098979 0.187278
H26   H     H_    0.887221 0.472142 0.901021 0.187278
H27   H     H_    0.015595 0.699955 0.682332 0.380434
H28   H     H_    0.984405 0.300045 0.317668 0.380434
H29   H     H_    0.300045 0.984406 0.682332 0.380434
H30   H     H_    0.699955 0.015594 0.317667 0.380434
H31   H     H_    0.984406 0.300045 0.682332 0.380434
H32   H     H_    0.015594 0.699955 0.317667 0.380434
H33   H     H_    0.699955 0.015594 0.682332 0.380434
H34   H     H_    0.887587 0.646084 0.023711 0.203868
H35   H     H_    0.300045 0.984406 0.317668 0.380434
H36   H     H_    0.515594 0.199955 0.182332 0.380434
H37   H     H_    0.484405 0.800045 0.817668 0.380435
H38   H     H_    0.800045 0.484406 0.182332 0.380434
H39   H     H_    0.199955 0.515594 0.817668 0.380434
H40   H     H_    0.484406 0.800045 0.182332 0.380434
H41   H     H_    0.515594 0.199955 0.817668 0.380434
H42   H     H_    0.199955 0.515595 0.182332 0.380434
H43   H     H_    0.800045 0.484405 0.817668 0.380434
H44   H     H_    0.353916 0.112412 0.976289 0.203868
H45   H     H_    0.646084 0.887588 0.023711 0.203868
H46   H     H_    0.887587 0.646084 0.976288 0.203868
H47   H     H_    0.112413 0.353916 0.023711 0.203868
H48   H     H_    0.146082 0.387586 0.476288 0.203868
N1    N     N_R   0.500000 1.000000 0.931856 -0.354154
N2    N     N_R   0.500000 0.000000 0.068144 -0.354154
N3    N     N_R   1.000000 0.500000 0.931856 -0.354154
N4    N     N_R   1.000000 0.500000 0.068144 -0.354154
N5    N     N_R   1.000000 0.500000 0.431856 -0.354154
N6    N     N_R   0.000000 0.500000 0.568144 -0.354154
N7    N     N_R   0.500000 1.000000 0.431856 -0.354154
N8    N     N_R   0.500000 0.000000 0.568144 -0.354154
O1    O     O_3   0.000000 0.500000 0.750000 -0.555830
O2    O     O_R   1.000000 0.439150 0.192270 -0.591097
O3    O     O_R   0.850453 0.497188 0.824284 -0.784758
O4    O     O_R   0.439150 0.000000 0.807730 -0.591097
O5    O     O_R   0.560850 1.000000 0.192270 -0.591097
O6    O     O_R   0.500000 0.939150 0.307730 -0.591098
O7    O     O_R   0.500000 0.060850 0.692270 -0.591098
O8    O     O_R   0.060850 0.500000 0.307730 -0.591097
O9    O     O_R   0.939150 0.500000 0.692270 -0.591097
O10   O     O_R   0.500000 0.060850 0.307730 -0.591097
O11   O     O_R   0.500000 0.939150 0.692270 -0.591097
O12   O     O_R   0.939150 0.500000 0.307730 -0.591097
O13   O     O_3   0.000000 0.500000 0.250000 -0.555830
O14   O     O_R   0.060850 0.500000 0.692270 -0.591097
O15   O     O_R   0.914360 0.646040 0.764890 -0.603977
O16   O     O_R   0.085640 0.353960 0.235110 -0.603977
O17   O     O_R   0.353960 0.914360 0.764890 -0.605863
O18   O     O_R   0.646040 0.085640 0.235110 -0.605863
O19   O     O_R   0.085640 0.353960 0.764890 -0.603978
O20   O     O_R   0.914360 0.646040 0.235110 -0.603978
O21   O     O_R   0.646040 0.085640 0.764890 -0.605863
O22   O     O_R   0.353960 0.914360 0.235110 -0.605863
O23   O     O_R   0.914360 0.353960 0.235110 -0.605864
O24   O     O_3   0.500000 0.000000 0.750000 -0.555830
O25   O     O_R   0.085640 0.646040 0.764890 -0.605864
O26   O     O_R   0.353960 0.085640 0.235110 -0.603977
O27   O     O_R   0.646040 0.914360 0.764890 -0.603977
O28   O     O_R   0.085640 0.646040 0.235110 -0.605864
O29   O     O_R   0.914360 0.353960 0.764890 -0.605864
O30   O     O_R   0.646040 0.914360 0.235110 -0.603977
O31   O     O_R   0.353960 0.085640 0.764890 -0.603977
O32   O     O_R   0.414360 0.146040 0.264890 -0.603977
O33   O     O_R   0.585640 0.853960 0.735110 -0.603977
O34   O     O_R   0.853960 0.414360 0.264890 -0.605863
O35   O     O_3   0.500000 0.000000 0.250000 -0.555830
O36   O     O_R   0.146040 0.585640 0.735110 -0.605863
O37   O     O_R   0.585640 0.853960 0.264890 -0.603978
O38   O     O_R   0.414360 0.146040 0.735110 -0.603978
O39   O     O_R   0.146040 0.585640 0.264890 -0.605863
O40   O     O_R   0.853960 0.414360 0.735110 -0.605863
O41   O     O_R   0.414360 0.853960 0.735110 -0.605864
O42   O     O_R   0.585640 0.146040 0.264890 -0.605864
O43   O     O_R   0.853960 0.585640 0.735110 -0.603977
O44   O     O_R   0.146040 0.414360 0.264890 -0.603977
O45   O     O_R   0.585640 0.146040 0.735110 -0.605864
O46   O     O_R   1.000000 0.439150 0.807730 -0.591097
O47   O     O_R   0.414360 0.853960 0.264890 -0.605864
O48   O     O_R   0.146040 0.414360 0.735110 -0.603977
O49   O     O_R   0.853960 0.585640 0.264890 -0.603977
O50   O     O_2   0.397627 0.077514 0.931586 -0.513788
O51   O     O_2   0.602373 0.922486 0.068414 -0.513788
O52   O     O_2   0.922485 0.602372 0.931585 -0.513788
O53   O     O_2   0.077515 0.397628 0.068414 -0.513788
O54   O     O_2   0.602373 0.922486 0.931585 -0.513788
O55   O     O_2   0.397627 0.077514 0.068414 -0.513788
O56   O     O_2   0.077514 0.397627 0.931586 -0.513788
O57   O     O_R   1.000000 0.560850 0.192270 -0.591098
O58   O     O_2   0.922485 0.602373 0.068414 -0.513788
O59   O     O_2   0.897628 0.577515 0.431586 -0.513788
O60   O     O_2   0.102372 0.422485 0.568414 -0.513788
O61   O     O_2   0.422487 0.102374 0.431586 -0.513788
O62   O     O_2   0.577513 0.897626 0.568414 -0.513788
O63   O     O_2   0.102372 0.422485 0.431586 -0.513788
O64   O     O_2   0.897628 0.577515 0.568414 -0.513788
O65   O     O_2   0.577513 0.897626 0.431586 -0.513788
O66   O     O_2   0.422487 0.102374 0.568414 -0.513788
O67   O     O_2   0.064466 0.683404 0.639433 -0.536397
O68   O     O_R   0.560850 0.000000 0.807730 -0.591097
O69   O     O_R   0.002812 0.649547 0.675716 -0.784758
O70   O     O_2   0.935534 0.316596 0.360567 -0.536397
O71   O     O_R   0.997188 0.350453 0.324284 -0.784758
O72   O     O_2   0.316596 0.935535 0.639433 -0.536397
O73   O     O_R   0.350453 0.997189 0.675716 -0.784758
O74   O     O_2   0.683404 0.064465 0.360567 -0.536397
O75   O     O_R   0.649547 0.002811 0.324284 -0.784758
O76   O     O_2   0.935534 0.316595 0.639433 -0.536396
O77   O     O_R   0.997189 0.350453 0.675716 -0.784758
O78   O     O_2   0.064466 0.683404 0.360567 -0.536396
O79   O     O_R   0.439150 1.000000 0.192270 -0.591097
O80   O     O_R   0.002811 0.649547 0.324284 -0.784758
O81   O     O_2   0.683404 0.064465 0.639433 -0.536398
O82   O     O_R   0.649547 0.002811 0.675716 -0.784758
O83   O     O_2   0.316596 0.935535 0.360567 -0.536398
O84   O     O_R   0.350453 0.997189 0.324284 -0.784758
O85   O     O_2   0.564465 0.183405 0.139433 -0.536398
O86   O     O_R   0.502812 0.149547 0.175716 -0.784758
O87   O     O_2   0.435534 0.816595 0.860567 -0.536397
O88   O     O_R   0.497188 0.850453 0.824284 -0.784758
O89   O     O_2   0.816596 0.435535 0.139433 -0.536396
O90   O     O_R   0.000000 0.560850 0.807730 -0.591097
O91   O     O_R   0.850453 0.497189 0.175716 -0.784759
O92   O     O_2   0.183404 0.564465 0.860567 -0.536397
O93   O     O_R   0.149547 0.502811 0.824284 -0.784759
O94   O     O_2   0.435535 0.816595 0.139433 -0.536397
O95   O     O_R   0.497189 0.850453 0.175716 -0.784759
O96   O     O_2   0.564465 0.183405 0.860567 -0.536397
O97   O     O_R   0.502811 0.149547 0.824284 -0.784759
O98   O     O_2   0.183404 0.564466 0.139433 -0.536397
O99   O     O_R   0.149547 0.502812 0.175716 -0.784758
O100  O     O_2   0.816596 0.435534 0.860567 -0.536397
Zn1   Zn    Zn3+2 0.913060 0.500000 0.727930 1.110123
Zn2   Zn    Zn3+2 0.586940 0.000000 0.772070 1.110123
Zn3   Zn    Zn3+2 0.000000 0.413060 0.227930 1.110123
Zn4   Zn    Zn3+2 0.000000 0.586940 0.772070 1.110123
Zn5   Zn    Zn3+2 0.586940 0.000000 0.227930 1.110123
Zn6   Zn    Zn3+2 0.413060 0.000000 0.772070 1.110123
Zn7   Zn    Zn3+2 0.000000 0.586940 0.227930 1.110123
Zn8   Zn    Zn3+2 0.000000 0.413060 0.772070 1.110123
Zn9   Zn    Zn3+2 0.086940 0.500000 0.272070 1.110123
Zn10  Zn    Zn3+2 0.500000 0.913060 0.727930 1.110123
Zn11  Zn    Zn3+2 0.500000 0.086940 0.272070 1.110123
Zn12  Zn    Zn3+2 0.086940 0.500000 0.727930 1.110123
Zn13  Zn    Zn3+2 0.913060 0.500000 0.272070 1.110123
Zn14  Zn    Zn3+2 0.500000 0.086940 0.727930 1.110123
Zn15  Zn    Zn3+2 0.500000 0.913060 0.272070 1.110123
Zn16  Zn    Zn3+2 0.413060 0.000000 0.227930 1.110123

loop_
_geom_bond_atom_site_label_1
_geom_bond_atom_site_label_2
_ccdc_geom_bond_type
C135  O45   A    
C149  O11   A    
C55   C59   A    
C81   C126  A    
C99   O93   S    
C32   C45   A    
C173  Cl18  S    
C10   N3    A    
C87   C182  S    
C41   C67   A    
C125  N1    S    
C14   O55   S    
C132  O42   A    
C95   O83   D    
C92   O77   S    
C167  Cl13  S    
C57   C76   A    
C86   C110  A    
C121  N5    S    
C46   C112  A    
C123  N7    S    
O48   Zn12  S    
C100  O94   D    
C1    O90   A    
C130  O16   A    
C102  O96   D    
C17   C39   A    
C71   H10   S    
C18   C40   A    
C155  C189  A    
C133  C188  S    
C93   O78   D    
C104  O100  D    
C7    C146  A    
C127  O79   A    
C67   H7    S    
C5    C148  A    
O13   Zn13  S    
C152  Cl29  S    
C39   C65   A    
C98   O91   S    
C36   C62   A    
C87   O69   S    
C37   C63   A    
C109  C118  A    
C133  O48   A    
C38   C64   A    
C45   C47   A    
C68   C95   S    
C141  O33   A    
C150  C159  A    
C86   C128  A    
C90   C117  A    
H42   O99   S    
C69   H8    S    
C28   C54   A    
O47   Zn15  S    
C29   C55   A    
C91   O75   S    
C23   C37   A    
C103  O98   D    
C30   C56   A    
C173  C191  A    
C111  C182  A    
C142  O28   A    
C122  N8    S    
C43   C44   A    
C21   N5    A    
C22   C36   A    
O35   Zn15  S    
C134  O20   A    
C54   H23   S    
C153  C156  A    
C15   N3    A    
H27   O69   S    
C154  C155  A    
C52   C58   A    
C171  O9    A    
C33   C47   A    
O13   Zn9   S    
C30   C43   A    
C34   C48   A    
C2    C71   A    
C98   C101  S    
O15   Zn4   S    
O32   Zn11  S    
C74   C120  A    
C170  C174  A    
C68   C77   A    
O30   Zn5   S    
C126  N4    S    
C152  C157  A    
C112  C160  S    
C157  Cl3   S    
O28   Zn7   S    
C10   O52   S    
C147  C162  A    
C20   O62   S    
C12   N1    A    
C169  Cl15  S    
C20   C42   A    
C27   C53   A    
C13   C72   A    
C22   O64   S    
C4    C150  A    
C103  C109  S    
C55   H34   S    
C76   C122  A    
C161  C184  A    
C79   C96   S    
C152  C192  A    
C104  C110  S    
C37   C50   A    
O10   Zn11  S    
C136  C183  S    
O35   Zn11  S    
O26   Zn16  S    
O57   Zn7   S    
C153  Cl30  S    
C134  O49   A    
H32   O80   S    
C176  Cl21  S    
C98   O89   D    
C32   C59   A    
C96   O86   S    
C17   O59   S    
C140  O26   A    
C24   C114  A    
C79   C115  A    
C163  C181  A    
C127  O5    A    
C16   O58   S    
C81   C101  A    
O68   Zn2   S    
O20   Zn7   S    
C132  O18   A    
C161  Cl6   S    
C29   C47   A    
C77   H17   S    
C101  C118  A    
O39   Zn9   S    
C81   H20   S    
O19   Zn8   S    
C26   C52   A    
C104  O3    S    
O8    Zn9   S    
C144  O30   A    
C129  O15   A    
C40   C49   A    
C92   O76   D    
O1    Zn12  S    
C94   O82   S    
O1    Zn1   S    
C5    C141  S    
C27   C44   A    
C63   C69   A    
C70   C120  A    
C73   C123  A    
C150  Cl27  S    
O14   Zn12  S    
C83   C124  A    
C61   H48   S    
H33   O82   S    
C179  Cl25  S    
C85   C126  A    
C160  O12   A    
C46   C75   A    
C174  Cl19  S    
C11   C33   A    
C105  O57   A    
C172  Cl17  S    
C23   N7    A    
O37   Zn15  S    
C57   C113  A    
C38   C51   A    
C9    O51   S    
C158  Cl4   S    
C12   C26   A    
C70   H9    S    
C107  C115  A    
C74   H14   S    
C156  Cl2   S    
C21   O63   S    
C128  N3    S    
C170  Cl16  S    
C25   C38   A    
O90   Zn4   S    
C14   N2    A    
C167  C184  A    
C103  O99   S    
C53   H12   S    
C82   C128  A    
O34   Zn13  S    
C57   C94   S    
C165  C179  A    
C3    C139  S    
C135  C181  S    
C153  C191  A    
C171  O14   A    
C168  C176  A    
C99   C106  S    
C6    C180  A    
C108  C117  A    
C71   C121  A    
C20   N8    A    
C4    C178  A    
C136  O47   A    
C12   O54   S    
C110  C119  A    
C18   O60   S    
C22   N6    A    
C80   H19   S    
C65   H5    S    
C84   H24   S    
C159  C185  A    
C93   O80   S    
C164  C183  A    
C6    C147  A    
C144  C190  S    
C111  C171  S    
C166  Cl11  S    
C82   C106  A    
C60   H47   S    
C56   H44   S    
C11   N4    A    
C144  O37   A    
O40   Zn1   S    
C168  C187  A    
O13   Zn3   S    
C17   N5    A    
C89   O73   S    
C19   N7    A    
C148  Cl23  S    
C35   C74   A    
C106  C119  A    
C149  O7    A    
H39   O93   S    
C75   H15   S    
C15   O56   S    
C16   N4    A    
C8    O50   S    
C130  C185  S    
C85   H25   S    
C170  C189  A    
C2    C112  A    
C134  C189  S    
O24   Zn10  S    
C129  O43   A    
C169  C186  A    
C85   C109  A    
O43   Zn1   S    
C136  O22   A    
C24   C73   A    
C53   C56   A    
C143  O29   A    
O11   Zn10  S    
C1    C119  S    
C154  Cl31  S    
C70   C182  A    
O5    Zn5   S    
C19   O61   S    
H41   O97   S    
C166  C178  A    
C14   C27   A    
C6    C142  S    
C90   C97   S    
C130  O44   A    
C1    O46   A    
C164  C180  A    
C72   C122  A    
C35   C92   S    
C154  C190  A    
C40   C66   A    
C25   N8    A    
C158  C186  A    
C132  C187  S    
C7    C143  S    
C156  C188  A    
C95   O84   S    
C157  C187  A    
C137  O34   A    
C21   C34   A    
C62   H2    S    
C162  Cl7   S    
O13   Zn7   S    
C59   H46   S    
C143  O40   A    
C151  C158  A    
C77   C123  A    
C87   O67   D    
C137  C192  S    
H43   O3    S    
O31   Zn6   S    
O9    Zn1   S    
C105  O2    A    
C169  C175  A    
O29   Zn8   S    
C146  Cl1   S    
C25   O66   S    
C174  C190  A    
C3    C175  A    
C48   C49   A    
C167  C177  A    
C129  C184  S    
C33   C60   A    
C116  O4    A    
C142  O39   A    
C41   C50   A    
H31   O77   S    
C84   C125  A    
O25   Zn4   S    
C138  O6    A    
O35   Zn5   S    
O6    Zn15  S    
C11   O53   S    
C177  Cl22  S    
C63   H3    S    
C23   O65   S    
O23   Zn3   S    
H37   O88   S    
O24   Zn14  S    
C145  O38   A    
C102  O97   S    
C72   H11   S    
C76   H16   S    
C8    C30   A    
C88   O71   S    
C138  O10   A    
C15   C28   A    
C140  O32   A    
O35   Zn16  S    
C84   C108  A    
C137  O23   A    
O4    Zn6   S    
C34   C61   A    
O24   Zn2   S    
C178  Cl24  S    
C159  Cl5   S    
C99   O92   D    
C97   O88   S    
C151  Cl28  S    
C131  O17   A    
C36   C49   A    
C19   C41   A    
C39   C48   A    
C86   H26   S    
C116  O68   A    
C166  C185  A    
C180  Cl26  S    
H30   O75   S    
H28   O71   S    
C165  Cl10  S    
C100  O95   S    
C54   C60   A    
C58   H45   S    
C78   H18   S    
O49   Zn13  S    
C148  C161  A    
C31   C58   A    
O44   Zn9   S    
O1    Zn4   S    
O17   Zn6   S    
C176  C192  A    
C80   C125  A    
C115  C127  S    
C116  C117  S    
C18   N6    A    
C124  N2    S    
C61   C66   A    
C2    C88   S    
C78   C124  A    
C96   O85   D    
O36   Zn12  S    
O41   Zn10  S    
C42   C51   A    
C89   O72   D    
C114  C138  S    
C145  C191  S    
O24   Zn6   S    
C155  Cl32  S    
H29   O73   S    
C135  O21   A    
C147  Cl12  S    
C26   C43   A    
C50   C51   A    
C8    N1    A    
C91   O74   D    
C28   C45   A    
C31   C44   A    
C64   C67   A    
C113  C149  S    
C9    N2    A    
C164  Cl9   S    
C78   C79   A    
C16   C29   A    
C141  O27   A    
O16   Zn3   S    
C42   C69   A    
O42   Zn11  S    
C160  O8    A    
C94   O81   D    
C73   H13   S    
C162  C183  A    
C4    C140  S    
C145  O31   A    
C120  N6    S    
O21   Zn2   S    
O46   Zn8   S    
C133  O19   A    
C7    C179  A    
C175  Cl20  S    
O38   Zn14  S    
O7    Zn14  S    
C102  C108  S    
C5    C177  A    
C131  O41   A    
C163  Cl8   S    
C168  Cl14  S    
O33   Zn10  S    
C24   C91   S    
C64   H4    S    
C35   C111  A    
C172  C173  A    
O22   Zn16  S    
O12   Zn13  S    
O45   Zn14  S    
C62   C65   A    
H36   O86   S    
C100  C107  S    
C82   H21   S    
C13   C89   S    
C75   C121  A    
O27   Zn2   S    
C139  O25   A    
H35   O84   S    
C146  C163  A    
C66   H6    S    
C3    C151  A    
C165  C181  A    
O79   Zn16  S    
C46   C93   S    
C172  C188  A    
C97   O87   D    
C83   H22   S    
C83   C107  A    
O18   Zn5   S    
O2    Zn3   S    
C80   C90   A    
C105  C118  S    
C88   O70   D    
H38   O91   S    
C9    C31   A    
C139  O36   A    
C131  C186  S    
C10   C32   A    
C52   H1    S    
O1    Zn8   S    
C13   C113  A    
H40   O95   S    
C68   C114  A    
