data_mof_unit_17442.cif
_audit_creation_date              2012-12-10T17:09:57-0500
_audit_creation_method            fapswitch 2.2
_symmetry_space_group_name_H-M    P1
_symmetry_Int_Tables_number       1
_space_group_crystal_system       triclinic
_cell_length_a                    10.823403
_cell_length_b                    12.962245
_cell_length_c                    11.728425
_cell_angle_alpha                 99.459501
_cell_angle_beta                  93.913952
_cell_angle_gamma                 91.484356
_cell_volume                      1618.13368502

loop_
_atom_site_label
_atom_site_type_symbol
_atom_type_description
_atom_site_fract_x
_atom_site_fract_y
_atom_site_fract_z
_atom_type_partial_charge
C1    C     C_R   0.498725 0.299505 0.479041 0.819834
C2    C     C_R   0.404227 0.129342 0.390157 -0.356349
C3    C     C_R   0.571552 0.135868 0.541999 0.363713
C4    C     C_R   0.263525 0.512093 0.502203 0.813789
C5    C     C_R   0.551009 0.028726 0.541423 0.017170
C6    C     C_R   0.458622 0.971469 0.462742 0.059708
C7    C     C_R   0.441678 0.864297 0.461201 -0.308253
C8    C     C_R   0.606346 0.869511 0.614397 0.378148
C9    C     C_R   0.622890 0.977378 0.617512 -0.223857
C10   C     C_R   0.386179 0.397522 0.021434 0.240206
C11   C     C_R   0.401999 0.403819 0.142998 0.370191
C12   C     C_R   0.072282 0.533398 0.613665 0.073826
C13   C     C_R   0.545944 0.548140 0.157612 0.322861
C14   C     C_R   0.546102 0.535658 0.033274 -0.106834
C15   C     C_R   0.458529 0.463988 0.965433 -0.155624
C16   C     C_R   0.504267 0.700495 0.521322 0.868150
C17   C     C_R   0.449882 0.457493 0.842939 0.054054
C18   C     C_R   0.612547 0.583964 0.852586 0.041852
C19   C     C_R   0.630284 0.591509 0.974210 0.171488
C20   C     C_R   0.738119 0.495119 0.499932 0.788957
C21   C     C_R   0.132280 0.571134 0.725294 0.231803
C22   C     C_R   0.084662 0.540418 0.823186 -0.271303
C23   C     C_R   0.130252 0.528626 0.507879 -0.105288
C24   C     C_R   0.973589 0.480108 0.813069 0.297986
C25   C     C_R   0.904953 0.460900 0.705759 -0.242106
C26   C     C_R   0.948368 0.496359 0.607403 0.016700
C27   C     C_3   0.806079 0.721932 0.985383 -0.702942
C28   C     C_3   0.209422 0.331113 0.198041 -0.619298
C29   C     C_3   0.564798 0.737202 0.219732 -0.574111
C30   C     C_3   0.207525 0.745174 0.705189 -0.653900
C31   C     C_3   0.994053 0.460284 0.021197 -0.735236
C32   C     C_R   0.057093 0.524202 0.404174 -0.225976
C33   C     C_R   0.929729 0.511598 0.402274 -0.199157
C34   C     C_R   0.873748 0.495543 0.502478 -0.075069
C35   C     C_R   0.516440 0.813474 0.534144 -0.111588
C36   C     C_R   0.494483 0.186301 0.468130 -0.187727
C37   C     C_R   0.385960 0.021622 0.385939 0.425181
Cu1   Cu    Cu3+1 0.509250 0.507730 0.615930 0.972132
Cu2   Cu    Cu3+1 0.490750 0.492270 0.384070 0.963820
H1    H     H_    0.098229 0.531208 0.324377 0.157641
H2    H     H_    0.695567 0.250221 0.582262 0.314153
H3    H     H_    0.258726 0.351639 0.898411 0.320612
H4    H     H_    0.794788 0.596422 0.076405 0.253741
H5    H     H_    0.873598 0.765868 0.052601 0.235702
H6    H     H_    0.741265 0.778530 0.955123 0.243443
H7    H     H_    0.858239 0.683639 0.912663 0.235244
H8    H     H_    0.371423 0.252350 0.168206 0.251176
H9    H     H_    0.180749 0.306493 0.278873 0.216825
H10   H     H_    0.163299 0.277308 0.122804 0.240450
H11   H     H_    0.178612 0.411482 0.195734 0.211362
H12   H     H_    0.693248 0.020403 0.678376 0.191221
H13   H     H_    0.704678 0.629573 0.243307 0.241786
H14   H     H_    0.611630 0.796259 0.289591 0.220024
H15   H     H_    0.463276 0.738087 0.228207 0.227192
H16   H     H_    0.583252 0.760037 0.135456 0.233674
H17   H     H_    0.282411 0.654971 0.821571 0.251061
H18   H     H_    0.293054 0.796221 0.718821 0.231198
H19   H     H_    0.134825 0.784883 0.756867 0.223772
H20   H     H_    0.176562 0.733791 0.611661 0.223479
H21   H     H_    0.831112 0.433290 0.908883 0.258401
H22   H     H_    0.946502 0.418928 0.082560 0.227120
H23   H     H_    0.344686 0.169555 0.335396 0.167893
H24   H     H_    0.999567 0.545415 0.055805 0.221425
H25   H     H_    0.088657 0.430473 0.013946 0.253034
H26   H     H_    0.737939 0.867745 0.736052 0.314352
H27   H     H_    0.254940 0.011892 0.261647 0.324778
H28   H     H_    0.386219 0.402539 0.787679 0.149674
H29   H     H_    0.673423 0.626099 0.805643 0.179020
H30   H     H_    0.134323 0.565442 0.906753 0.144945
H31   H     H_    0.820294 0.413657 0.699572 0.174379
H32   H     H_    0.875417 0.512776 0.321450 0.150230
H33   H     H_    0.371294 0.819111 0.402103 0.204833
N1    N     N_R   0.523180 0.519350 0.790130 -0.213105
N2    N     N_R   0.476820 0.480650 0.209890 -0.237135
N3    N     N_2   0.739036 0.644118 0.035081 -0.443682
N4    N     N_2   0.342634 0.326932 0.195927 -0.360303
N5    N     N_2   0.610251 0.634484 0.229579 -0.366054
N6    N     N_2   0.233748 0.646097 0.741566 -0.394930
N7    N     N_2   0.926264 0.440172 0.908727 -0.406503
O1    O     O_R   0.506570 0.354460 0.582000 -0.574104
O2    O     O_3   0.304168 0.321587 0.960496 -0.732986
O3    O     O_3   0.679633 0.816940 0.685416 -0.741048
O4    O     O_3   0.296769 0.964654 0.309240 -0.747676
O5    O     O_R   0.490940 0.341410 0.386200 -0.559895
O6    O     O_R   0.327470 0.506530 0.597920 -0.564954
O7    O     O_R   0.311840 0.493480 0.402120 -0.572151
O8    O     O_R   0.509060 0.658590 0.613800 -0.534872
O9    O     O_R   0.493430 0.645540 0.418000 -0.570145
O10   O     O_R   0.688160 0.506520 0.597880 -0.595239
O11   O     O_R   0.672530 0.493470 0.402080 -0.583052
O12   O     O_3   0.667197 0.188592 0.614690 -0.732952

loop_
_geom_bond_atom_site_label_1
_geom_bond_atom_site_label_2
_ccdc_geom_bond_type
H21   N7    S    
C31   H22   S    
C9    H12   S    
C1    O5    A    
Cu1   O10   S    
Cu1   O1    S    
C8    O3    S    
Cu2   O5    S    
C11   N4    S    
C16   C35   S    
C5    C6    A    
C4    O7    A    
C29   H15   S    
C18   H29   S    
C30   H18   S    
H17   N6    S    
C3    O12   S    
C18   C19   A    
Cu2   N2    S    
H27   O4    S    
C28   H11   S    
C27   H5    S    
C26   C34   A    
C8    C9    A    
C21   N6    S    
C16   O8    A    
Cu2   O11   S    
C20   C34   S    
C27   H6    S    
C13   C14   A    
C17   N1    A    
H3    O2    S    
Cu2   O9    S    
C27   N3    S    
C14   C19   A    
H4    N3    S    
C13   N5    S    
C17   H28   S    
Cu1   O6    S    
C31   H24   S    
C24   C25   A    
C7    H33   S    
C4    C23   S    
C4    O6    A    
C29   H16   S    
C25   C26   A    
C20   O11   A    
C12   C21   A    
C12   C26   A    
C8    C35   A    
C5    C9    A    
C28   H10   S    
C24   N7    S    
C12   C23   A    
C30   H20   S    
C33   C34   A    
C6    C37   A    
C27   H7    S    
H2    O12   S    
C18   N1    A    
C22   C24   A    
H13   N5    S    
C28   N4    S    
C2    C36   A    
C15   C17   A    
C28   H9    S    
C22   H30   S    
C7    C35   A    
C31   H25   S    
C3    C5    A    
C11   N2    A    
H8    N4    S    
C31   N7    S    
C6    C7    A    
C20   O10   A    
C10   O2    S    
Cu1   O8    S    
C10   C15   A    
C32   C33   A    
C19   N3    S    
C23   C32   A    
C2    C37   A    
H26   O3    S    
Cu1   Cu2   S    
C29   H14   S    
C3    C36   A    
C30   H19   S    
C32   H1    S    
C10   C11   A    
C33   H32   S    
C30   N6    S    
C29   N5    S    
C13   N2    A    
C16   O9    A    
C1    O1    A    
C14   C15   A    
C37   O4    S    
C25   H31   S    
Cu2   O7    S    
C21   C22   A    
C2    H23   S    
C1    C36   S    
Cu1   N1    S    
