data_mof_unit_35608.cif
_audit_creation_date              2012-12-10T17:23:12-0500
_audit_creation_method            fapswitch 2.2
_symmetry_space_group_name_H-M    P1
_symmetry_Int_Tables_number       1
_space_group_crystal_system       triclinic
_cell_length_a                    15.863811
_cell_length_b                    10.867223
_cell_length_c                    9.583137
_cell_angle_alpha                 90.308158
_cell_angle_beta                  90.008377
_cell_angle_gamma                 92.527625
_cell_volume                      1650.45902842

loop_
_atom_site_label
_atom_site_type_symbol
_atom_type_description
_atom_site_fract_x
_atom_site_fract_y
_atom_site_fract_z
_atom_type_partial_charge
C1    C     C_R   0.506543 0.263028 0.500457 0.803841
C2    C     C_3   0.082820 0.501988 0.500779 0.081836
C3    C     C_3   0.974535 0.597738 0.576016 -0.123033
C4    C     C_3   0.917187 0.501284 0.500100 0.100881
C5    C     C_3   0.031123 0.607261 0.444181 -0.233252
C6    C     C_3   0.972122 0.510969 0.368045 -0.220355
C7    C     C_1   0.174529 0.501084 0.500302 0.002626
C8    C     C_1   0.825473 0.501154 0.500092 -0.030340
C9    C     C_R   0.552288 0.121620 0.756168 -0.157439
C10   C     C_R   0.541292 0.063411 0.884423 -0.156502
C11   C     C_R   0.499479 0.948715 0.890525 -0.137039
C12   C     C_R   0.339879 0.499681 0.499976 0.832913
C13   C     C_R   0.476584 0.886983 0.767463 -0.157256
C14   C     C_R   0.496097 0.939222 0.635188 0.093940
C15   C     C_R   0.521473 0.064996 0.631392 0.096144
C16   C     C_R   0.513885 0.129155 0.503471 -0.118596
C17   C     C_R   0.501836 0.063106 0.378787 -0.204524
C18   C     C_R   0.494684 0.935939 0.380040 -0.210579
C19   C     C_R   0.491717 0.872206 0.506742 -0.111573
C20   C     C_R   0.611392 0.665119 0.145040 -0.149593
C21   C     C_R   0.665228 0.746463 0.073156 -0.218882
C22   C     C_R   0.665336 0.746209 0.929428 -0.192274
C23   C     C_R   0.495269 0.737562 0.501450 0.776295
C24   C     C_R   0.611480 0.664789 0.856727 -0.137479
C25   C     C_R   0.554667 0.581228 0.925610 0.192063
C26   C     C_R   0.554630 0.581278 0.075286 0.206751
C27   C     C_R   0.448327 0.422274 0.073443 -0.062193
C28   C     C_R   0.448346 0.422314 0.925453 -0.062611
C29   C     C_R   0.660112 0.500451 0.500040 0.800155
C30   C     C_3   0.968613 0.395738 0.556821 -0.217541
C31   C     C_3   0.024794 0.407134 0.426117 0.675913
C32   C     C_1   0.250109 0.500348 0.500040 -0.163135
C33   C     C_1   0.749876 0.500877 0.500078 -0.176458
C34   C     C_3   0.027613 0.492313 0.632487 -0.230150
Cu1   Cu    Cu3+1 0.499990 0.499990 0.640660 0.926088
Cu2   Cu    Cu3+1 0.500010 0.500010 0.359340 0.939512
H1    H     H_    0.486399 0.906143 0.990565 0.138749
H2    H     H_    0.441062 0.800750 0.779062 0.170166
H3    H     H_    0.490113 0.887594 0.280967 0.164717
H4    H     H_    0.406012 0.358553 0.128357 0.145655
H5    H     H_    0.617575 0.672101 0.254988 0.200672
H6    H     H_    0.707526 0.809791 0.129728 0.156029
H7    H     H_    0.707549 0.809544 0.873490 0.154513
H8    H     H_    0.617169 0.672076 0.746826 0.200902
H9    H     H_    0.406073 0.358575 0.869681 0.150136
H10   H     H_    0.942055 0.308436 0.601772 0.152809
H11   H     H_    0.948416 0.517401 0.259441 0.153063
H12   H     H_    0.057936 0.694092 0.398466 0.163304
H13   H     H_    0.952340 0.676579 0.638030 0.145285
H14   H     H_    0.051545 0.485094 0.740868 0.163464
H15   H     H_    0.497978 0.109656 0.279439 0.162293
H16   H     H_    0.586738 0.209613 0.756260 0.164661
H17   H     H_    0.563071 0.108924 0.979391 0.137478
N1    N     N_R   0.500800 0.501210 0.147910 -0.199643
N2    N     N_R   0.500830 0.501290 0.852040 -0.205081
O1    O     O_R   0.499990 0.319640 0.618810 -0.588776
O2    O     O_R   0.500000 0.319660 0.381240 -0.580499
O3    O     O_R   0.379070 0.499980 0.618770 -0.575028
O4    O     O_R   0.379080 0.500000 0.381190 -0.566052
O5    O     O_R   0.500000 0.680340 0.618760 -0.614883
O6    O     O_R   0.500010 0.680360 0.381190 -0.600586
O7    O     O_R   0.620920 0.500000 0.618810 -0.596625
O8    O     O_R   0.620930 0.500020 0.381230 -0.589377
F1    F     F_    0.052182 0.308830 0.348811 -0.665502

loop_
_geom_bond_atom_site_label_1
_geom_bond_atom_site_label_2
_ccdc_geom_bond_type
Cu1   O1    S    
C19   C23   S    
C18   H3    S    
C29   O8    A    
C24   C25   A    
Cu2   O6    S    
C1    O2    A    
Cu2   O8    S    
C9    C10   A    
C22   H7    S    
C27   H4    S    
C4    C8    S    
Cu2   O4    S    
C12   O3    A    
C17   H15   S    
C20   H5    S    
C3    H13   S    
C27   N1    A    
C1    C16   S    
C13   C14   A    
C12   C32   S    
C11   C13   A    
C30   C31   S    
C2    C34   S    
C13   H2    S    
C5    C6    S    
C9    H16   S    
C20   C26   A    
Cu1   O3    S    
C26   N1    A    
C1    O1    A    
C14   C19   A    
C28   N2    A    
C17   C18   A    
Cu1   O7    S    
C8    C33   T    
C9    C15   A    
C23   O5    A    
C24   H8    S    
C5    H12   S    
C22   C24   A    
C28   H9    S    
C34   H14   S    
C2    C5    S    
Cu2   N1    S    
C10   C11   A    
C30   C34   S    
Cu1   N2    S    
C15   C16   A    
Cu1   O5    S    
C16   C17   A    
C25   N2    A    
C23   O6    A    
C20   C21   A    
C29   O7    A    
C4    C6    S    
Cu2   O2    S    
C6    H11   S    
C27   C28   A    
C11   H1    S    
C10   H17   S    
C14   C15   A    
C18   C19   A    
C6    C31   S    
C7    C32   T    
C3    C34   S    
C25   C26   A    
C21   C22   A    
C12   O4    A    
C31   F1    S    
C30   H10   S    
C21   H6    S    
C4    C30   S    
C3    C4    S    
C2    C7    S    
C29   C33   S    
C2    C31   S    
C3    C5    S    
Cu1   Cu2   S    
