data_mof_unit_63517.cif
_audit_creation_date              2012-12-10T19:22:58-0500
_audit_creation_method            fapswitch 2.2
_symmetry_space_group_name_H-M    P1
_symmetry_Int_Tables_number       1
_space_group_crystal_system       triclinic
_cell_length_a                    10.912259
_cell_length_b                    17.741771
_cell_length_c                    16.427064
_cell_angle_alpha                 90.848863
_cell_angle_beta                  101.172836
_cell_angle_gamma                 89.920147
_cell_volume                      3119.7033472

loop_
_atom_site_label
_atom_site_type_symbol
_atom_type_description
_atom_site_fract_x
_atom_site_fract_y
_atom_site_fract_z
_atom_type_partial_charge
C1    C     C_R   0.501876 0.354983 0.499404 0.860244
C2    C     C_R   0.495770 0.644547 0.500180 0.860511
C3    C     C_R   0.490268 0.884837 0.505434 -0.001967
C4    C     C_R   0.498691 0.113451 0.502079 -0.001429
C5    C     C_1   0.492999 0.965433 0.506077 0.083019
C6    C     C_1   0.495351 0.032974 0.505349 0.082868
C7    C     C_R   0.570034 0.553491 0.838623 -0.228863
C8    C     C_R   0.418196 0.453912 0.159669 -0.220758
C9    C     C_R   0.568586 0.552331 0.752531 0.140826
C10   C     C_R   0.419238 0.454726 0.245685 0.156081
C11   C     C_R   0.431995 0.447665 0.733763 0.133864
C12   C     C_R   0.581646 0.545063 0.268365 0.146025
C13   C     C_R   0.430961 0.446920 0.819467 -0.224086
C14   C     C_R   0.583521 0.545890 0.182757 -0.222569
C15   C     C_R   0.500569 0.500309 0.873205 0.118558
C16   C     C_R   0.500946 0.499985 0.127084 0.116445
C17   C     C_1   0.500918 0.500315 0.962866 0.009482
C18   C     C_1   0.501026 0.500186 0.037482 0.010608
C19   C     C_R   0.261702 0.497115 0.467656 0.858291
C20   C     C_R   0.738319 0.496373 0.532131 0.833974
C21   C     C_2   0.125426 0.492001 0.452161 0.141494
C22   C     C_2   0.874571 0.489139 0.546950 0.127802
C23   C     C_2   0.067183 0.450837 0.502061 0.311993
C24   C     C_2   0.931244 0.451674 0.491985 0.312097
C25   C     C_R   0.419614 0.845725 0.554111 0.260724
C26   C     C_R   0.530650 0.149120 0.433422 0.257578
C27   C     C_R   0.418441 0.766418 0.552048 0.220774
C28   C     C_R   0.533095 0.228393 0.430789 0.244513
C29   C     C_R   0.489666 0.727148 0.501606 -0.146017
C30   C     C_R   0.502687 0.271561 0.497905 -0.154229
C31   C     C_R   0.557363 0.767415 0.452306 -0.208564
C32   C     C_R   0.471599 0.234001 0.565895 -0.186950
C33   C     C_R   0.557881 0.845748 0.454408 -0.147011
C34   C     C_R   0.469536 0.155758 0.567863 -0.154863
Cu1   Cu    Cu3+1 0.499990 0.499980 0.580420 1.032502
Cu2   Cu    Cu3+1 0.500010 0.500020 0.419580 1.035150
H1    H     H_    0.376281 0.404761 0.843524 0.162718
H2    H     H_    0.649043 0.582202 0.160295 0.160625
H3    H     H_    0.611803 0.738119 0.413142 0.175338
H4    H     H_    0.447559 0.265224 0.617754 0.187636
H5    H     H_    0.611675 0.875975 0.416396 0.189481
H6    H     H_    0.444756 0.128138 0.620842 0.185853
H7    H     H_    0.625202 0.595627 0.877839 0.158424
H8    H     H_    0.353126 0.417507 0.118963 0.159405
H9    H     H_    0.622829 0.593549 0.726871 0.147940
H10   H     H_    0.355185 0.418783 0.269903 0.145572
H11   H     H_    0.378651 0.405832 0.693441 0.172711
H12   H     H_    0.645824 0.580715 0.310508 0.140500
N1    N     N_R   0.499970 0.499970 0.701210 -0.184251
N2    N     N_R   0.500030 0.500030 0.298790 -0.179938
O1    O     O_R   0.499990 0.391240 0.567930 -0.599516
O2    O     O_R   0.500010 0.608760 0.432070 -0.593730
O3    O     O_R   0.500000 0.391270 0.432120 -0.545091
O4    O     O_R   0.500000 0.608730 0.567880 -0.559988
O5    O     O_R   0.320680 0.500000 0.542950 -0.540341
O6    O     O_R   0.679320 0.500000 0.457050 -0.557496
O7    O     O_R   0.320690 0.500030 0.407130 -0.570552
O8    O     O_R   0.679310 0.499970 0.592870 -0.561664
Cl1   Cl    Cl    0.849208 0.397395 0.407640 -0.478776
Cl2   Cl    Cl    0.147212 0.388186 0.576744 -0.581874
Cl3   Cl    Cl    0.961829 0.534259 0.636173 -0.513619
Cl4   Cl    Cl    0.040766 0.545222 0.369916 -0.545305
Br1   Br    Br    0.324561 0.901035 0.622644 -0.381901
Br2   Br    Br    0.571198 0.088617 0.343490 -0.380160
Br3   Br    Br    0.312973 0.713249 0.613950 -0.346126
Br4   Br    Br    0.581886 0.274072 0.335756 -0.323991

loop_
_geom_bond_atom_site_label_1
_geom_bond_atom_site_label_2
_ccdc_geom_bond_type
C10   H10   S    
C28   Br4   S    
C23   C24   S    
C31   C33   A    
Cu1   N1    S    
Cu2   O6    S    
C7    H7    S    
C14   H2    S    
C4    C34   A    
C11   C13   A    
C11   H11   S    
Cu1   Cu2   S    
Cu2   O2    S    
C20   O6    A    
C12   H12   S    
C33   H5    S    
C31   H3    S    
C7    C15   A    
C17   C18   T    
Cu2   N2    S    
C8    C16   A    
C16   C18   S    
C26   C28   A    
C19   O7    A    
Cu1   O4    S    
C30   C32   A    
C1    O1    A    
C21   Cl4   S    
C5    C6    T    
C2    O2    A    
C2    C29   S    
Cu1   O8    S    
C11   N1    A    
C9    H9    S    
C28   C30   A    
C1    C30   S    
C19   C21   S    
C20   C22   S    
C14   C16   A    
C13   C15   A    
C21   C23   D    
Cu1   O1    S    
C23   Cl2   S    
C22   C24   D    
C4    C26   A    
C27   Br3   S    
C4    C6    S    
C27   C29   A    
C3    C33   A    
Cu1   O5    S    
C10   N2    A    
C3    C25   A    
C32   H4    S    
C9    N1    A    
C29   C31   A    
Cu2   O7    S    
C2    O4    A    
C19   O5    A    
C7    C9    A    
C26   Br2   S    
C25   Br1   S    
C20   O8    A    
C1    O3    A    
Cu2   O3    S    
C3    C5    S    
C32   C34   A    
C15   C17   S    
C13   H1    S    
C8    C10   A    
C24   Cl1   S    
C8    H8    S    
C12   C14   A    
C12   N2    A    
C22   Cl3   S    
C25   C27   A    
C34   H6    S    
