data_mof_unit_68602.cif
_audit_creation_date              2012-12-10T19:03:08-0500
_audit_creation_method            fapswitch 2.2
_symmetry_space_group_name_H-M    P1
_symmetry_Int_Tables_number       1
_space_group_crystal_system       triclinic
_cell_length_a                    10.878831
_cell_length_b                    10.816211
_cell_length_c                    9.613343
_cell_angle_alpha                 90.598466
_cell_angle_beta                  90.049004
_cell_angle_gamma                 90.528695
_cell_volume                      1131.06988948

loop_
_atom_site_label
_atom_site_type_symbol
_atom_type_description
_atom_site_fract_x
_atom_site_fract_y
_atom_site_fract_z
_atom_type_partial_charge
C1    C     C_R   0.504707 0.262972 0.499871 0.797795
C2    C     C_3   0.876609 0.486922 0.497703 -0.020583
C3    C     C_3   0.926573 0.621262 0.496811 -0.486090
C4    C     C_3   0.926304 0.414530 0.366871 0.112060
C5    C     C_R   0.449481 0.067089 0.606180 -0.024058
C6    C     C_R   0.514145 0.129879 0.503205 -0.133171
C7    C     C_R   0.588864 0.062150 0.410163 0.268565
C8    C     C_R   0.582625 0.932637 0.411568 -0.244242
C9    C     C_R   0.504500 0.871099 0.503643 -0.149765
C10   C     C_R   0.442896 0.939397 0.605497 -0.003897
C11   C     C_3   0.307878 0.943215 0.641026 0.523065
C12   C     C_R   0.259561 0.495548 0.499733 0.783373
C13   C     C_3   0.319165 0.084471 0.649415 -0.462436
C14   C     C_R   0.583226 0.570182 0.072229 0.163373
C15   C     C_R   0.440114 0.408516 0.072235 0.313520
C16   C     C_R   0.436492 0.413255 0.922982 -0.088942
C17   C     C_R   0.579134 0.572711 0.927314 0.169052
C18   C     C_3   0.602131 0.707538 0.919006 -0.518821
C19   C     C_3   0.621586 0.704560 0.077166 0.047595
C20   C     C_R   0.498606 0.737446 0.500886 0.805227
C21   C     C_R   0.739230 0.492519 0.499533 0.828304
C22   C     C_3   0.067744 0.419190 0.628343 0.039596
C23   C     C_3   0.924498 0.421380 0.630931 0.199146
C24   C     C_3   0.067687 0.623024 0.493165 -0.412462
C25   C     C_3   0.070577 0.416026 0.366976 0.044711
C26   C     C_3   0.120439 0.490158 0.498250 -0.017213
Cu1   Cu    Cu3+1 0.499990 0.499980 0.640670 0.941061
Cu2   Cu    Cu3+1 0.500010 0.500020 0.359330 0.948220
H1    H     H_    0.099233 0.671866 0.398733 0.168563
H2    H     H_    0.890242 0.672191 0.405859 0.208964
H3    H     H_    0.638542 0.879250 0.341498 0.173551
H4    H     H_    0.265723 0.138789 0.573717 0.168156
H5    H     H_    0.314616 0.122910 0.756847 0.167032
H6    H     H_    0.095038 0.320893 0.612370 0.114399
H7    H     H_    0.382488 0.347088 0.863551 0.163432
H8    H     H_    0.685515 0.729158 0.856670 0.200867
H9    H     H_    0.518466 0.758929 0.888842 0.190918
H10   H     H_    0.560669 0.766242 0.138531 0.162609
H11   H     H_    0.892373 0.476380 0.722587 0.112874
H12   H     H_    0.101247 0.680327 0.580427 0.200082
H13   H     H_    0.894229 0.671967 0.591098 0.166767
H14   H     H_    0.101768 0.318721 0.378368 0.088753
H15   H     H_    0.895869 0.316413 0.375929 0.146088
N1    N     N_R   0.500800 0.500930 0.147930 -0.232865
N2    N     N_R   0.500800 0.500890 0.852020 -0.198724
O1    O     O_R   0.500000 0.319640 0.618810 -0.584137
O2    O     O_R   0.500010 0.319680 0.381230 -0.578986
O3    O     O_R   0.317690 0.499960 0.618790 -0.548016
O4    O     O_R   0.317700 0.500000 0.381210 -0.580073
O5    O     O_R   0.499990 0.680320 0.618770 -0.572443
O6    O     O_R   0.500000 0.680360 0.381190 -0.585654
O7    O     O_R   0.682300 0.500000 0.618790 -0.599687
O8    O     O_R   0.682310 0.500040 0.381210 -0.552111
N3    N     N_2   0.120377 0.454302 0.763032 -0.413886
H16   H     H_    0.112794 0.385142 0.834913 0.230123
C27   C     C_3   0.111172 0.578950 0.819489 -0.669895
H17   H     H_    0.122393 0.578555 0.933907 0.209179
H18   H     H_    0.021216 0.621304 0.796753 0.202665
H19   H     H_    0.187488 0.636862 0.779531 0.276090
N4    N     N_2   0.876662 0.464372 0.238616 -0.378375
H20   H     H_    0.908133 0.548618 0.204816 0.267804
C28   C     C_3   0.814239 0.382126 0.141197 -0.706875
H21   H     H_    0.810555 0.425155 0.037019 0.184235
H22   H     H_    0.719102 0.365311 0.176272 0.267973
H23   H     H_    0.862790 0.292626 0.131913 0.220154
N5    N     N_2   0.675278 0.121611 0.321725 -0.418881
H24   H     H_    0.705659 0.207983 0.352785 0.259682
C29   C     C_3   0.656173 0.106933 0.173536 -0.723523
H25   H     H_    0.746605 0.099302 0.121532 0.217803
H26   H     H_    0.609691 0.189243 0.132529 0.256800
H27   H     H_    0.599931 0.023567 0.147402 0.235832
N6    N     N_2   0.230881 0.890802 0.529806 -0.405242
H28   H     H_    0.252958 0.800114 0.509550 0.229575
C30   C     C_3   0.210800 0.958962 0.402720 -0.730179
H29   H     H_    0.166307 0.897456 0.323887 0.216472
H30   H     H_    0.299190 0.993014 0.359321 0.232564
H31   H     H_    0.147318 0.036925 0.422194 0.235466
N7    N     N_2   0.281492 0.887000 0.774868 -0.437687
H32   H     H_    0.347308 0.903932 0.850281 0.234795
C31   C     C_3   0.157654 0.903554 0.826802 -0.723220
H33   H     H_    0.145618 0.850410 0.924129 0.217928
H34   H     H_    0.089012 0.868950 0.749853 0.250673
H35   H     H_    0.140439 0.002707 0.850057 0.224634
N8    N     N_2   0.387412 0.304756 0.142022 -0.391934
H36   H     H_    0.330364 0.323709 0.224290 0.315781
C32   C     C_3   0.359878 0.190801 0.066515 -0.813678
H37   H     H_    0.345646 0.114823 0.141647 0.247127
H38   H     H_    0.436861 0.164953 0.996642 0.235964
H39   H     H_    0.275084 0.200216 0.003634 0.217300
N9    N     N_2   0.752043 0.715949 0.110604 -0.397902
H40   H     H_    0.804360 0.653128 0.055737 0.253322
C33   C     C_3   0.806592 0.838176 0.101949 -0.754697
H41   H     H_    0.907618 0.830606 0.087265 0.214075
H42   H     H_    0.792791 0.889549 0.200231 0.259631
H43   H     H_    0.768664 0.890194 0.012900 0.235590
O9    O     O_3   0.877468 0.298176 0.632573 -0.615525
C34   C     C_3   0.843434 0.262627 0.768148 0.063141
H44   H     H_    0.763135 0.317213 0.804426 0.166737
H45   H     H_    0.921176 0.275304 0.842335 0.128835
C35   C     C_3   0.806829 0.126601 0.765760 -0.784590
H46   H     H_    0.886062 0.069437 0.732431 0.246917
H47   H     H_    0.777643 0.097770 0.871129 0.187076
H48   H     H_    0.729271 0.110910 0.692381 0.256215
N10   N     N_2   0.121890 0.461801 0.236618 -0.380967
H49   H     H_    0.115033 0.554573 0.215529 0.254317
C36   C     C_3   0.113609 0.382192 0.115332 -0.742090
H50   H     H_    0.193967 0.400155 0.048912 0.241230
H51   H     H_    0.033060 0.405689 0.051919 0.238659
H52   H     H_    0.109886 0.282890 0.143408 0.233438

loop_
_geom_bond_atom_site_label_1
_geom_bond_atom_site_label_2
_ccdc_geom_bond_type
Cu1   O3    S    
N5    C29   S    
Cu2   O2    S    
C13   H4    S    
C12   O3    A    
N10   C36   S    
C12   O4    A    
C7    C8    A    
C22   N3    S    
C23   O9    S    
C30   H30   S    
C11   N7    S    
C18   H9    S    
C24   C26   S    
C15   N1    A    
C20   O6    A    
C16   H7    S    
C5    C6    A    
Cu2   O6    S    
N7    C31   S    
C1    O1    A    
C36   H50   S    
C15   C16   A    
C27   H17   S    
N4    C28   S    
C18   C19   S    
C24   H1    S    
C35   H46   S    
C20   O5    A    
C8    C9    A    
C30   H31   S    
C28   H22   S    
C9    C10   A    
C5    C13   S    
Cu1   O5    S    
N6    H28   S    
Cu1   N2    S    
N5    H24   S    
C14   C17   A    
C3    C24   S    
C31   H35   S    
C35   H47   S    
N10   H49   S    
C34   H45   S    
C34   H44   S    
C22   H6    S    
N3    C27   S    
C11   N6    S    
C30   H29   S    
C1    C6    S    
N8    H36   S    
N6    C30   S    
N7    H32   S    
C29   H25   S    
C25   C26   S    
Cu2   N1    S    
C33   H43   S    
C12   C26   S    
N4    H20   S    
C16   N2    A    
C3    H2    S    
C2    C4    S    
C13   H5    S    
C28   H21   S    
C19   H10   S    
Cu2   O4    S    
C9    C20   S    
N9    C33   S    
O9    C34   S    
C4    N4    S    
C2    C21   S    
C33   H42   S    
C17   C18   S    
C6    C7    A    
Cu1   O1    S    
C31   H34   S    
C4    C25   S    
Cu1   Cu2   S    
C34   C35   S    
Cu1   O7    S    
C14   N1    A    
N3    H16   S    
C3    H13   S    
C28   H23   S    
C32   H37   S    
C8    H3    S    
C14   C19   S    
C1    O2    A    
C17   N2    A    
C31   H33   S    
C32   H39   S    
C25   H14   S    
Cu2   O8    S    
C25   N10   S    
C15   N8    S    
C4    H15   S    
C27   H19   S    
C2    C3    S    
C5    C10   A    
C19   N9    S    
C7    N5    S    
C21   O8    A    
C11   C13   S    
N9    H40   S    
C36   H51   S    
C29   H27   S    
C23   H11   S    
C33   H41   S    
C24   H12   S    
C27   H18   S    
C32   H38   S    
C35   H48   S    
C10   C11   S    
C29   H26   S    
C22   C26   S    
C2    C23   S    
C22   C23   S    
N8    C32   S    
C18   H8    S    
C21   O7    A    
C36   H52   S    
