data_mof_unit_5946.cif
_audit_creation_date              2012-10-26T18:36:09-0400
_audit_creation_method            fapswitch 2.2
_symmetry_space_group_name_H-M    P1
_symmetry_Int_Tables_number       1
_space_group_crystal_system       triclinic
_cell_length_a                    10.888469
_cell_length_b                    12.701057
_cell_length_c                    13.862782
_cell_angle_alpha                 98.407151
_cell_angle_beta                  90.204679
_cell_angle_gamma                 92.790692
_cell_volume                      1894.19270068

loop_
_atom_site_label
_atom_site_type_symbol
_atom_type_description
_atom_site_fract_x
_atom_site_fract_y
_atom_site_fract_z
_atom_type_partial_charge
C1    C     C_R   0.504626 0.483023 0.315762 0.502111
C2    C     C_1   0.501089 0.472711 0.212201 -0.064009
C3    C     C_2   0.469831 0.027116 0.472180 -0.119630
C4    C     C_R   0.259225 0.500534 0.494531 0.562499
C5    C     C_2   0.526951 0.974692 0.536948 0.229263
C6    C     C_1   0.522398 0.855363 0.523168 0.095938
C7    C     C_1   0.474742 0.144933 0.479779 0.154805
C8    C     C_R   0.506832 0.516469 0.684186 0.529047
C9    C     C_R   0.740830 0.499762 0.500692 0.589742
C10   C     C_3   0.064292 0.388683 0.452266 0.057806
C11   C     C_3   0.923181 0.384415 0.471102 0.071579
C12   C     C_3   0.879074 0.501658 0.500518 0.002032
C13   C     C_3   0.076938 0.536384 0.599117 0.156877
C14   C     C_3   0.072152 0.584647 0.422623 0.549882
C15   C     C_3   0.120796 0.503140 0.490572 0.005137
C16   C     C_3   0.815812 0.693195 0.349348 -0.109036
C17   C     C_3   0.205889 0.629732 0.724739 0.029291
C18   C     C_3   0.222750 0.741669 0.782230 -0.238660
C19   C     C_3   0.303953 0.743130 0.872295 -0.495734
C20   C     C_3   0.806209 0.690851 0.677507 -0.036961
C21   C     C_3   0.380650 0.288309 0.007424 0.007773
C22   C     C_3   0.487310 0.214315 0.011707 -0.265231
C23   C     C_3   0.933606 0.549303 0.604327 0.541905
C24   C     C_3   0.446850 0.115287 0.056061 -0.492641
C25   C     C_3   0.663127 0.695170 0.986768 -0.144544
C26   C     C_3   0.639220 0.982827 0.684779 0.015441
C27   C     C_3   0.541004 0.959481 0.758740 -0.253992
C28   C     C_3   0.596848 0.912087 0.842711 -0.500073
C29   C     C_3   0.085146 0.255473 0.313833 -0.004421
C30   C     C_3   0.207061 0.205306 0.331023 -0.253640
C31   C     C_3   0.207343 0.090763 0.279123 -0.504651
C32   C     C_3   0.906038 0.212732 0.524745 0.016754
C33   C     C_3   0.798704 0.155573 0.463738 -0.247078
C34   C     C_3   0.927713 0.571847 0.422330 0.176390
C35   C     C_3   0.816175 0.035899 0.441468 -0.473218
C36   C     C_3   0.923188 0.517837 0.770893 -0.126604
C37   C     C_3   0.105463 0.770880 0.404751 -0.042094
C38   C     C_3   0.228903 0.569406 0.299734 -0.071248
C39   C     C_1   0.519386 0.525184 0.787320 -0.050255
C40   C     C_2   0.545179 0.534678 0.978566 0.297412
C41   C     C_2   0.487334 0.456767 0.019946 0.292827
C42   C     C_1   0.495431 0.464271 0.125026 -0.024841
C43   C     C_1   0.531556 0.530701 0.873957 -0.021088
Cu1   Cu    Cu3+1 0.491980 0.395330 0.493960 0.982503
Cu2   Cu    Cu3+1 0.508020 0.604670 0.506040 0.958593
H1    H     H_    0.108727 0.332628 0.494013 0.142075
H2    H     H_    0.162734 0.576418 0.772785 0.084730
H3    H     H_    0.265299 0.796468 0.734821 0.183610
H4    H     H_    0.131224 0.770812 0.805287 0.164376
H5    H     H_    0.265810 0.686144 0.919417 0.153462
H6    H     H_    0.308667 0.824362 0.914929 0.136910
H7    H     H_    0.398316 0.721726 0.850032 0.153983
H8    H     H_    0.833454 0.735251 0.749943 0.067881
H9    H     H_    0.740529 0.624359 0.687879 0.154759
H10   H     H_    0.756623 0.745655 0.638063 0.155072
H11   H     H_    0.305624 0.242864 0.962465 0.154257
H12   H     H_    0.419757 0.981497 0.410838 0.049666
H13   H     H_    0.340027 0.311903 0.080492 0.126049
H14   H     H_    0.521416 0.189471 0.936753 0.176743
H15   H     H_    0.564370 0.256946 0.056281 0.160145
H16   H     H_    0.414941 0.138363 0.131883 0.152269
H17   H     H_    0.525649 0.063240 0.057667 0.144176
H18   H     H_    0.371388 0.069625 0.011778 0.140154
H19   H     H_    0.586376 0.736170 0.957776 0.115606
H20   H     H_    0.726177 0.663938 0.927569 0.104564
H21   H     H_    0.716741 0.755148 0.038553 0.136801
H22   H     H_    0.713118 0.035724 0.724210 0.151999
H23   H     H_    0.874154 0.349645 0.402471 0.127804
H24   H     H_    0.685061 0.910215 0.652352 0.114156
H25   H     H_    0.497704 0.034730 0.788444 0.176586
H26   H     H_    0.468294 0.902797 0.722575 0.162392
H27   H     H_    0.634221 0.833631 0.815244 0.131498
H28   H     H_    0.524944 0.901047 0.897310 0.141127
H29   H     H_    0.671566 0.966374 0.879216 0.141345
H30   H     H_    0.070184 0.248808 0.233818 0.155226
H31   H     H_    0.005667 0.210924 0.340348 0.111729
H32   H     H_    0.283880 0.252805 0.303040 0.192740
H33   H     H_    0.222499 0.204910 0.410102 0.164653
H34   H     H_    0.100644 0.469605 0.638932 0.065011
H35   H     H_    0.134474 0.040760 0.308996 0.135114
H36   H     H_    0.297817 0.057522 0.290191 0.141618
H37   H     H_    0.191635 0.088036 0.199554 0.140331
H38   H     H_    0.906663 0.180832 0.595214 0.162796
H39   H     H_    0.995415 0.191597 0.492031 0.094237
H40   H     H_    0.713646 0.169621 0.505863 0.230418
H41   H     H_    0.788886 0.186821 0.393674 0.136276
H42   H     H_    0.901300 0.020445 0.398852 0.122826
H43   H     H_    0.736769 0.996318 0.397755 0.145311
H44   H     H_    0.822404 0.000888 0.510103 0.170922
H45   H     H_    0.897756 0.523710 0.351035 0.094700
H46   H     H_    0.993368 0.461641 0.785690 0.121817
H47   H     H_    0.846252 0.508494 0.821675 0.133371
H48   H     H_    0.960258 0.601380 0.787871 0.125852
H49   H     H_    0.040625 0.830053 0.438300 0.155101
H50   H     H_    0.075547 0.742823 0.328497 0.125379
H51   H     H_    0.196655 0.813393 0.402564 0.089956
H52   H     H_    0.279532 0.636906 0.344841 0.161373
H53   H     H_    0.237048 0.583729 0.222947 0.111786
H54   H     H_    0.269922 0.492424 0.303855 0.166885
H55   H     H_    0.734850 0.637092 0.331658 0.153863
H56   H     H_    0.878604 0.686608 0.286013 0.106454
H57   H     H_    0.782808 0.775294 0.361511 0.128635
H58   H     H_    0.296017 0.599461 0.703654 0.167006
N1    N     N_1   0.479930 0.238040 0.484880 -0.203346
N2    N     N_1   0.520070 0.761960 0.515120 -0.216179
O1    O     O_R   0.492240 0.399110 0.356330 -0.511367
O2    O     O_3   0.137051 0.635395 0.639378 -0.489601
O3    O     O_3   0.913100 0.661350 0.624339 -0.476376
O4    O     O_3   0.416577 0.376963 0.960918 -0.594781
O5    O     O_3   0.617505 0.613302 0.037473 -0.594067
O6    O     O_3   0.590125 0.038731 0.613921 -0.573132
O7    O     O_3   0.089487 0.365323 0.350818 -0.566135
O8    O     O_3   0.891826 0.324030 0.547556 -0.525730
O9    O     O_3   0.877688 0.489803 0.674475 -0.550116
O10   O     O_3   0.114962 0.690149 0.464765 -0.467924
O11   O     O_3   0.103450 0.559922 0.321634 -0.586664
O12   O     O_R   0.505790 0.575900 0.366540 -0.520511
O13   O     O_R   0.310920 0.411610 0.494880 -0.526885
O14   O     O_R   0.324460 0.588390 0.505090 -0.450709
O15   O     O_R   0.494210 0.424100 0.633460 -0.455636
O16   O     O_R   0.507760 0.600890 0.643670 -0.533133
O17   O     O_R   0.675540 0.411610 0.494910 -0.468603
O18   O     O_R   0.689080 0.588390 0.505120 -0.473770
O19   O     O_3   0.876082 0.673849 0.435196 -0.516878

loop_
_geom_bond_atom_site_label_1
_geom_bond_atom_site_label_2
_ccdc_geom_bond_type
C13   H34   S    
C24   H16   S    
C41   C42   S    
C29   O7    S    
C20   H8    S    
C13   O2    S    
C28   H29   S    
Cu1   N1    S    
C31   H35   S    
C29   H31   S    
Cu2   O18   S    
C12   C23   S    
C13   C23   S    
C26   C27   S    
C31   H37   S    
C26   H22   S    
C18   C19   S    
C3    C7    S    
C10   C15   S    
C17   O2    S    
C22   H15   S    
C30   C31   S    
C8    O16   A    
Cu1   O15   S    
C14   O10   S    
C37   H50   S    
C1    C2    S    
C33   H40   S    
C33   C35   S    
C30   H32   S    
C35   H42   S    
C36   H48   S    
C40   C43   S    
C10   H1    S    
C24   H17   S    
C4    O14   A    
C10   O7    S    
C8    C39   S    
C32   O8    S    
C38   H53   S    
C1    O1    A    
Cu2   O14   S    
C36   O9    S    
C41   O4    S    
C21   C22   S    
C4    O13   A    
C28   H27   S    
C20   H10   S    
C28   H28   S    
C19   H7    S    
Cu2   N2    S    
C9    O17   A    
C32   H39   S    
C25   H20   S    
C20   H9    S    
C22   H14   S    
C11   H23   S    
C16   H55   S    
C39   C43   T    
C5    O6    S    
Cu2   O16   S    
C37   H51   S    
C25   H19   S    
C33   H41   S    
C34   H45   S    
C29   C30   S    
C38   O11   S    
C35   H43   S    
C21   O4    S    
Cu1   O13   S    
C17   C18   S    
C1    O12   A    
C27   H25   S    
C25   O5    S    
C37   O10   S    
C3    H12   S    
C36   H46   S    
C16   H57   S    
C40   C41   D    
C24   H18   S    
C7    N1    T    
C13   C15   S    
C22   C24   S    
C38   H52   S    
C12   C34   S    
C35   H44   S    
C27   H26   S    
Cu1   Cu2   S    
C8    O15   A    
Cu2   O12   S    
C32   H38   S    
C34   O19   S    
C25   H21   S    
C17   H2    S    
C38   H54   S    
C3    C5    D    
C18   H3    S    
C14   C34   S    
C21   H11   S    
C40   O5    S    
C11   C12   S    
C29   H30   S    
Cu1   O1    S    
C31   H36   S    
C32   C33   S    
C4    C15   S    
C17   H58   S    
C21   H13   S    
C23   O9    S    
C19   H5    S    
C36   H47   S    
C5    C6    S    
C2    C42   T    
C14   O11   S    
C23   O3    S    
Cu1   O17   S    
C9    O18   A    
C6    N2    T    
C37   H49   S    
C16   O19   S    
C11   O8    S    
C9    C12   S    
C10   C11   S    
C30   H33   S    
C19   H6    S    
C16   H56   S    
C27   C28   S    
C26   H24   S    
C14   C15   S    
C26   O6    S    
C18   H4    S    
C20   O3    S    
