data_mof_unit_40081.cif
_audit_creation_date              2012-12-10T17:48:44-0500
_audit_creation_method            fapswitch 2.2
_symmetry_space_group_name_H-M    P1
_symmetry_Int_Tables_number       1
_space_group_crystal_system       triclinic
_cell_length_a                    15.760374
_cell_length_b                    10.67599
_cell_length_c                    10.001538
_cell_angle_alpha                 91.682046
_cell_angle_beta                  89.768787
_cell_angle_gamma                 95.238389
_cell_volume                      1675.08264281

loop_
_atom_site_label
_atom_site_type_symbol
_atom_type_description
_atom_site_fract_x
_atom_site_fract_y
_atom_site_fract_z
_atom_type_partial_charge
C1    C     C_R   0.513831 0.264428 0.498715 0.902428
C2    C     C_3   0.946151 0.452309 0.615346 -0.469919
C3    C     C_3   0.917195 0.517320 0.489389 -0.035454
C4    C     C_3   0.957639 0.656381 0.494784 0.172640
C5    C     C_3   0.057538 0.659526 0.513790 0.154775
C6    C     C_1   0.825494 0.514694 0.494101 0.035844
C7    C     C_1   0.175471 0.515917 0.497197 0.180886
C8    C     C_1   0.250375 0.510244 0.500253 0.046921
C9    C     C_R   0.586783 0.141356 0.729594 -0.141542
C10   C     C_R   0.578884 0.089916 0.855829 0.467519
C11   C     C_R   0.532994 0.973589 0.870166 -0.120890
C12   C     C_R   0.338769 0.502729 0.500314 0.942210
C13   C     C_R   0.502917 0.903192 0.757469 -0.177766
C14   C     C_R   0.517721 0.949019 0.626792 0.034794
C15   C     C_R   0.548971 0.075647 0.616903 0.027921
C16   C     C_R   0.535321 0.135541 0.496783 -0.198030
C17   C     C_R   0.520678 0.066059 0.378974 -0.175694
C18   C     C_R   0.498201 0.939341 0.382192 0.422538
C19   C     C_R   0.498707 0.877548 0.505709 -0.211681
C20   C     C_R   0.357186 0.387983 0.135187 -0.001007
C21   C     C_R   0.279304 0.387255 0.069803 -0.149408
C22   C     C_R   0.278626 0.386070 0.931324 -0.174637
C23   C     C_R   0.496403 0.740835 0.502054 0.933213
C24   C     C_R   0.355774 0.386579 0.861548 -0.022163
C25   C     C_R   0.431519 0.439343 0.926720 0.095725
C26   C     C_R   0.430999 0.442388 0.070545 0.106484
C27   C     C_R   0.565290 0.558372 0.073821 -0.015038
C28   C     C_R   0.561187 0.570841 0.932003 -0.061411
C29   C     C_R   0.661331 0.502286 0.499605 0.894942
C30   C     C_3   0.041362 0.434009 0.604361 0.181589
C31   C     C_3   0.047779 0.458136 0.349805 -0.283160
C32   C     C_3   0.946175 0.448383 0.358636 -0.262003
C33   C     C_1   0.750181 0.509160 0.497890 -0.076589
C34   C     C_3   0.083480 0.518593 0.490689 -0.122117
H1    H     H_    0.908920 0.360181 0.630166 0.240678
H2    H     H_    0.933570 0.511314 0.705642 0.254343
H3    H     H_    0.520536 0.111669 0.284324 0.265576
H4    H     H_    0.619801 0.234252 0.720565 0.175291
H5    H     H_    0.521013 0.936915 0.968672 0.241839
H6    H     H_    0.463896 0.817373 0.776662 0.198984
H7    H     H_    0.046498 0.333333 0.579418 0.240055
H8    H     H_    0.221010 0.353664 0.120018 0.207136
H9    H     H_    0.219767 0.350937 0.882747 0.239475
H10   H     H_    0.920190 0.498699 0.274955 0.255513
H11   H     H_    0.928055 0.705182 0.579959 0.177807
N1    N     N_R   0.499210 0.498800 0.142780 -0.155583
N2    N     N_R   0.499180 0.498720 0.857170 -0.148796
O1    O     O_R   0.500000 0.316780 0.614690 -0.619527
O2    O     O_R   0.499990 0.316750 0.385360 -0.612623
O3    O     O_R   0.377150 0.500020 0.614720 -0.629078
O4    O     O_R   0.377140 0.499990 0.385380 -0.613097
O5    O     O_R   0.500010 0.683250 0.614640 -0.615061
O6    O     O_R   0.500000 0.683220 0.385310 -0.532254
O7    O     O_R   0.622860 0.500010 0.614620 -0.577107
O8    O     O_R   0.622850 0.499980 0.385280 -0.618430
Zn1   Zn    Zn3+2 0.500010 0.500020 0.653130 1.009706
Zn2   Zn    Zn3+2 0.499990 0.499980 0.346870 1.053951
Cl1   Cl    Cl    0.090068 0.454883 0.766286 -0.578005
Cl2   Cl    Cl    0.924262 0.742527 0.354443 -0.470465
Cl3   Cl    Cl    0.618986 0.176645 0.997230 -0.525286
Cl4   Cl    Cl    0.459374 0.869409 0.228975 -0.514123
C35   C     C_2   0.642796 0.608427 0.146807 1.067615
O9    O     O_2   0.709687 0.561462 0.125856 -0.569537
O10   O     O_R   0.640834 0.712950 0.233735 -0.717307
H12   H     H_    0.698354 0.739361 0.275836 0.358383
C36   C     C_2   0.362202 0.276616 0.216608 0.967494
O11   O     O_2   0.406563 0.195034 0.177552 -0.593588
O12   O     O_R   0.308927 0.256454 0.327406 -0.756739
H13   H     H_    0.316925 0.174269 0.371975 0.373122
C37   C     C_2   0.356014 0.279456 0.765456 0.996413
O13   O     O_2   0.306122 0.269162 0.671532 -0.601739
O14   O     O_R   0.403431 0.179866 0.794877 -0.779545
H14   H     H_    0.389973 0.104822 0.731689 0.348300
C38   C     C_2   0.616635 0.678925 0.874870 0.905272
O15   O     O_2   0.634085 0.683516 0.757015 -0.568854
O16   O     O_R   0.647820 0.780492 0.957927 -0.788269
H15   H     H_    0.685577 0.846341 0.909028 0.369502
C39   C     C_2   0.081326 0.538364 0.232288 1.055870
O17   O     O_2   0.158268 0.558754 0.215508 -0.598421
O18   O     O_R   0.026304 0.584901 0.140183 -0.702233
H16   H     H_    0.057741 0.634463 0.067337 0.387011
C40   C     C_2   0.079086 0.328496 0.314128 0.901883
O19   O     O_2   0.126073 0.277402 0.388103 -0.555626
O20   O     O_R   0.054807 0.269283 0.191580 -0.755020
H17   H     H_    0.079418 0.185417 0.177257 0.378958
C41   C     C_2   0.901840 0.315106 0.343187 0.972287
O21   O     O_2   0.850567 0.290343 0.252563 -0.520942
O22   O     O_R   0.919574 0.221119 0.430704 -0.795998
H18   H     H_    0.886037 0.137487 0.408841 0.379939
C42   C     C_2   0.085061 0.712699 0.652879 1.008687
O23   O     O_2   0.161046 0.731422 0.679326 -0.556290
O24   O     O_R   0.025420 0.740306 0.751028 -0.795701
H19   H     H_    0.053039 0.774155 0.837730 0.380499
Cl5   Cl    Cl    0.114212 0.770076 0.403571 -0.448261

loop_
_geom_bond_atom_site_label_1
_geom_bond_atom_site_label_2
_ccdc_geom_bond_type
C2    H1    S    
C36   O12   S    
C28   N2    A    
C10   Cl3   S    
C3    C6    S    
C28   C38   S    
C5    Cl5   S    
C42   O23   D    
C24   C37   S    
C7    C8    T    
C31   C40   S    
C38   O16   S    
C20   C36   S    
C41   O22   S    
C29   O7    A    
C15   C16   A    
C29   C33   S    
O2    Zn2   S    
C18   C19   A    
O24   H19   S    
C13   H6    S    
C35   O10   S    
O12   H13   S    
O20   H17   S    
C31   C32   S    
C16   C17   A    
C30   H7    S    
C37   O13   D    
O4    Zn2   S    
C9    C10   A    
C25   N2    A    
C5    C42   S    
C36   O11   D    
C13   C14   A    
C23   O6    A    
C4    H11   S    
O7    Zn1   S    
C38   O15   D    
C30   C34   S    
C24   C25   A    
O6    Zn2   S    
C39   O17   D    
O18   H16   S    
C29   O8    A    
C25   C26   A    
O3    Zn1   S    
C19   C23   S    
C35   O9    D    
C27   C35   S    
C42   O24   S    
C22   H9    S    
C8    C12   S    
C32   C41   S    
C5    C34   S    
C20   C21   A    
C17   C18   A    
C32   H10   S    
C31   C34   S    
C18   Cl4   S    
C1    C16   S    
C17   H3    S    
O16   H15   S    
C11   H5    S    
C27   N1    A    
C40   O20   S    
O8    Zn2   S    
N1    Zn2   S    
C7    C34   S    
C22   C24   A    
C3    C4    S    
C12   O4    A    
C31   C39   S    
C2    H2    S    
O1    Zn1   S    
C41   O21   D    
C14   C19   A    
O14   H14   S    
C12   O3    A    
C1    O1    A    
C6    C33   T    
C2    C30   S    
O10   H12   S    
C2    C3    S    
C9    C15   A    
C11   C13   A    
C23   O5    A    
C20   C26   A    
C30   Cl1   S    
C4    Cl2   S    
C9    H4    S    
C39   O18   S    
C3    C32   S    
C10   C11   A    
C26   N1    A    
C21   H8    S    
C4    C5    S    
O22   H18   S    
C40   O19   D    
C27   C28   A    
C14   C15   A    
C37   O14   S    
C21   C22   A    
C1    O2    A    
O5    Zn1   S    
N2    Zn1   S    
