data_mof_unit_27918.cif
_audit_creation_date              2013-03-05T15:42:24-0500
_audit_creation_method            fapswitch 2.2
_symmetry_space_group_name_H-M    P1
_symmetry_Int_Tables_number       1
_space_group_crystal_system       triclinic
_cell_length_a                    10.981362
_cell_length_b                    10.920678
_cell_length_c                    18.796277
_cell_angle_alpha                 90.1557
_cell_angle_beta                  89.479239
_cell_angle_gamma                 60.837101
_cell_volume                      1968.23835165

loop_
_atom_site_label
_atom_site_type_symbol
_atom_site_description
_atom_site_fract_x
_atom_site_fract_y
_atom_site_fract_z
_atom_type_partial_charge
O1    O     O_R   0.507340 0.255690 0.581430 -0.532065
O2    O     O_R   0.280360 0.527380 0.578910 -0.523504
C1    C     C_R   0.240172 0.643547 0.611043 0.564907
O3    O     O_R   0.260600 0.739610 0.584580 -0.491756
O4    O     O_R   0.532370 0.695050 0.573830 -0.513953
C2    C     C_R   0.653429 0.622685 0.600655 0.537795
O5    O     O_R   0.744850 0.503430 0.576380 -0.527470
O6    O     O_R   0.699080 0.276500 0.571950 -0.464515
C3    C     C_R   0.626902 0.228974 0.602935 0.601173
O7    O     O_R   0.498860 0.256520 0.419860 -0.526768
O8    O     O_R   0.272490 0.528150 0.429140 -0.511089
C4    C     C_R   0.219545 0.649228 0.402716 0.547904
O9    O     O_R   0.252110 0.740440 0.423010 -0.507099
O10   O     O_R   0.524510 0.695820 0.424050 -0.508522
C5    C     C_R   0.642378 0.623300 0.392286 0.532218
O11   O     O_R   0.736370 0.504260 0.414810 -0.526877
O12   O     O_R   0.691220 0.277270 0.422180 -0.496822
C6    C     C_R   0.615761 0.231584 0.394337 0.551402
Cr1   Cr    Cr6+3 0.392940 0.397950 0.502230 1.011006
Cr2   Cr    Cr6+3 0.398400 0.708500 0.501260 1.036789
Cr3   Cr    Cr6+3 0.708640 0.393530 0.496460 1.050418
O13   O     O_3   0.499990 0.499990 0.499980 -0.265969
C7    C     C_3   0.580820 0.816173 0.780975 -0.216490
H1    H     H_    0.603322 0.903680 0.791056 0.160610
H2    H     H_    0.479598 0.843777 0.807599 0.143352
C8    C     C_3   0.568123 0.802280 0.700134 -0.240349
H3    H     H_    0.458721 0.833408 0.687392 0.128919
H4    H     H_    0.594045 0.875880 0.671473 0.138736
H5    H     H_    0.864740 0.722311 0.777016 0.124370
H6    H     H_    0.843741 0.690271 0.658090 0.144508
C9    C     C_3   0.835095 0.639069 0.769501 -0.225418
C10   C     C_3   0.660325 0.559855 0.800505 -0.247381
C11   C     C_3   0.699263 0.676057 0.811693 0.037890
H7    H     H_    0.744400 0.458020 0.820636 0.145036
H8    H     H_    0.562914 0.585278 0.830553 0.129838
C12   C     C_3   0.669075 0.649423 0.675949 0.052785
C13   C     C_3   0.818810 0.619440 0.690026 -0.244946
C14   C     C_3   0.639262 0.546322 0.720779 -0.218890
H9    H     H_    0.530868 0.567304 0.711852 0.125044
H10   H     H_    0.709992 0.435916 0.703809 0.141905
H11   H     H_    0.920095 0.540009 0.789977 0.151887
H12   H     H_    0.893365 0.509782 0.674118 0.145578
H13   H     H_    0.441983 0.276841 0.703215 0.175695
C15   C     C_R   0.695975 0.160581 0.824167 0.000261
C16   C     C_R   0.813534 0.125889 0.778970 -0.085393
C17   C     C_R   0.798301 0.123316 0.703636 -0.019162
C18   C     C_R   0.547576 0.227566 0.722459 -0.136300
C19   C     C_R   0.564522 0.221176 0.794560 0.336615
C20   C     C_R   0.943691 0.098795 0.805748 -0.083691
C21   C     C_R   0.055511 0.066423 0.759795 -0.150804
C22   C     C_R   0.043384 0.053523 0.687247 -0.124832
C23   C     C_R   0.919102 0.071190 0.659026 0.256491
C24   C     C_R   0.662014 0.179095 0.675945 -0.048448
H14   H     H_    0.959538 0.110038 0.861366 0.186477
H15   H     H_    0.155775 0.042331 0.780554 0.193075
H16   H     H_    0.134355 0.021119 0.653346 0.142980
H17   H     H_    0.276172 0.803731 0.704256 0.123527
C25   C     C_R   0.193161 0.654199 0.837464 0.012134
C26   C     C_R   0.186789 0.545196 0.799006 -0.016078
C27   C     C_R   0.184739 0.548117 0.723491 -0.010125
C28   C     C_R   0.242388 0.736571 0.728948 -0.154769
C29   C     C_R   0.233267 0.740229 0.802183 -0.154156
C30   C     C_R   0.183667 0.432677 0.834152 0.038730
C31   C     C_R   0.174002 0.328543 0.796714 0.408185
C32   C     C_R   0.159186 0.337394 0.723325 -0.131969
C33   C     C_R   0.160923 0.447934 0.687036 -0.189571
C34   C     C_R   0.209755 0.648994 0.687994 0.023447
H18   H     H_    0.203182 0.414974 0.890442 0.196149
H19   H     H_    0.250190 0.816289 0.831196 0.137298
H20   H     H_    0.145809 0.259225 0.694276 0.126591
H21   H     H_    0.140481 0.453760 0.630836 0.154755
H22   H     H_    0.431748 0.775708 0.302724 0.162195
C35   C     C_R   0.667912 0.650766 0.169022 0.016576
C36   C     C_R   0.783693 0.552088 0.210212 -0.024294
C37   C     C_R   0.785207 0.577461 0.283102 -0.000183
C38   C     C_R   0.533745 0.727367 0.277541 -0.117328
C39   C     C_R   0.541183 0.733596 0.203609 0.345006
C40   C     C_R   0.899585 0.430794 0.181200 -0.084044
C41   C     C_R   0.022967 0.360015 0.218346 -0.148060
C42   C     C_R   0.029605 0.397214 0.288158 -0.131191
C43   C     C_R   0.913198 0.508566 0.319807 -0.064935
C44   C     C_R   0.656121 0.656662 0.318254 -0.064444
H23   H     H_    0.896016 0.387744 0.129842 0.140762
H24   H     H_    0.111478 0.273763 0.192926 0.101063
H25   H     H_    0.124612 0.339343 0.317900 0.119789
H26   H     H_    0.922569 0.537241 0.373851 0.137406
H27   H     H_    0.723442 0.329979 0.297562 0.151610
C45   C     C_R   0.626981 0.173368 0.173625 0.008571
C46   C     C_R   0.542983 0.136713 0.217913 0.025194
C47   C     C_R   0.570316 0.122226 0.290898 0.015523
C48   C     C_R   0.684179 0.264190 0.275743 -0.146315
C49   C     C_R   0.688893 0.245777 0.202765 -0.166337
C50   C     C_R   0.430961 0.118038 0.193430 -0.064930
C51   C     C_R   0.361429 0.071738 0.239281 -0.100141
C52   C     C_R   0.403608 0.039317 0.309171 -0.133142
C53   C     C_R   0.513232 0.056021 0.333783 -0.091832
C54   C     C_R   0.638469 0.190879 0.320239 0.011375
H28   H     H_    0.388263 0.147899 0.140848 0.157052
H29   H     H_    0.743160 0.284669 0.169386 0.114476
H30   H     H_    0.276565 0.057395 0.220266 0.168760
H31   H     H_    0.350776 0.001954 0.344576 0.125401
H32   H     H_    0.545697 0.026625 0.388175 0.141659
H33   H     H_    0.256818 0.456711 0.305172 0.143529
C55   C     C_R   0.065783 0.724564 0.195223 0.021861
C56   C     C_R   0.034910 0.839263 0.242524 0.031657
C57   C     C_R   0.056062 0.812736 0.315863 0.011194
C58   C     C_R   0.183989 0.563149 0.289791 -0.152095
C59   C     C_R   0.140731 0.587445 0.220057 -0.122462
C60   C     C_R   0.996185 0.977015 0.220217 -0.081447
C61   C     C_R   0.983475 0.078512 0.269035 -0.150010
C62   C     C_R   0.982432 0.056161 0.341315 -0.103922
C63   C     C_R   0.009427 0.925614 0.364672 -0.077688
C64   C     C_R   0.140858 0.674732 0.337965 -0.004212
H34   H     H_    0.981299 0.010426 0.166057 0.173776
H35   H     H_    0.175402 0.498372 0.184343 0.148180
H36   H     H_    0.959834 0.179881 0.250568 0.124183
H37   H     H_    0.960473 0.139812 0.378924 0.159304
H38   H     H_    0.006655 0.909774 0.421289 0.198271
O14   O     O_R   0.089570 0.825450 0.930590 -0.504219
O15   O     O_R   0.818700 0.054260 0.929860 -0.535390
C65   C     C_R   0.705062 0.101334 0.895750 0.573716
O16   O     O_R   0.606310 0.077010 0.915520 -0.429566
O17   O     O_R   0.646730 0.806540 0.917560 -0.504327
C66   C     C_R   0.724834 0.688776 0.887856 0.538370
O18   O     O_R   0.837290 0.593240 0.915240 -0.520689
O19   O     O_R   0.065320 0.635310 0.931580 -0.524721
C67   C     C_R   0.121786 0.703060 0.906744 0.551509
O20   O     O_R   0.068470 0.828620 0.091850 -0.500548
O21   O     O_R   0.799150 0.057200 0.079350 -0.539323
C68   C     C_R   0.671275 0.109657 0.103245 0.535420
O22   O     O_R   0.585220 0.080180 0.076770 -0.521982
O23   O     O_R   0.627170 0.809480 0.067050 -0.445407
C69   C     C_R   0.696380 0.685612 0.096852 0.570740
O24   O     O_R   0.816200 0.596410 0.076500 -0.552484
O25   O     O_R   0.045770 0.638240 0.081070 -0.497904
C70   C     C_R   0.030921 0.745519 0.119796 0.551867
Cr4   Cr    Cr6+3 0.937880 0.938320 0.007620 1.019991
Cr5   Cr    Cr6+3 0.625560 0.937220 0.994510 1.087033
Cr6   Cr    Cr6+3 0.938080 0.625010 0.001190 1.018324
O26   O     O_3   0.833840 0.833520 0.001110 -0.287664
F1    F     F_    0.451069 0.269964 0.837042 -0.641818
N1    N     N_R   0.921515 0.023638 0.587392 0.082549
O27   O     O_R   0.860695 0.950065 0.572586 -0.386599
O28   O     O_R   0.001246 0.035628 0.539462 -0.381401
F2    F     F_    0.178864 0.219805 0.833071 -0.665506
F3    F     F_    0.424233 0.811716 0.165603 -0.636633

loop_
_geom_bond_atom_site_label_1
_geom_bond_atom_site_label_2
_geom_bond_distance
_ccdc_geom_bond_type
C25   C29   1.384821 A    
C14   H10   1.113312 S    
C50   C51   1.395722 A    
H27   C48   1.083420 S    
C31   F2    1.350285 S    
C35   C36   1.436785 A    
C52   C53   1.385695 A    
C45   C68   1.457454 S    
H22   C38   1.081676 S    
O25   C70   1.317576 A    
O4    Cr2   1.968125 S    
C57   C63   1.411927 A    
C16   C17   1.429163 A    
O18   Cr6   2.087841 S    
O25   Cr6   1.967571 S    
C4    O9    1.270110 A    
O17   Cr5   1.960110 S    
O8    Cr1   1.967072 S    
C8    H3    1.106294 S    
O19   C67   1.262366 A    
O4    C2    1.279261 A    
C59   H35   1.082888 S    
C12   C13   1.537719 S    
O21   C68   1.305734 A    
C53   H32   1.082718 S    
O20   C70   1.277838 A    
C41   H24   1.075693 S    
O23   Cr5   1.947350 S    
C5    O11   1.279769 A    
C17   C23   1.424118 A    
C15   C65   1.477564 S    
C22   H16   1.082544 S    
C7    C8    1.540967 S    
C13   H12   1.109899 S    
C61   C62   1.381921 A    
C58   C64   1.397433 A    
C40   H23   1.081960 S    
C45   C49   1.384166 A    
C27   C34   1.424722 A    
O6    C3    1.277094 A    
C7    C11   1.563742 S    
C11   C66   1.480470 S    
C7    H1    1.113645 S    
C9    C11   1.551311 S    
C6    C54   1.442868 S    
C10   C14   1.536037 S    
C55   C70   1.461229 S    
C47   C54   1.406587 A    
C43   H26   1.082651 S    
O9    Cr2   2.089329 S    
C18   C24   1.397517 A    
C55   C59   1.395441 A    
C27   C33   1.418790 A    
C26   C27   1.419996 A    
Cr3   O13   2.001648 S    
C51   C52   1.385429 A    
C55   C56   1.431434 A    
O6    Cr3   1.948258 S    
C5    C44   1.464381 S    
Cr4   O26   1.976425 S    
O19   Cr6   1.948764 S    
O1    Cr1   2.086237 S    
C36   C37   1.398909 A    
C57   C64   1.397762 A    
C22   C23   1.392247 A    
O14   Cr4   2.082270 S    
C10   H8    1.113135 S    
O10   Cr2   1.954134 S    
O17   C66   1.270309 A    
Cr1   O13   1.975228 S    
O1    C3    1.268584 A    
C38   C39   1.395087 A    
O16   Cr5   2.069566 S    
C38   C44   1.413640 A    
C48   C49   1.382673 A    
C40   C41   1.385704 A    
O23   C69   1.315738 A    
C21   C22   1.384789 A    
C25   C26   1.421936 A    
O5    Cr3   2.078778 S    
O12   Cr3   1.956997 S    
C9    C13   1.532947 S    
H6    C13   1.113357 S    
C10   H7    1.113703 S    
C32   H20   1.081464 S    
O20   Cr4   2.091774 S    
C42   H25   1.081820 S    
C28   C34   1.403831 A    
C33   H21   1.077522 S    
C51   H30   1.081092 S    
O7    Cr1   2.083011 S    
C58   C59   1.380034 A    
O12   C6    1.272340 A    
C37   C44   1.406789 A    
C48   C54   1.407153 A    
H17   C28   1.074652 S    
C65   O16   1.287857 A    
Cr5   O26   2.002677 S    
C60   H34   1.069164 S    
C8    C12   1.550925 S    
C35   C69   1.481129 S    
C20   C21   1.390989 A    
C69   O24   1.251489 A    
N1    O28   1.301311 A    
C41   C42   1.385607 A    
C3    C24   1.462073 S    
C1    O3    1.276108 A    
C61   H36   1.066304 S    
O24   Cr6   2.065921 S    
C15   C16   1.425998 A    
Cr6   O26   1.988747 S    
C4    C64   1.446339 S    
C56   C60   1.415234 A    
C30   H18   1.080565 S    
C9    H11   1.101989 S    
C62   C63   1.380950 A    
O2    Cr1   1.963953 S    
O10   C5    1.281939 A    
C8    H4    1.113482 S    
C1    C34   1.475986 S    
Cr2   O13   1.988380 S    
C42   C43   1.390681 A    
C18   C19   1.366968 A    
O8    C4    1.262011 A    
O11   Cr3   2.066597 S    
C47   C53   1.414621 A    
C2    O5    1.275293 A    
O15   Cr4   1.970305 S    
C52   H31   1.082186 S    
C37   C43   1.416815 A    
C56   C57   1.407322 A    
C26   C30   1.411567 A    
C21   H15   1.076933 S    
C62   H37   1.082177 S    
C31   C32   1.388582 A    
C12   C14   1.563441 S    
O2    C1    1.270553 A    
H5    C9    1.113949 S    
O22   Cr5   2.079597 S    
C60   C61   1.389759 A    
C10   C11   1.538326 S    
C63   H38   1.081158 S    
C14   H9    1.111541 S    
O7    C6    1.264781 A    
C50   H28   1.078970 S    
C17   C24   1.417467 A    
C2    C12   1.472673 S    
C19   F1    1.343996 S    
C68   O22   1.244364 A    
C7    H2    1.113263 S    
C46   C50   1.421605 A    
C28   C29   1.378334 A    
C23   N1    1.437158 S    
C30   C31   1.383605 A    
O3    Cr2   2.076287 S    
C15   C19   1.384561 A    
C25   C67   1.471335 S    
O21   Cr4   1.962073 S    
C45   C46   1.432381 A    
C29   H19   1.082445 S    
C32   C33   1.396271 A    
C36   C40   1.418495 A    
N1    O27   1.301638 A    
C35   C39   1.389639 A    
O15   C65   1.274250 A    
H33   C58   1.083680 S    
C16   C20   1.409084 A    
C46   C47   1.399808 A    
H13   C18   1.079605 S    
C39   F3    1.356355 S    
C20   H14   1.077809 S    
C49   H29   1.081883 S    
C66   O18   1.279565 A    
O14   C67   1.282787 A    
