data_mof_unit_20000.cif
_audit_creation_date              2012-12-10T17:33:46-0500
_audit_creation_method            fapswitch 2.2
_symmetry_space_group_name_H-M    P1
_symmetry_Int_Tables_number       1
_space_group_crystal_system       triclinic
_cell_length_a                    11.657194
_cell_length_b                    12.385928
_cell_length_c                    13.175899
_cell_angle_alpha                 116.699507
_cell_angle_beta                  76.703107
_cell_angle_gamma                 100.627884
_cell_volume                      1646.78833952

loop_
_atom_site_label
_atom_site_type_symbol
_atom_type_description
_atom_site_fract_x
_atom_site_fract_y
_atom_site_fract_z
_atom_type_partial_charge
C1    C     C_R   0.512601 0.855070 0.286299 0.856464
C2    C     C_R   0.460846 0.228957 0.837836 -0.080231
C3    C     C_R   0.625450 0.804778 0.091768 -0.269593
C4    C     C_R   0.683107 0.716591 0.991321 0.209248
C5    C     C_R   0.644212 0.593016 0.961921 0.094218
C6    C     C_R   0.534003 0.559219 0.020928 -0.012115
C7    C     C_R   0.477790 0.650841 0.122940 0.053270
C8    C     C_R   0.479567 0.437408 0.984843 0.052379
C9    C     C_R   0.388650 0.404471 0.061055 0.091654
C10   C     C_R   0.334761 0.497386 0.159876 -0.274148
C11   C     C_R   0.370653 0.618686 0.184139 0.159022
C12   C     C_R   0.715555 0.999753 0.500042 0.828085
C13   C     C_R   0.504416 0.350583 0.871113 -0.327817
C14   C     C_R   0.388688 0.192109 0.920049 0.112630
C15   C     C_R   0.531642 0.771620 0.162823 -0.145708
C16   C     C_R   0.629684 0.305078 0.284332 0.054907
C17   C     C_R   0.345641 0.766785 0.651766 0.035255
C18   C     C_R   0.294806 0.668634 0.678798 0.053914
C19   C     C_R   0.338408 0.552429 0.609860 0.106364
C20   C     C_R   0.443550 0.542819 0.525203 -0.082017
C21   C     C_R   0.484077 0.643819 0.495429 0.214500
C22   C     C_R   0.507123 0.435040 0.462831 -0.056133
C23   C     C_R   0.482550 0.145306 0.714114 0.819671
C24   C     C_R   0.574771 0.413228 0.352586 0.118233
C25   C     C_R   0.597230 0.504459 0.316361 -0.288957
C26   C     C_R   0.572053 0.621605 0.393471 0.170744
C27   C     C_R   0.512229 0.350351 0.506175 0.017718
C28   C     C_R   0.623777 0.222610 0.329877 0.020055
C29   C     C_R   0.284421 0.000585 0.500373 0.832272
C30   C     C_1   0.837273 0.999331 0.500060 -0.187236
C31   C     C_1   0.940034 0.999708 0.499962 -0.010062
C32   C     C_1   0.060097 0.000500 0.499912 -0.015486
C33   C     C_1   0.162799 0.000915 0.500032 -0.181705
C34   C     C_R   0.347086 0.280108 0.031365 0.138738
Cu1   Cu    Cu3+1 0.526510 0.098270 0.475420 0.927112
Cu2   Cu    Cu3+1 0.473490 0.901730 0.524580 0.956792
H1    H     H_    0.655787 0.491547 0.235625 0.190421
H2    H     H_    0.476104 0.366851 0.593803 0.132447
H3    H     H_    0.309725 0.853411 0.698492 0.179213
H4    H     H_    0.258110 0.478731 0.215478 0.148778
H5    H     H_    0.552409 0.378587 0.805462 0.177648
H6    H     H_    0.661631 0.898623 0.122464 0.170679
H7    H     H_    0.663117 0.137868 0.277701 0.128416
N1    N     N_R   0.566700 0.246290 0.438210 -0.195638
N2    N     N_R   0.434010 0.754320 0.561170 -0.217815
O1    O     O_R   0.533340 0.972510 0.318140 -0.601512
O2    O     O_R   0.488570 0.806530 0.359650 -0.543953
O3    O     O_R   0.685190 0.083000 0.479260 -0.576629
O4    O     O_R   0.640410 0.917020 0.520770 -0.539895
O5    O     O_R   0.511430 0.193470 0.640350 -0.602591
O6    O     O_R   0.466660 0.027490 0.681860 -0.552234
O7    O     O_R   0.359590 0.082980 0.479230 -0.570013
O8    O     O_R   0.314810 0.917000 0.520740 -0.588479
N3    N     N_3   0.353083 0.065735 0.887308 -0.594241
H8    H     H_    0.261958 0.051363 0.887467 0.201295
H9    H     H_    0.374831 0.040402 0.945780 0.226490
N4    N     N_3   0.691590 0.279070 0.169529 -0.615367
H10   H     H_    0.778885 0.265880 0.165471 0.213021
H11   H     H_    0.652090 0.197638 0.113157 0.218120
C35   C     C_3   0.261607 0.439694 0.617174 -0.394202
C36   C     C_3   0.227547 0.346465 0.501868 -0.814074
H12   H     H_    0.198074 0.392120 0.457767 0.249183
H13   H     H_    0.302289 0.293123 0.445889 0.267521
H14   H     H_    0.153698 0.281301 0.516270 0.242012
H15   H     H_    0.300937 0.397474 0.657407 0.187516
H16   H     H_    0.175618 0.461944 0.674366 0.194453
C37   C     C_3   0.189266 0.684642 0.776686 -0.410881
C38   C     C_3   0.168092 0.814162 0.864887 -0.891833
H17   H     H_    0.249049 0.859678 0.902863 0.262502
H18   H     H_    0.139884 0.865028 0.825148 0.244161
H19   H     H_    0.095651 0.811987 0.935569 0.253455
H20   H     H_    0.107097 0.642628 0.739152 0.211068
H21   H     H_    0.203012 0.637112 0.826643 0.210696
N5    N     N_3   0.654714 0.713131 0.374292 -0.505062
H22   H     H_    0.736530 0.705834 0.389636 0.199942
H23   H     H_    0.666780 0.697349 0.287664 0.199120
C39   C     C_3   0.260545 0.240015 0.116818 -0.437150
C40   C     C_3   0.323081 0.244624 0.208316 -0.818281
H24   H     H_    0.403052 0.193938 0.167501 0.257929
H25   H     H_    0.349336 0.340002 0.265656 0.263865
H26   H     H_    0.261971 0.200948 0.259983 0.243462
H27   H     H_    0.183591 0.294713 0.156805 0.190367
H28   H     H_    0.219226 0.146270 0.075356 0.202904
N6    N     N_3   0.728244 0.506777 0.886448 -0.632332
H29   H     H_    0.719228 0.432581 0.906286 0.243359
H30   H     H_    0.722126 0.480583 0.800501 0.212017
C41   C     C_3   0.793909 0.749293 0.919033 -0.350805
C42   C     C_3   0.825423 0.884657 0.949526 -0.899598
H31   H     H_    0.749435 0.925470 0.947071 0.258987
H32   H     H_    0.852111 0.932947 0.035955 0.245241
H33   H     H_    0.901494 0.896197 0.885641 0.252041
H34   H     H_    0.870828 0.712980 0.925782 0.218989
H35   H     H_    0.781422 0.703679 0.827381 0.204612
N7    N     N_3   0.293385 0.708344 0.266624 -0.589760
H36   H     H_    0.213867 0.690615 0.235593 0.206694
H37   H     H_    0.274097 0.697624 0.343316 0.241684

loop_
_geom_bond_atom_site_label_1
_geom_bond_atom_site_label_2
_ccdc_geom_bond_type
C16   C28   A    
C21   C26   A    
C3    H6    S    
C8    C13   A    
Cu1   Cu2   S    
C12   O3    A    
C13   H5    S    
C12   O4    A    
C4    C41   S    
C39   C40   S    
C7    C11   A    
N5    H23   S    
N6    H30   S    
C37   H20   S    
C34   C39   S    
C30   C31   T    
C40   H25   S    
C1    O1    A    
N4    H11   S    
C39   H28   S    
C27   H2    S    
C29   C33   S    
Cu2   O2    S    
C10   H4    S    
C18   C19   A    
C17   H3    S    
C36   H13   S    
C2    C13   A    
Cu2   O8    S    
C25   H1    S    
C38   H17   S    
C27   N1    A    
C19   C20   A    
C8    C9    A    
C1    C15   S    
C9    C10   A    
C7    C15   A    
C35   H16   S    
C16   C24   A    
C41   H34   S    
N7    H36   S    
Cu1   O3    S    
C21   N2    A    
N3    H9    S    
N5    H22   S    
C37   C38   S    
N6    H29   S    
C5    N6    S    
C40   H24   S    
C1    O2    A    
C23   O5    A    
C6    C8    A    
C18   C37   S    
C28   N1    A    
C17   N2    A    
C35   C36   S    
C36   H14   S    
C23   O6    A    
C31   C32   S    
C42   H33   S    
C20   C21   A    
Cu1   O5    S    
C17   C18   A    
Cu2   N2    S    
C24   C25   A    
N7    H37   S    
Cu1   N1    S    
Cu2   O6    S    
C37   H21   S    
C11   N7    S    
C14   N3    S    
C42   H32   S    
C35   H15   S    
C22   C27   A    
C9    C34   A    
C22   C24   A    
C3    C4    A    
C2    C23   S    
C3    C15   A    
N3    H8    S    
C12   C30   S    
C20   C22   A    
C4    C5    A    
C14   C34   A    
C6    C7    A    
C19   C35   S    
C28   H7    S    
C32   C33   T    
C25   C26   A    
C40   H26   S    
N4    H10   S    
C5    C6    A    
C29   O8    A    
C39   H27   S    
C38   H19   S    
C41   H35   S    
C26   N5    S    
C16   N4    S    
C36   H12   S    
C2    C14   A    
C10   C11   A    
C42   H31   S    
C41   C42   S    
C38   H18   S    
Cu1   O7    S    
Cu1   O1    S    
Cu2   O4    S    
C29   O7    A    
