data_mof_unit_40158.cif
_audit_creation_date              2012-12-10T17:53:13-0500
_audit_creation_method            fapswitch 2.2
_symmetry_space_group_name_H-M    P1
_symmetry_Int_Tables_number       1
_space_group_crystal_system       triclinic
_cell_length_a                    23.426626
_cell_length_b                    10.669633
_cell_length_c                    9.883806
_cell_angle_alpha                 91.334145
_cell_angle_beta                  90.10763
_cell_angle_gamma                 92.048056
_cell_volume                      2468.23540285

loop_
_atom_site_label
_atom_site_type_symbol
_atom_type_description
_atom_site_fract_x
_atom_site_fract_y
_atom_site_fract_z
_atom_type_partial_charge
Br1   Br    Br    0.509603 0.121898 0.191468 -0.539568
C1    C     C_R   0.507436 0.261569 0.498114 0.897137
C2    C     C_R   0.121382 0.598200 0.471226 0.505344
C3    C     C_R   0.237827 0.493930 0.376093 -0.097531
C4    C     C_R   0.389336 0.498939 0.499880 0.877070
C5    C     C_R   0.297098 0.497050 0.376324 -0.218157
C6    C     C_R   0.327050 0.495302 0.499442 -0.041653
C7    C     C_R   0.296985 0.489097 0.622036 -0.218825
C8    C     C_R   0.237707 0.485791 0.621368 -0.098561
C9    C     C_R   0.208250 0.488708 0.498535 0.319866
C10   C     C_R   0.762198 0.501819 0.378387 -0.101375
C11   C     C_R   0.702999 0.503696 0.377910 -0.204288
C12   C     C_R   0.966026 0.270590 0.555924 -0.156383
C13   C     C_R   0.672878 0.498593 0.500452 -0.032944
C14   C     C_R   0.702687 0.491392 0.623275 -0.227351
C15   C     C_R   0.761895 0.489399 0.623334 -0.098052
C16   C     C_R   0.505351 0.740216 0.501440 0.907085
C17   C     C_R   0.791544 0.494707 0.500987 0.320300
C18   C     C_R   0.574932 0.142883 0.712611 -0.138877
C19   C     C_R   0.598802 0.082602 0.821466 -0.085142
C20   C     C_R   0.597426 0.952516 0.824237 -0.119347
C21   C     C_R   0.571866 0.882269 0.718573 -0.161072
C22   C     C_R   0.544462 0.941280 0.610705 0.109887
C23   C     C_R   0.025440 0.269630 0.555266 -0.158431
C24   C     C_R   0.546377 0.073501 0.606985 0.065544
C25   C     C_R   0.522908 0.131385 0.492541 -0.198752
C26   C     C_R   0.512690 0.059966 0.372722 0.269459
C27   C     C_R   0.506712 0.933003 0.380799 -0.235243
C28   C     C_R   0.610660 0.500075 0.500114 0.847545
C29   C     C_R   0.517720 0.873527 0.501511 -0.185736
C30   C     C_R   0.420936 0.344469 0.136360 -0.109568
C31   C     C_R   0.381516 0.268622 0.064200 -0.156934
C32   C     C_R   0.381967 0.267144 0.924181 -0.182584
C33   C     C_R   0.421649 0.341928 0.855668 -0.151215
C34   C     C_R   0.057706 0.379319 0.527229 -0.014707
C35   C     C_R   0.460989 0.423134 0.925583 0.171939
C36   C     C_R   0.460803 0.423804 0.070348 0.185627
C37   C     C_R   0.537817 0.572165 0.073713 -0.098840
C38   C     C_R   0.537911 0.571788 0.930504 -0.114666
C39   C     C_R   0.882513 0.602026 0.473821 0.503309
C40   C     C_R   0.878366 0.384552 0.528374 0.504573
C41   C     C_R   0.937915 0.381257 0.528571 -0.016027
C42   C     C_R   0.969925 0.491818 0.500203 -0.021296
C43   C     C_R   0.942125 0.603374 0.472534 -0.015158
C44   C     C_R   0.029878 0.490840 0.499496 -0.021312
C45   C     C_R   0.061861 0.601424 0.471109 -0.016379
C46   C     C_R   0.033767 0.712103 0.443810 -0.156358
C47   C     C_R   0.974377 0.713075 0.444534 -0.158259
C48   C     C_R   0.117350 0.380773 0.525982 0.502857
H1    H     H_    0.942262 0.184529 0.577872 0.195505
H2    H     H_    0.568694 0.631069 0.129335 0.144340
H3    H     H_    0.045942 0.182866 0.576751 0.193676
H4    H     H_    0.420729 0.333731 0.243151 0.209908
H5    H     H_    0.351475 0.208170 0.117379 0.163770
H6    H     H_    0.352041 0.206061 0.868114 0.163516
H7    H     H_    0.420628 0.331746 0.748403 0.206726
H8    H     H_    0.569265 0.629384 0.878620 0.129590
H9    H     H_    0.057523 0.798174 0.421867 0.195521
H10   H     H_    0.953884 0.799862 0.423099 0.193866
H11   H     H_    0.214781 0.496055 0.281134 0.140580
H12   H     H_    0.680950 0.509275 0.281937 0.162736
H13   H     H_    0.319331 0.501286 0.280462 0.164803
H14   H     H_    0.319132 0.487067 0.718209 0.166182
H15   H     H_    0.214573 0.482007 0.716031 0.140944
H16   H     H_    0.785374 0.505796 0.283790 0.140347
H17   H     H_    0.680380 0.487128 0.719039 0.159324
H18   H     H_    0.784840 0.484165 0.718142 0.140347
H19   H     H_    0.582228 0.243239 0.709503 0.167059
H20   H     H_    0.620407 0.136984 0.901334 0.155556
H21   H     H_    0.618019 0.905739 0.906174 0.141437
H22   H     H_    0.577022 0.782560 0.719538 0.151441
H23   H     H_    0.493020 0.880875 0.290319 0.206817
N1    N     N_R   0.852233 0.493731 0.501227 -0.360436
N2    N     N_R   0.147562 0.489080 0.498333 -0.360662
N3    N     N_R   0.499460 0.498800 0.142780 -0.117982
N4    N     N_R   0.499440 0.498720 0.857170 -0.123617
O1    O     O_R   0.500000 0.316780 0.614690 -0.651959
O2    O     O_R   0.583850 0.500050 0.614640 -0.645141
O3    O     O_R   0.583840 0.500030 0.385310 -0.615779
O4    O     O_2   0.854861 0.707907 0.448676 -0.549102
O5    O     O_2   0.846687 0.279683 0.554123 -0.547709
O6    O     O_2   0.145077 0.275078 0.551452 -0.551017
O7    O     O_2   0.153012 0.703138 0.445419 -0.546413
O8    O     O_R   0.500000 0.316750 0.385360 -0.586536
O9    O     O_R   0.416160 0.499970 0.614690 -0.634185
O10   O     O_R   0.416150 0.499950 0.385360 -0.643246
O11   O     O_R   0.500000 0.683250 0.614640 -0.615487
O12   O     O_R   0.500000 0.683220 0.385310 -0.618055
Zn1   Zn    Zn3+2 0.500000 0.500020 0.653130 0.932127
Zn2   Zn    Zn3+2 0.500000 0.499980 0.346870 0.964259

loop_
_geom_bond_atom_site_label_1
_geom_bond_atom_site_label_2
_ccdc_geom_bond_type
C32   H6    S    
C10   C17   A    
C33   H7    S    
C16   O12   A    
C40   C41   A    
C1    O8    A    
C18   C19   A    
C6    C7    A    
C44   C45   A    
O1    Zn1   S    
C25   C26   A    
C35   C36   A    
C23   H3    S    
C37   C38   A    
C14   C15   A    
C8    H15   S    
C39   N1    A    
C2    N2    A    
O3    Zn2   S    
C35   N4    A    
N3    Zn2   S    
C28   O2    A    
C30   C31   A    
C7    C8    A    
C34   C48   A    
C39   O4    S    
C8    C9    A    
N4    Zn1   S    
C4    O9    A    
C36   N3    A    
C48   N2    A    
C20   C21   A    
C16   C29   S    
C27   H23   S    
O8    Zn2   S    
C31   H5    S    
C12   C41   A    
C37   N3    A    
C21   C22   A    
O2    Zn1   S    
C23   C34   A    
C22   C29   A    
C3    C5    A    
O10   Zn2   S    
C4    C6    S    
O9    Zn1   S    
C37   H2    S    
C24   C25   A    
C14   H17   S    
C30   C36   A    
C12   C23   A    
C48   O6    S    
C42   C43   A    
C46   C47   A    
C28   O3    A    
C40   O5    S    
C3    H11   S    
C32   C33   A    
C18   H19   S    
C1    C25   S    
C15   H18   S    
C38   N4    A    
C30   H4    S    
C42   C44   A    
C4    O10   A    
O12   Zn2   S    
C17   N1    S    
O11   Zn1   S    
C2    O7    S    
C19   H20   S    
C41   C42   A    
C13   C28   S    
C3    C9    A    
C34   C44   A    
C21   H22   S    
C47   H10   S    
C45   C46   A    
C16   O11   A    
C11   C13   A    
C10   C11   A    
C5    C6    A    
C2    C45   A    
C20   H21   S    
C31   C32   A    
C5    H13   S    
C27   C29   A    
C1    O1    A    
C46   H9    S    
C11   H12   S    
C9    N2    S    
C33   C35   A    
C22   C24   A    
C18   C24   A    
C7    H14   S    
C40   N1    A    
C12   H1    S    
C10   H16   S    
C39   C43   A    
C19   C20   A    
C15   C17   A    
C26   C27   A    
Br1   C26   S    
C13   C14   A    
C43   C47   A    
C38   H8    S    
