data_mof_unit_45828.cif
_audit_creation_date              2012-12-10T17:47:49-0500
_audit_creation_method            fapswitch 2.2
_symmetry_space_group_name_H-M    P1
_symmetry_Int_Tables_number       1
_space_group_crystal_system       triclinic
_cell_length_a                    14.61078
_cell_length_b                    14.813075
_cell_length_c                    14.356986
_cell_angle_alpha                 77.364717
_cell_angle_beta                  102.156541
_cell_angle_gamma                 115.267074
_cell_volume                      2717.66005827

loop_
_atom_site_label
_atom_site_type_symbol
_atom_type_description
_atom_site_fract_x
_atom_site_fract_y
_atom_site_fract_z
_atom_type_partial_charge
C1    C     C_R   0.879395 0.312303 0.515848 0.799948
C2    C     C_R   0.120303 0.687424 0.482510 0.809452
C3    C     C_R   0.630572 0.092157 0.547669 0.031849
C4    C     C_R   0.353774 0.931717 0.496981 0.040203
C5    C     C_R   0.661893 0.029417 0.625401 0.134840
C6    C     C_R   0.319281 0.997762 0.426595 0.096692
C7    C     C_R   0.524214 0.067515 0.516519 -0.011958
C8    C     C_R   0.453268 0.969489 0.550016 0.034429
C9    C     C_R   0.483743 0.917136 0.638821 0.123898
C10   C     C_R   0.484413 0.135982 0.454741 0.133596
C11   C     C_R   0.587996 0.945438 0.671883 -0.247310
C12   C     C_R   0.385977 0.097736 0.404916 -0.212876
C13   C     C_R   0.722031 0.674482 0.348670 -0.354342
C14   C     C_R   0.297846 0.358648 0.677085 -0.353087
C15   C     C_R   0.796498 0.635377 0.366406 0.391727
C16   C     C_R   0.207023 0.369963 0.637622 0.395576
C17   C     C_R   0.720988 0.522558 0.500547 -0.044888
C18   C     C_R   0.289754 0.496553 0.514166 0.000933
C19   C     C_R   0.646402 0.563613 0.489085 -0.035269
C20   C     C_R   0.385916 0.492020 0.554151 -0.008509
C21   C     C_R   0.647217 0.639071 0.409360 0.118797
C22   C     C_R   0.387251 0.419866 0.636543 0.070466
C23   C     C_R   0.999867 0.499888 0.668880 0.813691
C24   C     C_R   0.000119 0.500112 0.331109 0.811299
C25   C     C_R   0.566712 0.527625 0.548612 -0.022896
C26   C     C_R   0.479333 0.552689 0.514008 0.053955
C27   C     C_R   0.490872 0.638459 0.442417 0.129649
C28   C     C_R   0.568234 0.465664 0.639603 0.138163
C29   C     C_R   0.573842 0.679579 0.390710 -0.232101
C30   C     C_R   0.478339 0.411310 0.680480 -0.177193
C31   C     C_1   0.999719 0.499906 0.771178 -0.203674
C32   C     C_1   0.000219 0.500141 0.228777 -0.198200
C33   C     C_1   0.999719 0.499951 0.856566 -0.009670
C34   C     C_1   0.000151 0.500142 0.143358 -0.012167
C35   C     C_1   0.999837 0.500031 0.957239 0.002446
C36   C     C_1   0.999984 0.500095 0.042662 0.000530
C37   C     C_R   0.809636 0.206668 0.541245 -0.074684
C38   C     C_R   0.187977 0.794635 0.465413 -0.089817
C39   C     C_R   0.766902 0.054834 0.658782 0.159728
C40   C     C_R   0.217033 0.963502 0.381331 0.168047
C41   C     C_R   0.839689 0.144541 0.617844 -0.240288
C42   C     C_R   0.151211 0.862973 0.404971 -0.222489
C43   C     C_R   0.707047 0.174895 0.501105 -0.261693
C44   C     C_R   0.290331 0.828426 0.506321 -0.241952
Cu1   Cu    Cu3+1 0.081740 0.475690 0.523180 0.954620
Cu2   Cu    Cu3+1 0.918260 0.524310 0.476820 0.947519
H1    H     H_    0.611396 0.903082 0.736871 0.176545
H2    H     H_    0.360055 0.148371 0.351026 0.174940
H3    H     H_    0.320954 0.773356 0.541684 0.170945
H4    H     H_    0.688192 0.217793 0.434571 0.149707
H5    H     H_    0.072538 0.837066 0.372044 0.149292
H6    H     H_    0.918900 0.167555 0.649124 0.160571
H7    H     H_    0.579819 0.743097 0.334196 0.141532
H8    H     H_    0.480217 0.362242 0.748463 0.154422
H9    H     H_    0.280029 0.544366 0.448286 0.170072
H10   H     H_    0.720276 0.459211 0.554158 0.139594
H11   H     H_    0.723497 0.733085 0.287866 0.137763
H12   H     H_    0.298686 0.303736 0.740781 0.138393
N1    N     N_R   0.795420 0.560790 0.441960 -0.165597
N2    N     N_R   0.204580 0.439210 0.558040 -0.178520
O1    O     O_R   0.977910 0.338120 0.530560 -0.545908
O2    O     O_R   0.022090 0.661880 0.469440 -0.556133
O3    O     O_R   0.839850 0.379180 0.491410 -0.588525
O4    O     O_R   0.160150 0.620820 0.508590 -0.582376
O5    O     O_R   0.069040 0.479460 0.643530 -0.540752
O6    O     O_R   0.930960 0.520540 0.356470 -0.532959
O7    O     O_R   0.930990 0.520530 0.604380 -0.567377
O8    O     O_R   0.069010 0.479470 0.395620 -0.569358
N3    N     N_3   0.425490 0.691305 0.428224 -0.624727
H13   H     H_    0.469767 0.764275 0.444782 0.229388
H14   H     H_    0.395614 0.697435 0.355324 0.211868
N4    N     N_3   0.660690 0.467374 0.699838 -0.597194
H15   H     H_    0.723658 0.533068 0.681049 0.233919
H16   H     H_    0.671206 0.402663 0.696681 0.211587
N5    N     N_3   0.799730 0.992114 0.737165 -0.617847
H17   H     H_    0.849750 0.971053 0.713451 0.223860
H18   H     H_    0.840569 0.035222 0.792565 0.215930
N6    N     N_3   0.179877 0.031183 0.313100 -0.608422
H19   H     H_    0.100600 0.997027 0.295562 0.214761
H20   H     H_    0.211018 0.044900 0.249639 0.206914
C45   C     C_3   0.410585 0.846563 0.710764 -0.385487
C46   C     C_3   0.346443 0.895366 0.734531 -0.806758
H21   H     H_    0.396725 0.969465 0.758583 0.250907
H22   H     H_    0.291851 0.906406 0.671274 0.259664
H23   H     H_    0.301863 0.845714 0.793517 0.234926
H24   H     H_    0.361131 0.772133 0.688648 0.195520
H25   H     H_    0.454194 0.827950 0.780153 0.195671
C47   C     C_3   0.536038 0.250198 0.449871 -0.416151
C48   C     C_3   0.467160 0.294797 0.472096 -0.812547
H26   H     H_    0.392426 0.274103 0.425856 0.249431
H27   H     H_    0.454317 0.271033 0.548807 0.259162
H28   H     H_    0.504954 0.377516 0.457022 0.243729
H29   H     H_    0.604805 0.273883 0.504033 0.219416
H30   H     H_    0.558101 0.284596 0.376704 0.200307
N7    N     N_3   0.117387 0.310913 0.683145 -0.538569
H31   H     H_    0.133086 0.326011 0.753952 0.194879
H32   H     H_    0.102666 0.234862 0.686140 0.176390
N8    N     N_3   0.874525 0.674941 0.305225 -0.532093
H33   H     H_    0.839436 0.659749 0.235732 0.192042
H34   H     H_    0.908305 0.753295 0.302403 0.176267

loop_
_geom_bond_atom_site_label_1
_geom_bond_atom_site_label_2
_ccdc_geom_bond_type
C44   H3    S    
C7    C10   A    
Cu1   N2    S    
Cu2   N1    S    
C27   C29   A    
N4    H16   S    
C11   H1    S    
N7    H31   S    
C4    C8    A    
C45   C46   S    
C7    C8    A    
C39   C41   A    
Cu1   Cu2   S    
C25   C28   A    
C30   H8    S    
C3    C43   A    
C26   C27   A    
C20   C26   A    
Cu2   O2    S    
C19   C21   A    
C5    C11   A    
C3    C7    A    
C6    C12   A    
N6    H20   S    
C13   H11   S    
C18   C20   A    
C16   N2    A    
C23   O7    A    
N3    H14   S    
C17   C19   A    
C35   C36   T    
C8    C9    A    
C31   C33   T    
C39   N5    S    
C48   H27   S    
C41   H6    S    
C34   C36   S    
C45   H24   S    
C27   N3    S    
C12   H2    S    
C42   H5    S    
Cu1   O1    S    
C40   C42   A    
C28   N4    S    
C1    O3    A    
C2    O4    A    
C14   H12   S    
C47   H30   S    
C6    C40   A    
C4    C6    A    
N6    H19   S    
C4    C44   A    
C25   C26   A    
C21   C29   A    
C23   C31   S    
C37   C43   A    
N5    H17   S    
C24   C32   S    
C38   C44   A    
C9    C11   A    
C2    C38   S    
C10   C47   S    
Cu1   O8    S    
C13   C21   A    
C48   H28   S    
N5    H18   S    
C17   H10   S    
C45   H25   S    
C10   C12   A    
C18   H9    S    
C17   N1    A    
C18   N2    A    
C20   C22   A    
C46   H21   S    
N8    H34   S    
C13   C15   A    
Cu1   O5    S    
C14   C16   A    
C15   N8    S    
C47   H29   S    
C16   N7    S    
C22   C30   A    
C15   N1    A    
N4    H15   S    
C3    C5    A    
C1    O1    A    
N7    H32   S    
C43   H4    S    
Cu2   O6    S    
C24   O6    A    
C46   H23   S    
Cu1   O4    S    
C46   H22   S    
Cu2   O3    S    
C23   O5    A    
C5    C39   A    
Cu2   O7    S    
C14   C22   A    
C29   H7    S    
C28   C30   A    
C33   C35   S    
C40   N6    S    
C37   C41   A    
N3    H13   S    
C19   C25   A    
C24   O8    A    
C38   C42   A    
C47   C48   S    
N8    H33   S    
C9    C45   S    
C48   H26   S    
C2    O2    A    
C32   C34   T    
C1    C37   S    
