data_mof_unit_20657.cif
_audit_creation_date              2012-12-10T19:09:34-0500
_audit_creation_method            fapswitch 2.2
_symmetry_space_group_name_H-M    P1
_symmetry_Int_Tables_number       1
_space_group_crystal_system       triclinic
_cell_length_a                    9.535438
_cell_length_b                    10.82274
_cell_length_c                    17.080991
_cell_angle_alpha                 89.712858
_cell_angle_beta                  93.904683
_cell_angle_gamma                 90.54981
_cell_volume                      1758.56126713

loop_
_atom_site_label
_atom_site_type_symbol
_atom_type_description
_atom_site_fract_x
_atom_site_fract_y
_atom_site_fract_z
_atom_type_partial_charge
C1    C     C_R   0.499196 0.262536 0.500029 0.806518
C2    C     C_R   0.635286 0.431403 0.776945 -0.404159
C3    C     C_R   0.588036 0.490858 0.141093 -0.151735
C4    C     C_R   0.595656 0.490632 0.222590 -0.242663
C5    C     C_R   0.456862 0.501609 0.098273 0.381607
C6    C     C_R   0.473066 0.501078 0.262953 -0.027349
C7    C     C_R   0.342430 0.511641 0.220389 -0.221633
C8    C     C_R   0.334885 0.512574 0.138607 -0.197720
C9    C     C_R   0.601802 0.065891 0.546866 0.053236
C10   C     C_R   0.495705 0.129692 0.504574 -0.084349
C11   C     C_R   0.378943 0.063228 0.472318 -0.209187
C12   C     C_R   0.517626 0.498976 0.650719 0.854055
C13   C     C_R   0.380951 0.934441 0.472786 -0.191504
C14   C     C_R   0.498292 0.871104 0.506996 -0.146229
C15   C     C_R   0.601815 0.938950 0.550751 0.067571
C16   C     C_3   0.759568 0.936445 0.557186 0.269299
C17   C     C_3   0.757414 0.076683 0.548670 -0.449857
C18   C     C_R   0.066084 0.538717 0.435396 0.261200
C19   C     C_R   0.081116 0.447226 0.559681 -0.076130
C20   C     C_R   0.932153 0.447304 0.559710 -0.101359
C21   C     C_R   0.918754 0.537534 0.435059 0.261736
C22   C     C_3   0.907998 0.660292 0.395596 -0.509821
C23   C     C_R   0.500638 0.737695 0.502209 0.793367
C24   C     C_3   0.067482 0.663046 0.397568 -0.514861
C25   C     C_R   0.482556 0.501241 0.349024 0.799199
C26   C     C_R   0.528540 0.499002 0.736417 -0.184726
C27   C     C_R   0.431870 0.564933 0.778232 0.452373
C28   C     C_R   0.437154 0.555596 0.859728 -0.331377
C29   C     C_R   0.541912 0.484611 0.900614 0.242720
C30   C     C_R   0.644000 0.425742 0.859124 0.452714
Cu1   Cu    Cu3+1 0.640670 0.499980 0.500000 0.919754
Cu2   Cu    Cu3+1 0.359330 0.500020 0.500000 0.953837
H1    H     H_    0.697838 0.482393 0.253882 0.156031
H2    H     H_    0.294406 0.885090 0.442567 0.151258
H3    H     H_    0.808121 0.890567 0.507786 0.063819
H4    H     H_    0.801837 0.127512 0.601258 0.210495
H5    H     H_    0.794706 0.109784 0.491870 0.161995
H6    H     H_    0.142134 0.406564 0.608728 0.156829
H7    H     H_    0.882054 0.406368 0.608608 0.142349
H8    H     H_    0.857168 0.653671 0.335225 0.195014
H9    H     H_    0.864038 0.731664 0.432788 0.203143
H10   H     H_    0.108611 0.660529 0.338288 0.191377
H11   H     H_    0.684975 0.483989 0.111936 0.154071
H12   H     H_    0.115003 0.735004 0.437420 0.208462
H13   H     H_    0.709338 0.380068 0.744756 0.175594
H14   H     H_    0.246281 0.519898 0.250140 0.151309
H15   H     H_    0.359887 0.605126 0.890664 0.188777
H16   H     H_    0.233628 0.521797 0.106425 0.134814
H17   H     H_    0.290517 0.110228 0.442655 0.157935
N1    N     N_2   0.552054 0.475007 0.983602 -0.209848
N2    N     N_2   0.443844 0.506355 0.015150 -0.268446
N3    N     N_R   0.147870 0.500930 0.499500 -0.186222
N4    N     N_R   0.851960 0.500890 0.499500 -0.190858
O1    O     O_R   0.618810 0.319640 0.500000 -0.578560
O2    O     O_R   0.381230 0.319680 0.499990 -0.586867
O3    O     O_R   0.631790 0.498830 0.613930 -0.613468
O4    O     O_R   0.394210 0.498870 0.613920 -0.543335
O5    O     O_R   0.618770 0.680320 0.500010 -0.606732
O6    O     O_R   0.381190 0.680360 0.500000 -0.571029
O7    O     O_R   0.605790 0.501130 0.386080 -0.581572
O8    O     O_R   0.368210 0.501170 0.386070 -0.586696
O9    O     O_3   0.812101 0.905043 0.633984 -0.597802
C31   C     C_3   0.862421 0.783238 0.636916 0.064243
H18   H     H_    0.943701 0.769805 0.593859 0.141962
H19   H     H_    0.774127 0.716792 0.625188 0.182600
C32   C     C_3   0.929007 0.759658 0.719358 -0.330070
H20   H     H_    0.015322 0.827852 0.732355 0.231079
H21   H     H_    0.848766 0.771752 0.762917 0.218081
C33   C     C_3   0.988489 0.630045 0.727491 -0.890483
H22   H     H_    0.902852 0.560173 0.719366 0.243367
H23   H     H_    0.041639 0.619119 0.786903 0.264139
H24   H     H_    0.066632 0.615250 0.683380 0.297040
O10   O     O_3   0.742437 0.351560 0.899470 -0.592174
C34   C     C_3   0.880883 0.395924 0.890836 0.048791
H25   H     H_    0.928631 0.418525 0.950263 0.162293
H26   H     H_    0.887090 0.482003 0.855070 0.126821
C35   C     C_3   0.967536 0.294465 0.855564 -0.338459
H27   H     H_    0.963600 0.209937 0.892621 0.236148
H28   H     H_    0.921853 0.271548 0.795767 0.211210
C36   C     C_3   0.120854 0.334071 0.850527 -0.902466
H29   H     H_    0.128603 0.413784 0.809943 0.268604
H30   H     H_    0.181303 0.256437 0.827742 0.259562
H31   H     H_    0.168525 0.359774 0.909430 0.265651
O11   O     O_3   0.328017 0.634899 0.739720 -0.581805
C37   C     C_3   0.381310 0.755350 0.729135 -0.293666
H32   H     H_    0.474328 0.755238 0.693081 0.149920
H33   H     H_    0.408273 0.800971 0.786530 0.160226
H34   H     H_    0.298671 0.811067 0.697112 0.191022

loop_
_geom_bond_atom_site_label_1
_geom_bond_atom_site_label_2
_ccdc_geom_bond_type
Cu1   O7    S    
C23   O5    A    
C32   H21   S    
C31   H19   S    
C28   H15   S    
C18   C21   A    
C24   H10   S    
O10   C34   S    
C19   C20   A    
C18   N3    A    
C7    C8    A    
C35   H27   S    
C23   O6    A    
C3    H11   S    
C26   C27   A    
C29   C30   A    
C34   H26   S    
C18   C24   S    
Cu1   O5    S    
C27   O11   S    
Cu2   O8    S    
C16   H3    S    
C35   C36   S    
C32   C33   S    
C15   C16   S    
C33   H23   S    
Cu2   N3    S    
C19   N3    A    
C16   C17   S    
C34   C35   S    
C25   O7    A    
Cu1   O3    S    
C9    C10   A    
Cu2   O2    S    
C35   H28   S    
C32   H20   S    
C31   C32   S    
C13   C14   A    
C16   O9    S    
Cu2   O4    S    
C36   H31   S    
C29   N1    S    
C37   H33   S    
C2    H13   S    
C34   H25   S    
C7    H14   S    
O11   C37   S    
C4    C6    A    
C30   O10   S    
C36   H29   S    
C17   H5    S    
C37   H32   S    
C12   C26   S    
C14   C23   S    
C33   H24   S    
C1    O1    A    
C8    H16   S    
O9    C31   S    
C11   H17   S    
C19   H6    S    
C22   H9    S    
Cu1   Cu2   S    
C22   H8    S    
N1    N2    D    
C2    C26   A    
C25   O8    A    
Cu1   N4    S    
C12   O3    A    
C12   O4    A    
C36   H30   S    
C17   H4    S    
C24   H12   S    
C22   C24   S    
C3    C4    A    
C37   H34   S    
C9    C17   S    
C20   H7    S    
C4    H1    S    
C28   C29   A    
C1    C10   S    
C20   N4    A    
C3    C5    A    
C5    C8    A    
C6    C7    A    
C2    C30   A    
C9    C15   A    
C13   H2    S    
C21   N4    A    
C11   C13   A    
Cu1   O1    S    
C1    O2    A    
C33   H22   S    
C10   C11   A    
C31   H18   S    
C6    C25   S    
C27   C28   A    
C14   C15   A    
C5    N2    S    
Cu2   O6    S    
C21   C22   S    
