data_mof_unit_54559.cif
_audit_creation_date              2012-12-11T15:47:01-0500
_audit_creation_method            fapswitch 2.2
_symmetry_space_group_name_H-M    P1
_symmetry_Int_Tables_number       1
_space_group_crystal_system       triclinic
_cell_length_a                    20.157578
_cell_length_b                    7.256272
_cell_length_c                    13.551826
_cell_angle_alpha                 89.979054
_cell_angle_beta                  102.996176
_cell_angle_gamma                 90.019104
_cell_volume                      1931.4359015

loop_
_atom_site_label
_atom_site_type_symbol
_atom_type_description
_atom_site_fract_x
_atom_site_fract_y
_atom_site_fract_z
_atom_type_partial_charge
O1    O     O_R   0.449560 0.506810 0.599700 -0.534352
O2    O     O_R   0.550440 0.006810 0.400300 -0.534332
O3    O     O_R   0.587960 0.180060 0.595760 -0.545951
O4    O     O_R   0.412040 0.680060 0.404240 -0.545968
C1    C     C_R   0.614939 0.344194 0.617481 0.684675
C2    C     C_R   0.385060 0.844185 0.382522 0.684652
O5    O     O_R   0.452380 0.177430 0.611700 -0.538298
O6    O     O_R   0.547620 0.677430 0.388300 -0.538307
O7    O     O_R   0.413900 0.001890 0.416350 -0.540889
O8    O     O_R   0.586100 0.501890 0.583650 -0.540904
C3    C     C_R   0.436324 0.345630 0.637589 0.686004
C4    C     C_R   0.563675 0.845720 0.362414 0.686000
O9    O     O_3   0.487530 0.337490 0.435890 -0.379304
O10   O     O_3   0.512470 0.837490 0.564110 -0.379288
V1    V     V_3+5 0.502310 0.064660 0.511890 1.412165
V2    V     V_3+5 0.497690 0.564660 0.488110 1.412068
C5    C     C_R   0.610212 0.873782 0.109959 -0.160818
C6    C     C_R   0.389819 0.368201 0.890204 -0.160836
C7    C     C_R   0.603734 0.854039 0.285223 -0.026280
C8    C     C_R   0.396269 0.353531 0.714793 -0.026264
C9    C     C_R   0.932584 0.847851 0.319014 0.133597
C10   C     C_R   0.067397 0.351669 0.680874 0.133605
C11   C     C_R   0.896368 0.839491 0.394910 -0.084784
C12   C     C_R   0.103603 0.344823 0.604933 -0.084688
C13   C     C_R   0.825505 0.842713 0.371212 -0.181502
C14   C     C_R   0.174474 0.346592 0.628674 -0.181479
C15   C     C_R   0.788226 0.854592 0.269506 0.072711
C16   C     C_R   0.211770 0.355366 0.730472 0.072696
C17   C     C_R   0.825338 0.863166 0.191618 0.038908
C18   C     C_R   0.174669 0.362090 0.808415 0.038891
C19   C     C_R   0.715452 0.858195 0.242514 0.083307
C20   C     C_R   0.284552 0.357690 0.757502 0.083308
C21   C     C_R   0.681627 0.870187 0.138579 0.139780
C22   C     C_R   0.318395 0.366291 0.861536 0.139795
C23   C     C_R   0.719130 0.878535 0.063815 -0.201771
C24   C     C_R   0.280903 0.372835 0.936354 -0.201745
C25   C     C_R   0.789720 0.875129 0.089658 -0.179366
C26   C     C_R   0.210306 0.370866 0.910470 -0.179359
C27   C     C_R   0.674779 0.850335 0.314947 -0.205651
C28   C     C_R   0.325215 0.351690 0.685016 -0.205650
C29   C     C_R   0.571503 0.865683 0.182957 -0.175060
C30   C     C_R   0.428518 0.361616 0.817161 -0.175053
C31   C     C_R   0.897551 0.859659 0.217163 -0.117179
C32   C     C_R   0.102447 0.360194 0.782823 -0.117198
C33   C     C_R   0.217294 0.023143 0.223719 -0.133193
C34   C     C_R   0.782786 0.523115 0.776092 -0.132689
H1    H     H_    0.193358 0.156032 0.204883 0.121638
H2    H     H_    0.806788 0.655985 0.794769 0.121832
C35   C     C_R   0.282484 0.018695 0.287145 -0.156299
C36   C     C_R   0.717593 0.518680 0.712673 -0.156269
C37   C     C_R   0.316047 0.850127 0.313958 -0.040263
C38   C     C_R   0.683951 0.350138 0.686047 -0.040269
C39   C     C_R   0.282542 0.686093 0.275430 -0.153234
C40   C     C_R   0.717379 0.186116 0.724758 -0.153303
C41   C     C_R   0.217355 0.690505 0.211996 -0.137578
C42   C     C_R   0.782567 0.190516 0.788188 -0.138139
H3    H     H_    0.193482 0.561330 0.183879 0.118361
H4    H     H_    0.806377 0.061356 0.816458 0.118220
C43   C     C_R   0.183717 0.859080 0.185279 -0.021365
C44   C     C_R   0.816285 0.359065 0.814716 -0.021374
O11   O     O_R   0.913920 0.203370 0.916260 -0.540125
O12   O     O_R   0.086080 0.703370 0.083740 -0.539949
O13   O     O_R   0.047620 0.535540 0.888290 -0.533817
O14   O     O_R   0.952380 0.035540 0.111710 -0.533961
C45   C     C_R   0.063388 0.368286 0.861862 0.726928
C46   C     C_R   0.936615 0.868191 0.138136 0.726907
O15   O     O_R   0.912040 0.532780 0.904220 -0.544654
O16   O     O_R   0.087960 0.032780 0.095780 -0.544818
O17   O     O_R   0.949550 0.708160 0.099720 -0.533227
O18   O     O_R   0.050450 0.208160 0.900280 -0.533389
C47   C     C_R   0.885418 0.364922 0.883061 0.699480
C48   C     C_R   0.114582 0.864932 0.116936 0.699480
O19   O     O_3   0.012480 0.375300 0.064060 -0.376998
O20   O     O_3   0.987520 0.875300 0.935940 -0.377034
V3    V     V_3+5 0.997690 0.648180 0.988110 1.461674
V4    V     V_3+5 0.002310 0.148180 0.011890 1.461169
H5    H     H_    0.516447 0.868588 0.159789 0.105327
H6    H     H_    0.483581 0.362842 0.840376 0.105296
H7    H     H_    0.306451 0.147776 0.315238 0.118232
H8    H     H_    0.693689 0.647746 0.684429 0.118226
H9    H     H_    0.306567 0.553306 0.294275 0.117792
H10   H     H_    0.693290 0.053347 0.706066 0.117855
H11   H     H_    0.693662 0.887800 0.984481 0.120911
H12   H     H_    0.306386 0.379544 0.015763 0.120866
H13   H     H_    0.584266 0.882889 0.030853 0.115016
H14   H     H_    0.415779 0.374608 0.969388 0.115025
H15   H     H_    0.696369 0.841265 0.395084 0.097623
H16   H     H_    0.303611 0.345184 0.604806 0.097627
I1    I     I_    0.040593 0.841903 0.363372 -0.420896
I2    I     I_    0.959372 0.348661 0.636427 -0.421055
H17   H     H_    0.801679 0.835613 0.434658 0.129550
H18   H     H_    0.198291 0.340899 0.565186 0.129514
H19   H     H_    0.923400 0.830318 0.473427 0.170654
H20   H     H_    0.076557 0.338129 0.526343 0.170541
H21   H     H_    0.816132 0.882015 0.028465 0.109145
H22   H     H_    0.183904 0.376281 0.971707 0.109123

loop_
_geom_bond_atom_site_label_1
_geom_bond_atom_site_label_2
_ccdc_geom_bond_type
O13   C45   A    
C41   C43   A    
C15   C17   A    
O1    C3    A    
C27   H15   S    
O2    C4    A    
C2    O7    A    
C9    I1    S    
O5    C3    A    
C25   H21   S    
C6    H14   S    
C5    H13   S    
C23   C25   A    
C12   C14   A    
C6    C30   A    
C29   H5    S    
C8    C28   A    
C46   O17   A    
C14   H18   S    
C45   O18   A    
C18   C26   A    
C39   H9    S    
C9    C31   A    
C10   C32   A    
C42   H4    S    
C35   C37   A    
C36   C38   A    
C19   C21   A    
C1    C38   S    
C2    C37   S    
C22   C24   A    
O16   C48   A    
C43   C48   S    
O11   C47   A    
C33   H1    S    
O6    V2    S    
C17   C31   A    
C18   C32   A    
C32   C45   S    
C5    C21   A    
C38   C40   A    
C40   C42   A    
C39   C41   A    
O11   V4    S    
C10   I2    S    
C34   H2    S    
C3    C8    S    
C13   H17   S    
O20   V3    S    
C15   C19   A    
C16   C20   A    
O4    C2    A    
C23   H11   S    
C44   C47   S    
C42   C44   A    
C37   C39   A    
C20   C22   A    
O4    V2    S    
C12   H20   S    
C33   C35   A    
O6    C4    A    
O14   V4    S    
O12   C48   A    
O1    V2    S    
O2    V1    S    
C6    C22   A    
C7    C27   A    
C30   H6    S    
C41   H3    S    
O18   V4    S    
O19   V4    S    
C10   C12   A    
O12   V3    S    
O16   V4    S    
C17   C25   A    
C24   C26   A    
C40   H10   S    
C20   C28   A    
O3    V1    S    
C33   C43   A    
C34   C44   A    
O3    C1    A    
C36   H8    S    
C8    C30   A    
C13   C15   A    
C34   C36   A    
C14   C16   A    
C11   H19   S    
C28   H16   S    
C9    C11   A    
O7    V1    S    
C16   C18   A    
O8    V2    S    
O13   V3    S    
C24   H12   S    
C31   C46   S    
C4    C7    S    
O5    V1    S    
C21   C23   A    
C19   C27   A    
O17   V3    S    
O15   C47   A    
C11   C13   A    
C5    C29   A    
C35   H7    S    
C1    O8    A    
O15   V3    S    
O9    V2    S    
C26   H22   S    
O10   V1    S    
C7    C29   A    
O14   C46   A    
