data_mof_unit_20505.cif
_audit_creation_date              2012-12-10T18:23:08-0500
_audit_creation_method            fapswitch 2.2
_symmetry_space_group_name_H-M    P1
_symmetry_Int_Tables_number       1
_space_group_crystal_system       triclinic
_cell_length_a                    14.894523
_cell_length_b                    14.304789
_cell_length_c                    10.479035
_cell_angle_alpha                 90.88695
_cell_angle_beta                  85.141592
_cell_angle_gamma                 88.685779
_cell_volume                      2223.74735535

loop_
_atom_site_label
_atom_site_type_symbol
_atom_type_description
_atom_site_fract_x
_atom_site_fract_y
_atom_site_fract_z
_atom_type_partial_charge
C1    C     C_R   0.327440 0.500736 0.500247 0.887889
C2    C     C_R   0.967863 0.436105 0.278183 0.304174
C3    C     C_R   0.541110 0.798486 0.397371 0.410160
C4    C     C_R   0.464853 0.200923 0.606749 0.419269
C5    C     C_R   0.464702 0.803257 0.606901 0.377327
C6    C     C_R   0.533235 0.196545 0.391717 0.416984
C7    C     C_R   0.477951 0.901794 0.612646 -0.073318
C8    C     C_R   0.520862 0.097269 0.385855 -0.090890
C9    C     C_R   0.523890 0.896754 0.387836 -0.091593
C10   C     C_R   0.477868 0.101662 0.612031 -0.086910
C11   C     C_R   0.499417 0.949394 0.499469 0.043044
C12   C     C_R   0.672584 0.499216 0.500187 0.856044
C13   C     C_R   0.499176 0.049622 0.498966 0.027235
C14   C     C_R   0.469116 0.954697 0.727929 -0.074125
C15   C     C_R   0.533079 0.042977 0.270810 -0.048312
C16   C     C_R   0.536057 0.944891 0.272137 -0.088000
C17   C     C_R   0.468199 0.052149 0.727579 -0.069243
C18   C     C_R   0.499100 0.499647 0.257902 0.887531
C19   C     C_R   0.502676 0.500555 0.741883 0.904176
C20   C     C_3   0.465684 0.582184 0.047369 -0.033606
C21   C     C_3   0.539170 0.419826 0.952472 -0.025575
C22   C     C_3   0.552438 0.572505 0.955883 -0.078783
C23   C     C_R   0.953400 0.500306 0.500397 0.026371
C24   C     C_3   0.452083 0.429273 0.043524 -0.089753
C25   C     C_3   0.417738 0.511366 0.965726 -0.170306
C26   C     C_3   0.586716 0.490698 0.034127 -0.208389
C27   C     C_3   0.504331 0.501636 0.877047 -0.056330
C28   C     C_3   0.500026 0.499866 0.122571 -0.053235
C29   C     C_R   0.820372 0.464069 0.395090 -0.146800
C30   C     C_R   0.179908 0.529705 0.610067 -0.145795
C31   C     C_R   0.767996 0.498131 0.501319 -0.039584
C32   C     C_R   0.232044 0.501435 0.500428 -0.061810
C33   C     C_R   0.805531 0.535310 0.606270 -0.163328
C34   C     C_R   0.046698 0.499651 0.501579 0.017119
C35   C     C_R   0.194453 0.468322 0.393267 -0.198446
C36   C     C_R   0.898940 0.535468 0.609273 0.033574
C37   C     C_R   0.101119 0.466276 0.391569 0.051809
C38   C     C_1   0.880927 0.613727 0.822508 0.389028
C39   C     C_1   0.119329 0.390205 0.176659 0.350843
C40   C     C_R   0.913889 0.466893 0.389865 -0.013771
C41   C     C_R   0.086208 0.530580 0.613489 -0.018532
C42   C     C_R   0.937994 0.569233 0.718845 -0.159701
C43   C     C_R   0.062099 0.432438 0.282050 -0.168875
C44   C     C_R   0.032033 0.562547 0.724582 0.409581
H1    H     H_    0.349064 0.520238 0.933170 0.206155
H2    H     H_    0.239299 0.445399 0.311297 0.120810
H3    H     H_    0.463685 0.921701 0.820238 0.205924
H4    H     H_    0.540873 0.075244 0.178152 0.208048
H5    H     H_    0.547644 0.906716 0.181961 0.185647
H6    H     H_    0.460606 0.087692 0.819616 0.213127
H7    H     H_    0.044310 0.616656 0.070834 0.384595
H8    H     H_    0.861363 0.544623 0.129827 0.365990
H9    H     H_    0.695822 0.636343 0.204016 0.373238
H10   H     H_    0.305919 0.370223 0.796129 0.379577
H11   H     H_    0.286726 0.688957 0.668307 0.372444
H12   H     H_    0.655661 0.483088 0.065641 0.195253
H13   H     H_    0.684269 0.356636 0.202276 0.384598
H14   H     H_    0.435519 0.648262 0.090568 0.190013
H15   H     H_    0.572915 0.355210 0.910338 0.214343
H16   H     H_    0.594517 0.629993 0.916163 0.191443
H17   H     H_    0.410034 0.371800 0.083343 0.203607
H18   H     H_    0.786406 0.436622 0.317072 0.217171
H19   H     H_    0.214428 0.549993 0.691656 0.216881
H20   H     H_    0.760592 0.561505 0.686289 0.121878
N1    N     N_R   0.500000 0.750030 0.500000 -0.210253
N2    N     N_R   0.500000 0.249970 0.500000 -0.213289
N3    N     N_1   0.834416 0.649544 0.903944 -0.133920
N4    N     N_1   0.165658 0.356275 0.093507 -0.105724
O1    O     O_R   0.367850 0.580280 0.500030 -0.612927
O2    O     O_2   0.135907 0.680753 0.844713 -0.259006
O3    O     O_3   0.007831 0.614167 0.996157 -0.529909
O4    O     O_2   0.983394 0.394935 0.018661 -0.208224
O5    O     O_2   0.872642 0.311271 0.155744 -0.215440
O6    O     O_3   0.837779 0.483879 0.103061 -0.589408
O7    O     O_2   0.691851 0.832282 0.240869 -0.261554
O8    O     O_2   0.707518 0.729001 0.418072 -0.277075
O9    O     O_3   0.634850 0.665755 0.218028 -0.556427
O10   O     O_2   0.317214 0.183108 0.767492 -0.263988
O11   O     O_2   0.443995 0.260093 0.851199 -0.352800
O12   O     O_R   0.632150 0.419720 0.499970 -0.567845
O13   O     O_3   0.339861 0.353775 0.713105 -0.509105
O14   O     O_2   0.458721 0.735343 0.843696 -0.319764
O15   O     O_2   0.329685 0.830245 0.793178 -0.273771
O16   O     O_3   0.339438 0.663218 0.708963 -0.508969
O17   O     O_2   0.672648 0.170937 0.213638 -0.250564
O18   O     O_2   0.541073 0.258035 0.151891 -0.342294
O19   O     O_3   0.654609 0.340183 0.286783 -0.521167
O20   O     O_R   0.632150 0.580280 0.499970 -0.562078
O21   O     O_R   0.367850 0.419720 0.500030 -0.554464
O22   O     O_R   0.499970 0.580260 0.313950 -0.588393
O23   O     O_R   0.500030 0.419740 0.686050 -0.573574
O24   O     O_R   0.500030 0.580260 0.686050 -0.547656
O25   O     O_R   0.499970 0.419740 0.313950 -0.562664
O26   O     O_2   0.145202 0.515787 0.901800 -0.323576
S1    S     S_3+6 0.082521 0.593958 0.868725 0.045456
S2    S     S_3+6 0.916984 0.403702 0.134600 0.052511
S3    S     S_3+6 0.646003 0.756568 0.317944 0.065308
S4    S     S_3+6 0.391195 0.251016 0.736205 0.052045
S5    S     S_3+6 0.397970 0.757288 0.740576 0.054785
S6    S     S_3+6 0.600627 0.242300 0.258538 0.060706
Zn1   Zn    Zn3+2 0.500000 0.607200 0.500000 1.069087
Zn2   Zn    Zn3+2 0.500000 0.392800 0.500000 1.088037

loop_
_geom_bond_atom_site_label_1
_geom_bond_atom_site_label_2
_ccdc_geom_bond_type
C4    N2    A    
C21   C26   S    
C8    C13   A    
C4    S4    S    
O21   Zn2   S    
C34   C37   A    
C39   N4    T    
N2    Zn2   S    
O11   S4    D    
C36   C42   A    
N1    Zn1   S    
O20   Zn1   S    
C7    C11   A    
C24   H17   S    
H7    O3    S    
C35   C37   A    
C9    C16   A    
C21   H15   S    
H8    O6    S    
C22   H16   S    
O3    S1    S    
O13   S4    S    
C10   C17   A    
C23   C40   A    
O7    S3    D    
C33   C36   A    
O14   S5    D    
C19   O24   A    
C7    C14   A    
C5    S5    S    
O10   S4    D    
C31   C33   A    
C30   C41   A    
O9    S3    S    
C19   C27   S    
C21   C27   S    
O15   S5    D    
C30   H19   S    
C14   C17   A    
C3    N1    A    
C34   C41   A    
C42   C44   A    
C15   H4    S    
C12   O20   A    
C18   O22   A    
C32   C35   A    
O6    S2    S    
C18   C28   S    
C24   C25   S    
C5    N1    A    
C5    C7    A    
C6    C8    A    
C20   C28   S    
O8    S3    D    
C1    C32   S    
C1    O1    A    
H13   O19   S    
O12   Zn2   S    
C6    S6    S    
C37   C43   A    
H9    O9    S    
O22   Zn1   S    
C3    C9    A    
C3    S3    S    
C2    C43   A    
C23   C34   A    
C16   H5    S    
C9    C11   A    
O24   Zn1   S    
C20   C22   S    
C8    C15   A    
C22   C27   S    
C12   C31   S    
C22   C26   S    
C41   C44   A    
O23   Zn2   S    
C20   H14   S    
C25   H1    S    
O18   S6    D    
O19   S6    S    
C29   H18   S    
C1    O21   A    
O16   S5    S    
C24   C28   S    
C10   C13   A    
C26   H12   S    
C17   H6    S    
C39   C43   S    
C38   C42   S    
C14   H3    S    
O1    Zn1   S    
C25   C27   S    
C26   C28   S    
C2    S2    S    
O2    S1    D    
C29   C31   A    
O17   S6    D    
C30   C32   A    
C11   C13   A    
C33   H20   S    
C12   O12   A    
C29   C40   A    
O26   S1    D    
C19   O23   A    
O4    S2    D    
C2    C40   A    
C6    N2    A    
C38   N3    T    
O25   Zn2   S    
C23   C36   A    
C20   C25   S    
C21   C24   S    
C44   S1    S    
C18   O25   A    
O5    S2    D    
H11   O16   S    
C35   H2    S    
C4    C10   A    
H10   O13   S    
C15   C16   A    
