data_mof_unit_45036.cif
_audit_creation_date              2012-12-10T18:18:16-0500
_audit_creation_method            fapswitch 2.2
_symmetry_space_group_name_H-M    P1
_symmetry_Int_Tables_number       1
_space_group_crystal_system       triclinic
_cell_length_a                    14.043645
_cell_length_b                    14.924917
_cell_length_c                    15.544241
_cell_angle_alpha                 87.397752
_cell_angle_beta                  67.88672
_cell_angle_gamma                 89.243175
_cell_volume                      3015.27788921

loop_
_atom_site_label
_atom_site_type_symbol
_atom_type_description
_atom_site_fract_x
_atom_site_fract_y
_atom_site_fract_z
_atom_type_partial_charge
C1    C     C_R   0.501648 0.672861 0.494520 0.898130
C2    C     C_R   0.501064 0.768201 0.492150 -0.087150
C3    C     C_R   0.506070 0.192499 0.424710 -0.274224
C4    C     C_R   0.493543 0.807639 0.573134 -0.277094
C5    C     C_R   0.502555 0.099923 0.421219 0.080184
C6    C     C_R   0.486382 0.899934 0.579222 0.079844
C7    C     C_R   0.493717 0.046647 0.501778 0.037570
C8    C     C_R   0.493563 0.953062 0.498968 0.038739
C9    C     C_R   0.486361 0.087036 0.584898 0.072062
C10   C     C_R   0.502883 0.912511 0.415317 0.069950
C11   C     C_R   0.510119 0.059593 0.338528 -0.001023
C12   C     C_R   0.498822 0.327049 0.504267 0.900955
C13   C     C_R   0.474881 0.940148 0.662953 -0.000840
C14   C     C_R   0.511544 0.966580 0.336178 -0.263996
C15   C     C_R   0.475696 0.033031 0.664570 -0.262840
C16   C     C_R   0.435980 0.501345 0.675862 0.882132
C17   C     C_R   0.563904 0.498149 0.324193 0.888600
C18   C     C_R   0.175717 0.447948 0.564636 -0.102610
C19   C     C_R   0.824315 0.551969 0.435327 -0.097980
C20   C     C_R   0.228129 0.552239 0.435316 0.764333
C21   C     C_R   0.771819 0.447749 0.564736 0.762029
C22   C     C_R   0.128151 0.553335 0.433242 -0.277141
C23   C     C_R   0.373822 0.458786 0.106228 -0.220501
C24   C     C_R   0.871830 0.446545 0.566757 -0.268676
C25   C     C_R   0.050656 0.499983 0.499878 -0.121408
C26   C     C_R   0.949346 0.499866 0.500097 -0.119887
C27   C     C_R   0.074421 0.446804 0.566394 -0.133959
C28   C     C_R   0.925596 0.553060 0.433578 -0.138608
C29   C     C_R   0.103473 0.606041 0.366847 0.574985
C30   C     C_R   0.896526 0.393797 0.633129 0.562921
C31   C     C_R   0.003317 0.605831 0.367140 0.529392
C32   C     C_R   0.996696 0.394014 0.632830 0.528293
C33   C     C_R   0.396455 0.499100 0.776988 -0.058942
C34   C     C_R   0.618513 0.449959 0.900129 -0.232222
C35   C     C_R   0.602037 0.485553 0.224514 -0.059648
C36   C     C_R   0.259448 0.482560 0.928037 -0.211538
C37   C     C_R   0.735108 0.453329 0.076900 -0.193813
C38   C     C_R   0.291403 0.492234 0.831568 -0.209004
C39   C     C_R   0.705413 0.468705 0.171376 -0.206423
C40   C     C_R   0.468200 0.498023 0.818960 -0.209937
C41   C     C_R   0.529354 0.485274 0.183612 -0.239405
C42   C     C_R   0.438965 0.479503 0.913738 0.078224
C43   C     C_R   0.555964 0.465467 0.091213 0.076866
C44   C     C_R   0.332649 0.475618 0.969495 0.156219
C45   C     C_R   0.301242 0.463539 0.065417 -0.215492
C46   C     C_R   0.661156 0.453024 0.036155 0.154556
C47   C     C_R   0.513272 0.465265 0.953980 0.030252
C48   C     C_R   0.480580 0.463447 0.051546 0.048251
C49   C     C_R   0.477991 0.224715 0.673648 0.051280
C50   C     C_R   0.562905 0.230370 0.699990 -0.020739
C51   C     C_R   0.549126 0.254729 0.789681 -0.083196
C52   C     C_R   0.450568 0.272534 0.853549 -0.145672
C53   C     C_R   0.366173 0.269539 0.826830 -0.113694
C54   C     C_R   0.379735 0.246033 0.736960 -0.166897
C55   C     C_R   0.516450 0.773355 0.325994 0.056068
C56   C     C_R   0.690838 0.442189 0.941200 -0.217023
C57   C     C_R   0.612676 0.740542 0.269154 -0.168715
C58   C     C_R   0.626093 0.706096 0.183191 -0.132390
C59   C     C_R   0.543458 0.703488 0.153958 -0.160095
C60   C     C_R   0.447026 0.734577 0.211005 -0.050743
C61   C     C_R   0.433460 0.769709 0.296726 -0.023400
C62   C     C_R   0.517810 0.112693 0.252985 0.112395
C63   C     C_R   0.435134 0.165934 0.251307 -0.158347
C64   C     C_R   0.444047 0.218203 0.171593 -0.135286
C65   C     C_R   0.535000 0.217088 0.092893 -0.095492
C66   C     C_R   0.617007 0.163376 0.093626 -0.124013
C67   C     C_R   0.488969 0.180856 0.586742 -0.060999
C68   C     C_R   0.608487 0.111080 0.173237 -0.154656
C69   C     C_R   0.461689 0.887278 0.750141 0.116872
C70   C     C_R   0.376535 0.829867 0.791997 -0.172187
C71   C     C_R   0.366107 0.778244 0.872455 -0.115410
C72   C     C_R   0.439559 0.784568 0.912542 -0.096156
C73   C     C_R   0.523348 0.842797 0.872418 -0.136571
C74   C     C_R   0.534422 0.894147 0.791615 -0.147573
C75   C     C_R   0.504944 0.818547 0.412542 -0.056362
C76   C     C_R   0.498938 0.231686 0.505879 -0.088378
F1    F     F_    0.303912 0.603559 0.373155 -0.640699
F2    F     F_    0.695936 0.396591 0.627070 -0.646784
F3    F     F_    0.175934 0.657945 0.301224 -0.614153
F4    F     F_    0.824098 0.341806 0.698690 -0.629855
F5    F     F_    0.982478 0.657427 0.302171 -0.645815
F6    F     F_    0.017538 0.342427 0.697803 -0.653016
H1    H     H_    0.220325 0.458801 0.109205 0.160551
H2    H     H_    0.815587 0.442404 0.035651 0.148569
H3    H     H_    0.344217 0.447612 0.180770 0.158496
H4    H     H_    0.646621 0.440529 0.826323 0.215254
H5    H     H_    0.515452 0.235747 0.364136 0.156351
H6    H     H_    0.492977 0.764696 0.631431 0.156172
H7    H     H_    0.519455 0.937183 0.271447 0.165234
H8    H     H_    0.467158 0.062399 0.729474 0.169646
H9    H     H_    0.638821 0.212372 0.652373 0.169580
H10   H     H_    0.614416 0.257549 0.810433 0.180192
H11   H     H_    0.439514 0.288621 0.923812 0.136831
H12   H     H_    0.770618 0.430587 0.898012 0.191355
H13   H     H_    0.289989 0.283780 0.876329 0.150574
H14   H     H_    0.313356 0.240441 0.718045 0.155400
H15   H     H_    0.677540 0.743449 0.290565 0.153769
H16   H     H_    0.700588 0.681520 0.139136 0.154595
H17   H     H_    0.554001 0.676839 0.087370 0.141294
H18   H     H_    0.383044 0.732168 0.188426 0.185228
H19   H     H_    0.358980 0.795393 0.339605 0.163655
H20   H     H_    0.364461 0.167640 0.312048 0.143107
H21   H     H_    0.380547 0.259716 0.170894 0.136868
H22   H     H_    0.541958 0.257775 0.031364 0.133033
H23   H     H_    0.195823 0.407567 0.614892 0.197679
H24   H     H_    0.687356 0.162539 0.032591 0.146463
H25   H     H_    0.672874 0.070322 0.173236 0.140087
H26   H     H_    0.319105 0.824360 0.761581 0.141888
H27   H     H_    0.301174 0.733225 0.903643 0.151106
H28   H     H_    0.431473 0.744482 0.974744 0.132659
H29   H     H_    0.579995 0.847836 0.903717 0.135826
H30   H     H_    0.600210 0.938375 0.760731 0.136740
H31   H     H_    0.804233 0.592347 0.385056 0.197531
H32   H     H_    0.451908 0.505178 0.224051 0.202011
H33   H     H_    0.547678 0.511333 0.776370 0.177851
H34   H     H_    0.762696 0.467945 0.202455 0.166607
H35   H     H_    0.234619 0.493593 0.799911 0.169752
H36   H     H_    0.177993 0.478260 0.969940 0.150002
N1    N     N_R   0.249980 0.499930 0.499960 -0.170315
N2    N     N_R   0.750020 0.500070 0.500040 -0.169175
O1    O     O_R   0.419720 0.632140 0.499980 -0.576790
O2    O     O_R   0.580280 0.367860 0.500020 -0.577835
O3    O     O_R   0.580270 0.632160 0.499970 -0.629628
O4    O     O_R   0.419730 0.367840 0.500030 -0.629623
O5    O     O_R   0.373870 0.499980 0.632250 -0.635450
O6    O     O_R   0.626130 0.500020 0.367750 -0.636706
O7    O     O_R   0.534420 0.500000 0.632240 -0.570975
O8    O     O_R   0.465580 0.500000 0.367760 -0.573601
Zn1   Zn    Zn3+2 0.392800 0.499980 0.500010 0.992332
Zn2   Zn    Zn3+2 0.607200 0.500020 0.499990 0.993388

loop_
_geom_bond_atom_site_label_1
_geom_bond_atom_site_label_2
_ccdc_geom_bond_type
C64   H21   S    
C66   C68   A    
C34   C56   A    
C23   C45   A    
C22   C29   A    
C53   H13   S    
C59   H17   S    
C73   C74   A    
C2    C4    A    
C58   H16   S    
C41   H32   S    
C11   C62   S    
O8    Zn1   S    
C9    C67   A    
C7    C8    A    
C53   C54   A    
C52   C53   A    
C56   H12   S    
C20   F1    S    
N2    Zn2   S    
C24   C26   A    
C5    C11   A    
C21   N2    A    
C74   H30   S    
C51   H10   S    
C11   C14   A    
C17   O6    A    
C40   H33   S    
C19   H31   S    
C49   C54   A    
C55   C61   A    
C1    C2    S    
C34   H4    S    
C49   C50   A    
C38   H35   S    
C22   C25   A    
C12   O4    A    
C21   F2    S    
C37   H2    S    
C70   C71   A    
C68   H25   S    
C36   H36   S    
C16   O5    A    
C54   H14   S    
C30   F4    S    
C40   C42   A    
C59   C60   A    
C41   C43   A    
C45   H1    S    
C42   C44   A    
C66   H24   S    
C63   H20   S    
C43   C46   A    
C73   H29   S    
C24   C30   A    
C72   H28   S    
C33   C40   A    
C3    H5    S    
C51   C52   A    
C69   C74   A    
C4    C6    A    
C10   C14   A    
C5    C7    A    
C6    C8    A    
C3    C5    A    
C25   C26   A    
C61   H19   S    
C60   C61   A    
C35   C39   A    
C1    O3    A    
C14   H7    S    
C62   C63   A    
C19   C28   A    
C16   C33   S    
C10   C75   A    
C47   C48   A    
C29   F3    S    
C57   H15   S    
C50   C51   A    
C52   H11   S    
C3    C76   A    
C8    C10   A    
C20   C22   A    
C19   N2    A    
C65   C66   A    
C55   C57   A    
O3    Zn2   S    
C36   C44   A    
C12   C76   S    
C44   C45   A    
C43   C48   A    
C7    C9    A    
C23   C48   A    
C49   C67   S    
C27   C32   A    
C28   C31   A    
C18   C27   A    
O1    Zn1   S    
C72   C73   A    
C60   H18   S    
C17   O8    A    
C4    H6    S    
C25   C27   A    
C32   F6    S    
C26   C28   A    
C33   C38   A    
C31   F5    S    
C62   C68   A    
C64   C65   A    
C13   C15   A    
C58   C59   A    
O7    Zn2   S    
C55   C75   S    
C71   C72   A    
C29   C31   A    
C70   H26   S    
C15   H8    S    
C30   C32   A    
C57   C58   A    
C13   C69   S    
C71   H27   S    
C36   C38   A    
N1    Zn1   S    
O4    Zn1   S    
C42   C47   A    
C9    C15   A    
C69   C70   A    
C35   C41   A    
C16   O7    A    
C1    O1    A    
C18   H23   S    
C63   C64   A    
O5    Zn1   S    
C50   H9    S    
C12   O2    A    
C37   C39   A    
C39   H34   S    
C23   H3    S    
C21   C24   A    
C46   C56   A    
O6    Zn2   S    
C34   C47   A    
C17   C35   S    
C65   H22   S    
C37   C46   A    
C18   N1    A    
O2    Zn2   S    
C20   N1    A    
C2    C75   A    
C67   C76   A    
C6    C13   A    
