data_mof_unit_15135.cif
_audit_creation_date              2012-12-10T16:34:44-0500
_audit_creation_method            fapswitch 2.2
_symmetry_space_group_name_H-M    P1
_symmetry_Int_Tables_number       1
_space_group_crystal_system       triclinic
_cell_length_a                    28.18715
_cell_length_b                    18.46691
_cell_length_c                    17.075935
_cell_angle_alpha                 89.917291
_cell_angle_beta                  60.741121
_cell_angle_gamma                 89.846266
_cell_volume                      7754.50489468

loop_
_atom_site_label
_atom_site_type_symbol
_atom_type_description
_atom_site_fract_x
_atom_site_fract_y
_atom_site_fract_z
_atom_type_partial_charge
C1    C     C_R   0.701775 0.268643 0.675880 0.907218
C2    C     C_R   0.298168 0.731226 0.324145 0.902935
C3    C     C_R   0.298218 0.268679 0.324190 0.893184
C4    C     C_R   0.701818 0.731245 0.675784 0.900691
C5    C     C_R   0.201811 0.768721 0.675863 0.871824
C6    C     C_R   0.798160 0.231213 0.324146 0.899131
C7    C     C_R   0.798219 0.768676 0.324188 0.888264
C8    C     C_R   0.201829 0.231222 0.675779 0.887216
C9    C     C_R   0.900462 0.494408 0.498227 0.071438
C10   C     C_R   0.091880 0.494169 0.526403 0.068915
C11   C     C_R   0.400459 0.994188 0.498290 0.071598
C12   C     C_R   0.591727 0.993523 0.526803 0.074812
C13   C     C_R   0.070225 0.373168 0.590741 -0.219228
C14   C     C_R   0.924741 0.611757 0.424956 -0.235117
C15   C     C_R   0.878462 0.374768 0.566750 -0.219760
C16   C     C_R   0.116648 0.610432 0.450931 -0.232361
C17   C     C_R   0.570055 0.872482 0.590989 -0.220548
C18   C     C_R   0.424851 0.111541 0.425033 -0.236063
C19   C     C_R   0.378325 0.874573 0.566901 -0.219363
C20   C     C_R   0.616920 0.109464 0.450710 -0.238007
C21   C     C_R   0.721056 0.265992 0.953279 0.113574
C22   C     C_R   0.279114 0.734132 0.046466 0.112785
C23   C     C_R   0.279458 0.264314 0.046343 0.112172
C24   C     C_R   0.720643 0.735547 0.953532 0.114331
C25   C     C_R   0.221235 0.766335 0.953139 0.112433
C26   C     C_R   0.778968 0.233869 0.046582 0.112564
C27   C     C_R   0.779437 0.764354 0.046354 0.112084
C28   C     C_R   0.220671 0.235483 0.953515 0.114091
C29   C     C_R   0.744511 0.197374 0.945955 -0.179487
C30   C     C_R   0.255663 0.802755 0.053820 -0.179337
C31   C     C_R   0.222219 0.264493 0.091965 -0.174172
C32   C     C_R   0.777882 0.735380 0.907898 -0.170706
C33   C     C_R   0.244701 0.697719 0.945762 -0.178169
C34   C     C_R   0.755526 0.302488 0.053882 -0.178956
C35   C     C_R   0.722198 0.764527 0.091984 -0.174925
C36   C     C_R   0.277910 0.235308 0.907889 -0.172078
C37   C     C_R   0.772925 0.181467 0.992132 -0.177426
C38   C     C_R   0.227270 0.818706 0.007623 -0.175148
C39   C     C_R   0.193280 0.250281 0.046246 -0.175353
C40   C     C_R   0.806825 0.749580 0.953615 -0.176465
C41   C     C_R   0.273096 0.681771 0.991953 -0.177737
C42   C     C_R   0.727123 0.318400 0.007694 -0.175295
C43   C     C_R   0.693255 0.750326 0.046268 -0.175884
C44   C     C_R   0.306850 0.249520 0.953609 -0.177267
C45   C     C_R   0.643389 0.326394 0.945903 -0.202807
C46   C     C_R   0.356768 0.673778 0.053909 -0.203277
C47   C     C_R   0.356607 0.326181 0.053958 -0.202537
C48   C     C_R   0.643496 0.673662 0.945929 -0.203215
C49   C     C_R   0.143510 0.826625 0.945825 -0.202224
C50   C     C_R   0.856675 0.173621 0.053975 -0.202798
C51   C     C_R   0.856594 0.826202 0.053966 -0.202873
C52   C     C_R   0.143514 0.173625 0.945918 -0.202930
C53   C     C_R   0.616333 0.346933 0.898372 -0.067723
C54   C     C_R   0.383782 0.653208 0.101497 -0.066400
C55   C     C_R   0.383638 0.346913 0.101562 -0.064752
C56   C     C_R   0.616470 0.652917 0.898324 -0.065372
C57   C     C_R   0.116400 0.847050 0.898336 -0.067824
C58   C     C_R   0.883743 0.153152 0.101516 -0.066038
C59   C     C_R   0.883634 0.846916 0.101562 -0.064358
C60   C     C_R   0.116480 0.152897 0.898318 -0.066029
C61   C     C_R   0.633031 0.321959 0.813239 -0.236188
C62   C     C_R   0.367045 0.678148 0.186659 -0.257076
C63   C     C_R   0.366984 0.321931 0.186725 -0.261362
C64   C     C_R   0.633159 0.677811 0.813123 -0.235945
C65   C     C_R   0.133099 0.822075 0.813210 -0.236913
C66   C     C_R   0.867031 0.178144 0.186648 -0.260138
C67   C     C_R   0.866987 0.821921 0.186718 -0.264448
C68   C     C_R   0.133173 0.177787 0.813116 -0.232083
C69   C     C_R   0.679513 0.281282 0.770892 -0.033387
C70   C     C_R   0.320478 0.718661 0.229072 -0.053066
C71   C     C_R   0.320623 0.281250 0.229096 -0.053179
C72   C     C_R   0.679463 0.718590 0.770814 -0.041662
C73   C     C_R   0.179626 0.781501 0.770824 -0.033421
C74   C     C_R   0.820442 0.218609 0.229085 -0.050892
C75   C     C_R   0.820621 0.781250 0.229094 -0.050979
C76   C     C_R   0.179487 0.218545 0.770801 -0.039741
C77   C     C_R   0.707882 0.260020 0.816779 -0.204414
C78   C     C_R   0.292117 0.739889 0.183149 -0.201089
C79   C     C_R   0.292550 0.259559 0.183081 -0.192980
C80   C     C_R   0.707524 0.740323 0.816829 -0.180175
C81   C     C_R   0.208077 0.760402 0.816636 -0.192863
C82   C     C_R   0.792033 0.239745 0.183205 -0.201593
C83   C     C_R   0.792539 0.759574 0.183085 -0.193057
C84   C     C_R   0.207561 0.240251 0.816805 -0.185222
C85   C     C_R   0.694773 0.127322 0.523003 0.954207
C86   C     C_R   0.296475 0.869673 0.500946 0.901139
C87   C     C_R   0.306397 0.127756 0.473084 0.883345
C88   C     C_R   0.690400 0.869905 0.538903 0.930646
C89   C     C_R   0.195033 0.627386 0.522451 0.897866
C90   C     C_R   0.796530 0.369702 0.500831 0.898964
C91   C     C_R   0.806391 0.627772 0.473051 0.882898
C92   C     C_R   0.190354 0.369597 0.539091 0.887579
C93   C     C_R   0.689969 0.282968 0.905274 0.075299
C94   C     C_R   0.310141 0.717106 0.094555 0.074665
C95   C     C_R   0.310457 0.282005 0.094388 0.072310
C96   C     C_R   0.689640 0.717847 0.905498 0.068832
C97   C     C_R   0.190148 0.783316 0.905142 0.074008
C98   C     C_R   0.810028 0.216909 0.094638 0.074207
C99   C     C_R   0.810442 0.782030 0.094397 0.071948
C100  C     C_R   0.189670 0.217785 0.905478 0.072543
C101  C     C_R   0.074084 0.099552 0.933885 0.920505
C102  C     C_R   0.925962 0.900382 0.066069 0.907995
C103  C     C_R   0.926175 0.099857 0.065845 0.908272
C104  C     C_R   0.073889 0.900224 0.934091 0.920723
C105  C     C_R   0.574084 0.599554 0.933885 0.919788
C106  C     C_R   0.425962 0.400382 0.066068 0.908634
C107  C     C_R   0.426185 0.599869 0.065838 0.908614
C108  C     C_R   0.573881 0.400207 0.934094 0.919918
C109  C     C_R   0.570666 0.108590 0.439668 0.110298
C110  C     C_R   0.426044 0.873605 0.572893 0.105719
C111  C     C_R   0.474269 0.109709 0.426898 0.110975
C112  C     C_R   0.522213 0.872489 0.584953 0.108580
C113  C     C_R   0.070303 0.609517 0.440213 0.106016
C114  C     C_R   0.926119 0.374018 0.572957 0.105833
C115  C     C_R   0.974047 0.610195 0.427129 0.110954
C116  C     C_R   0.022264 0.373206 0.585092 0.107105
C117  C     C_R   0.559988 0.165527 0.395729 -0.203807
C118  C     C_R   0.438276 0.814557 0.611849 -0.203025
C119  C     C_R   0.512139 0.166225 0.389734 -0.205111
C120  C     C_R   0.486099 0.813875 0.617500 -0.205685
C121  C     C_R   0.059530 0.666431 0.396371 -0.203229
C122  C     C_R   0.938395 0.315062 0.611979 -0.203088
C123  C     C_R   0.011760 0.666893 0.390181 -0.204018
C124  C     C_R   0.986200 0.314536 0.617681 -0.204628
C125  C     C_R   0.485774 0.051087 0.467966 0.028627
C126  C     C_R   0.510028 0.932229 0.546273 0.027321
C127  C     C_R   0.533792 0.050729 0.474774 0.029878
C128  C     C_R   0.462035 0.932624 0.539720 0.028383
C129  C     C_R   0.985589 0.551667 0.468275 0.029242
C130  C     C_R   0.009996 0.432917 0.546503 0.027935
C131  C     C_R   0.033566 0.551502 0.475189 0.030715
C132  C     C_R   0.962014 0.433155 0.539912 0.028842
C133  C     C_R   0.949407 0.493066 0.501968 -0.049017
C134  C     C_R   0.045207 0.492827 0.515852 -0.048452
C135  C     C_R   0.449472 0.992628 0.501827 -0.048982
C136  C     C_R   0.545285 0.992076 0.515646 -0.047126
C137  C     C_R   0.866106 0.433714 0.526899 0.059905
C138  C     C_R   0.125656 0.555828 0.500949 0.043548
C139  C     C_R   0.105841 0.432934 0.560118 0.060460
C140  C     C_R   0.885706 0.556027 0.465406 0.044603
C141  C     C_R   0.366020 0.933588 0.527073 0.059471
C142  C     C_R   0.625475 0.055177 0.501615 0.033212
C143  C     C_R   0.605506 0.932423 0.560969 0.046282
C144  C     C_R   0.385732 0.055897 0.465533 0.044817
C145  C     C_R   0.819280 0.434886 0.516703 -0.204091
C146  C     C_R   0.165994 0.560388 0.529092 -0.190727
C147  C     C_R   0.155307 0.433820 0.562647 -0.203089
C148  C     C_R   0.831218 0.560191 0.479154 -0.182146
C149  C     C_R   0.319198 0.934845 0.516899 -0.204643
C150  C     C_R   0.664680 0.060469 0.532175 -0.181829
C151  C     C_R   0.654438 0.933828 0.565159 -0.202730
C152  C     C_R   0.331220 0.060158 0.479295 -0.182761
C153  C     C_R   0.796778 0.500046 0.513639 -0.108361
C154  C     C_R   0.177301 0.499532 0.566609 -0.105385
C155  C     C_R   0.296745 0.000036 0.513789 -0.108834
C156  C     C_R   0.673893 0.000585 0.574260 -0.129384
H1    H     H_    0.994907 0.268288 0.647757 0.140197
H2    H     H_    0.003958 0.712165 0.357607 0.141477
H3    H     H_    0.911106 0.269196 0.637794 0.139503
H4    H     H_    0.087531 0.711389 0.368429 0.141299
H5    H     H_    0.494736 0.767603 0.647629 0.140053
H6    H     H_    0.504394 0.211557 0.357175 0.141942
H7    H     H_    0.410916 0.768766 0.637721 0.139418
H8    H     H_    0.588076 0.210385 0.367698 0.141498
H9    H     H_    0.078445 0.327730 0.622578 0.159392
H10   H     H_    0.917588 0.656485 0.391109 0.166036
H11   H     H_    0.850068 0.330486 0.596683 0.162708
H12   H     H_    0.145448 0.653597 0.418387 0.174518
H13   H     H_    0.578194 0.827091 0.623002 0.159504
H14   H     H_    0.417691 0.156385 0.391350 0.166001
H15   H     H_    0.349850 0.830386 0.596946 0.163046
H16   H     H_    0.645728 0.152642 0.418367 0.171876
H17   H     H_    0.710576 0.372346 0.013612 0.135966
H18   H     H_    0.289661 0.627830 0.985985 0.134893
H19   H     H_    0.350850 0.248017 0.916391 0.133828
H20   H     H_    0.649255 0.751824 0.083492 0.133224
H21   H     H_    0.210701 0.872644 0.013593 0.135861
H22   H     H_    0.789492 0.127531 0.986198 0.134293
H23   H     H_    0.850825 0.748081 0.916390 0.133882
H24   H     H_    0.149280 0.251787 0.083464 0.133555
H25   H     H_    0.740060 0.155467 0.905741 0.134297
H26   H     H_    0.260091 0.844629 0.094093 0.135808
H27   H     H_    0.199642 0.277121 0.162862 0.135216
H28   H     H_    0.800454 0.722767 0.836997 0.136013
H29   H     H_    0.240267 0.655837 0.905503 0.140108
H30   H     H_    0.759976 0.344394 0.094097 0.136187
H31   H     H_    0.699623 0.777140 0.162885 0.134838
H32   H     H_    0.300485 0.222681 0.836991 0.136095
H33   H     H_    0.628891 0.345621 0.013757 0.147526
H34   H     H_    0.371322 0.654624 0.986009 0.147414
H35   H     H_    0.369827 0.347375 0.987278 0.149276
H36   H     H_    0.630266 0.652491 0.012621 0.149923
H37   H     H_    0.129003 0.845837 0.013687 0.147741
H38   H     H_    0.871204 0.154424 0.986099 0.147622
H39   H     H_    0.869811 0.847405 0.987292 0.149381
H40   H     H_    0.130278 0.152459 0.012615 0.149575
H41   H     H_    0.611869 0.338554 0.777478 0.178623
H42   H     H_    0.388222 0.661601 0.222412 0.179134
H43   H     H_    0.388019 0.338617 0.222558 0.177060
H44   H     H_    0.612166 0.661046 0.777248 0.177098
H45   H     H_    0.111883 0.838562 0.777499 0.179089
H46   H     H_    0.888248 0.161673 0.222362 0.177925
H47   H     H_    0.888029 0.838593 0.222544 0.175769
H48   H     H_    0.112172 0.161039 0.777248 0.176790
H49   H     H_    0.745192 0.228996 0.782445 0.147737
H50   H     H_    0.254745 0.770782 0.217501 0.150093
H51   H     H_    0.256224 0.226777 0.216781 0.152427
H52   H     H_    0.743819 0.773167 0.783152 0.157392
H53   H     H_    0.245439 0.729489 0.782258 0.148978
H54   H     H_    0.754648 0.270610 0.217573 0.150088
H55   H     H_    0.756211 0.726798 0.216788 0.152639
H56   H     H_    0.243866 0.273074 0.783120 0.152428
O1    O     O_R   0.746490 0.236330 0.638080 -0.650596
O2    O     O_R   0.253510 0.763670 0.361920 -0.642289
O3    O     O_R   0.253510 0.236330 0.361920 -0.631575
O4    O     O_R   0.746490 0.763670 0.638080 -0.622702
O5    O     O_R   0.246490 0.736330 0.638080 -0.657437
O6    O     O_R   0.753510 0.263670 0.361920 -0.642669
O7    O     O_R   0.753510 0.736330 0.361920 -0.631599
O8    O     O_R   0.246490 0.263670 0.638080 -0.638583
O9    O     O_R   0.674170 0.186160 0.516270 -0.641147
O10   O     O_R   0.325830 0.813840 0.483730 -0.634087
O11   O     O_R   0.325830 0.186160 0.483730 -0.636740
O12   O     O_R   0.674170 0.813840 0.516270 -0.642925
O13   O     O_R   0.174170 0.686160 0.516270 -0.641339
O14   O     O_R   0.825830 0.313840 0.483730 -0.633988
O15   O     O_R   0.825830 0.686160 0.483730 -0.638233
O16   O     O_R   0.174170 0.313840 0.516270 -0.634108
O17   O     O_R   0.739960 0.127620 0.525000 -0.602556
O18   O     O_R   0.260040 0.872380 0.475000 -0.584099
O19   O     O_R   0.260040 0.127620 0.475000 -0.591002
O20   O     O_R   0.739960 0.872380 0.525000 -0.577487
O21   O     O_R   0.239960 0.627620 0.525000 -0.588157
O22   O     O_R   0.760040 0.372380 0.475000 -0.583861
O23   O     O_R   0.760040 0.627620 0.475000 -0.591007
O24   O     O_R   0.239960 0.372380 0.525000 -0.582917
O25   O     O_R   0.680700 0.294870 0.629350 -0.634613
O26   O     O_R   0.319300 0.705130 0.370650 -0.620571
O27   O     O_R   0.319300 0.294870 0.370650 -0.627730
O28   O     O_R   0.680700 0.705130 0.629350 -0.636775
O29   O     O_R   0.180700 0.794870 0.629350 -0.633488
O30   O     O_R   0.819300 0.205130 0.370650 -0.628565
O31   O     O_R   0.819300 0.794870 0.370650 -0.636031
O32   O     O_R   0.180700 0.205130 0.629350 -0.633289
O33   O     O_R   0.062020 0.072840 0.007170 -0.629547
O34   O     O_R   0.937980 0.927160 0.992830 -0.629017
O35   O     O_R   0.937980 0.072840 0.992830 -0.630333
O36   O     O_R   0.062020 0.927160 0.007170 -0.630305
O37   O     O_R   0.562020 0.572840 0.007170 -0.629712
O38   O     O_R   0.437980 0.427160 0.992830 -0.629326
O39   O     O_R   0.437980 0.572840 0.992830 -0.630738
O40   O     O_R   0.562020 0.427160 0.007170 -0.630388
O41   O     O_R   0.947860 0.073950 0.109290 -0.623498
O42   O     O_R   0.052140 0.926050 0.890710 -0.616967
O43   O     O_R   0.052140 0.073950 0.890710 -0.617432
O44   O     O_R   0.947860 0.926050 0.109290 -0.624251
O45   O     O_R   0.447860 0.573950 0.109290 -0.621748
O46   O     O_R   0.552140 0.426050 0.890710 -0.617038
O47   O     O_R   0.552140 0.573950 0.890710 -0.617674
O48   O     O_R   0.447860 0.426050 0.109290 -0.622530
Zn1   Zn    Zn3+2 0.792340 0.208750 0.507670 0.959316
Zn2   Zn    Zn3+2 0.207660 0.791250 0.492330 0.975308
Zn3   Zn    Zn3+2 0.207660 0.208750 0.492330 0.979899
Zn4   Zn    Zn3+2 0.792340 0.791250 0.507670 0.988103
Zn5   Zn    Zn3+2 0.292340 0.708750 0.507670 0.974373
Zn6   Zn    Zn3+2 0.707660 0.291250 0.492330 0.978172
Zn7   Zn    Zn3+2 0.707660 0.708750 0.492330 0.978691
Zn8   Zn    Zn3+2 0.292340 0.291250 0.507670 0.984542
Zn9   Zn    Zn3+2 0.505960 0.500000 0.080520 0.941591
Zn10  Zn    Zn3+2 0.494040 0.500000 0.919480 0.943812
Zn11  Zn    Zn3+2 0.005960 1.000000 0.080520 0.937116
Zn12  Zn    Zn3+2 0.994040 1.000000 0.919480 0.944197
C157  C     C_2   0.736204 0.504988 0.561567 0.975811
O49   O     O_2   0.711538 0.510604 0.643336 -0.651111
O50   O     O_R   0.707763 0.501986 0.513629 -0.762648
H57   H     H_    0.666953 0.505512 0.554120 0.320847
C158  C     C_2   0.207863 0.503391 0.617012 0.968901
O51   O     O_2   0.182783 0.506214 0.698966 -0.646907
O52   O     O_R   0.264750 0.502130 0.571307 -0.762681
H58   H     H_    0.280456 0.504548 0.613459 0.323155
C159  C     C_2   0.236176 0.005023 0.561658 0.977120
O53   O     O_2   0.211489 0.010741 0.643415 -0.650020
O54   O     O_R   0.207762 0.001962 0.513679 -0.763079
H59   H     H_    0.166950 0.005532 0.554133 0.320860
C160  C     C_2   0.692549 0.009052 0.642326 0.948403
O55   O     O_2   0.712670 0.958183 0.661733 -0.631645
O56   O     O_R   0.682761 0.074006 0.690025 -0.802102
H60   H     H_    0.696150 0.072888 0.735378 0.335523

loop_
_geom_bond_atom_site_label_1
_geom_bond_atom_site_label_2
_ccdc_geom_bond_type
C81   H53   S    
C41   H18   S    
C34   C42   A    
C44   H19   S    
C16   C113  A    
C110  C118  A    
O12   Zn7   S    
C39   H24   S    
C37   H22   S    
C27   C99   S    
C54   C107  S    
C13   C139  A    
O33   Zn11  S    
O34   Zn12  S    
C24   C96   S    
C8    O32   A    
C3    O3    A    
C30   C38   A    
O48   Zn9   S    
C34   H30   S    
C87   O11   A    
C109  C127  A    
C5    O5    A    
C52   H40   S    
C111  C125  A    
C125  C135  A    
C143  C151  A    
C126  C136  A    
C19   C141  A    
C92   C147  S    
C30   H26   S    
C130  C134  A    
C20   H16   S    
C73   C81   A    
O15   Zn4   S    
C18   H14   S    
C115  C123  A    
C84   C100  A    
C85   O17   A    
C127  C136  A    
C128  C135  A    
C61   H41   S    
C112  C120  A    
C27   C35   A    
C21   C29   A    
C92   O24   A    
C103  O35   A    
C36   H32   S    
C23   C31   A    
C24   C32   A    
C77   H49   S    
C146  C154  A    
O32   Zn3   S    
O47   Zn10  S    
C129  C133  A    
C88   O20   A    
C63   C71   A    
C2    O2    A    
C64   H44   S    
C36   C44   A    
C148  C153  A    
C57   C104  S    
C48   C96   A    
C59   C102  S    
C90   O14   A    
C16   C138  A    
C3    C71   S    
C106  O38   A    
C117  C119  A    
C149  C155  A    
C160  O56   S    
C51   H39   S    
O35   Zn12  S    
C53   C108  S    
O36   Zn11  S    
C21   C93   S    
C78   C94   A    
C79   H51   S    
O6    Zn6   S    
C23   C95   S    
O27   Zn8   S    
C118  C120  A    
C121  C123  A    
C67   H47   S    
C49   C97   A    
C21   C42   A    
C116  C130  A    
C125  C127  A    
C24   C43   A    
C153  C157  S    
C10   C138  A    
C110  C128  A    
C15   C137  A    
C9    C133  A    
C4    O4    A    
C68   H48   S    
C69   C77   A    
C45   C93   A    
C71   C79   A    
C67   C75   A    
C62   C70   A    
C108  O40   A    
C101  O43   A    
C9    C140  A    
O40   Zn9   S    
C66   C74   A    
C91   O23   A    
C8    C76   S    
C49   C57   A    
C111  C119  A    
C89   O21   A    
C52   C60   A    
C59   C67   A    
C53   C61   A    
C55   C63   A    
C56   C64   A    
C14   H10   S    
C35   C43   A    
O16   Zn3   S    
C45   C53   A    
C38   H21   S    
C158  O51   D    
C22   C94   S    
C15   H11   S    
C156  C160  S    
O43   Zn12  S    
O23   Zn7   S    
O44   Zn11  S    
C50   C98   A    
C28   C36   A    
C1    O25   A    
C52   C100  A    
O1    Zn1   S    
C155  C159  S    
C25   C38   A    
C46   C94   A    
C27   C40   A    
O52   H58   S    
C57   C65   A    
C11   C141  A    
O14   Zn1   S    
C60   C68   A    
O11   Zn8   S    
C25   C97   S    
C102  O34   A    
C80   H52   S    
C14   C140  A    
C87   C152  S    
C88   C151  S    
O45   Zn9   S    
C122  C124  A    
O19   Zn3   S    
C126  C128  A    
C22   C30   A    
C154  C158  S    
O17   Zn1   S    
C159  O54   S    
C12   C143  A    
C107  O45   A    
C144  C152  A    
C138  C146  A    
C157  O50   S    
C102  O44   A    
C5    C73   S    
O21   Zn5   S    
C66   H46   S    
C113  C121  A    
C12   C136  A    
O54   H59   S    
C6    O30   A    
C85   O9    A    
C25   C33   A    
C82   H54   S    
O18   Zn2   S    
C82   C98   A    
O50   H57   S    
C131  C134  A    
C101  O33   A    
C76   C84   A    
C109  C117  A    
O7    Zn7   S    
C137  C145  A    
C90   C145  S    
C22   C41   A    
C14   C115  A    
O39   Zn10  S    
C85   C150  S    
C6    O6    A    
C9    C137  A    
C104  O36   A    
C121  H4    S    
C122  H3    S    
O20   Zn4   S    
C112  C126  A    
C83   C99   A    
C74   C82   A    
C119  H6    S    
C6    C74   S    
C117  H8    S    
C118  H7    S    
C55   C106  S    
C141  C149  A    
C86   O18   A    
O3    Zn3   S    
O4    Zn4   S    
C54   C62   A    
C28   C39   A    
C1    C69   S    
C23   C44   A    
C72   C80   A    
O25   Zn6   S    
C50   C58   A    
C130  C132  A    
C78   H50   S    
C79   C95   A    
C160  O55   D    
O37   Zn9   S    
C40   H23   S    
C43   H20   S    
C13   H9    S    
O56   H60   S    
C152  C155  A    
C124  H1    S    
C46   C54   A    
C4    O28   A    
C151  C156  A    
C18   C111  A    
C29   H25   S    
O5    Zn5   S    
O29   Zn2   S    
C1    O1    A    
C103  O41   A    
C68   C76   A    
C10   C139  A    
C4    C72   S    
O42   Zn12  S    
C116  C124  A    
C91   O15   A    
O2    Zn2   S    
C89   O13   A    
C84   H56   S    
C26   C37   A    
C107  O39   A    
C17   C143  A    
C33   C41   A    
C142  C150  A    
C18   C144  A    
C105  O37   A    
C50   H38   S    
C75   C83   A    
O41   Zn11  S    
C77   C93   A    
C12   C142  A    
C47   H35   S    
O46   Zn10  S    
C56   C105  S    
C48   H36   S    
C13   C116  A    
C92   O16   A    
C35   H31   S    
C29   C37   A    
O24   Zn8   S    
C33   H29   S    
C2    C70   S    
C3    O27   A    
C70   C78   A    
C108  O46   A    
C140  C148  A    
C104  O42   A    
C139  C147  A    
C49   H37   S    
C19   H15   S    
C11   C135  A    
C17   H13   S    
O22   Zn6   S    
C65   C73   A    
C90   O22   A    
C147  C154  A    
O9    Zn6   S    
C26   C34   A    
C31   C39   A    
C132  C133  A    
C80   C96   A    
C11   C144  A    
C145  C153  A    
C28   C100  S    
C64   C72   A    
C105  O47   A    
C150  C156  A    
C106  O48   A    
O28   Zn7   S    
O13   Zn2   S    
C46   H34   S    
C91   C148  S    
C58   C66   A    
C51   C99   A    
C89   C146  S    
C20   C142  A    
C62   H42   S    
C86   C149  S    
O10   Zn5   S    
C2    O26   A    
C7    C75   S    
C159  O53   D    
C8    O8    A    
C88   O12   A    
C157  O49   D    
C15   C114  A    
C120  H5    S    
C26   C98   S    
C45   H33   S    
C158  O52   S    
C51   C59   A    
O31   Zn4   S    
O38   Zn10  S    
C60   C101  S    
O8    Zn8   S    
C17   C112  A    
C47   C55   A    
C115  C129  A    
C19   C110  A    
C61   C69   A    
C48   C56   A    
C113  C131  A    
C31   H27   S    
C114  C132  A    
C32   H28   S    
O26   Zn5   S    
C10   C134  A    
C42   H17   S    
C123  H2    S    
C7    O7    A    
C81   C97   A    
C16   H12   S    
C87   O19   A    
O30   Zn1   S    
C63   H43   S    
C32   C40   A    
C20   C109  A    
C114  C122  A    
C65   H45   S    
C7    O31   A    
C47   C95   A    
C58   C103  S    
C86   O10   A    
C5    O29   A    
C83   H55   S    
C129  C131  A    
