data_mof_unit_12077.cif
_audit_creation_date              2012-12-10T17:47:13-0500
_audit_creation_method            fapswitch 2.2
_symmetry_space_group_name_H-M    P1
_symmetry_Int_Tables_number       1
_space_group_crystal_system       triclinic
_cell_length_a                    11.699599
_cell_length_b                    14.759257
_cell_length_c                    15.208448
_cell_angle_alpha                 63.85001
_cell_angle_beta                  104.733757
_cell_angle_gamma                 104.089548
_cell_volume                      2253.58981527

loop_
_atom_site_label
_atom_site_type_symbol
_atom_type_description
_atom_site_fract_x
_atom_site_fract_y
_atom_site_fract_z
_atom_type_partial_charge
C1    C     C_R   0.482952 0.120787 0.313578 0.805598
C2    C     C_R   0.515089 0.879377 0.686600 0.803818
C3    C     C_R   0.523294 0.324984 0.015119 0.087482
C4    C     C_R   0.570166 0.684347 0.996676 0.079279
C5    C     C_R   0.565250 0.472657 0.060327 -0.023810
C6    C     C_R   0.563273 0.538154 0.958019 -0.022079
C7    C     C_R   0.569275 0.496386 0.891655 0.090769
C8    C     C_R   0.602094 0.518077 0.130852 0.106324
C9    C     C_R   0.538882 0.391435 0.917039 -0.053971
C10   C     C_R   0.600751 0.623228 0.098632 -0.070945
C11   C     C_R   0.723321 0.303060 0.641622 0.018105
C12   C     C_R   0.278999 0.701619 0.351900 0.013677
C13   C     C_R   0.680961 0.212950 0.625822 0.115071
C14   C     C_R   0.322387 0.790501 0.369841 0.111901
C15   C     C_R   0.513172 0.284294 0.511243 0.035617
C16   C     C_R   0.486977 0.715594 0.486327 0.022169
C17   C     C_R   0.545793 0.373364 0.531296 -0.022148
C18   C     C_R   0.455198 0.629207 0.461626 -0.044854
C19   C     C_R   0.658555 0.384989 0.590079 0.076349
C20   C     C_R   0.343103 0.619198 0.401695 0.045260
C21   C     C_R   0.474330 0.453358 0.491525 0.030525
C22   C     C_R   0.526925 0.550062 0.498268 0.029343
C23   C     C_R   0.283950 0.999316 0.499782 0.829130
C24   C     C_R   0.716003 0.000767 0.500023 0.841936
C25   C     C_R   0.650012 0.563981 0.538931 0.141042
C26   C     C_R   0.351872 0.440985 0.447574 0.082445
C27   C     C_R   0.709655 0.480560 0.590507 -0.115756
C28   C     C_R   0.293069 0.525133 0.396996 -0.148083
C29   C     C_1   0.161736 0.998339 0.499411 -0.153009
C30   C     C_1   0.838035 0.001875 0.499765 -0.143443
C31   C     C_1   0.059441 0.999207 0.499330 0.018549
C32   C     C_1   0.940180 0.000971 0.499432 0.022006
C33   C     C_R   0.488958 0.190742 0.209631 -0.043347
C34   C     C_R   0.523513 0.810588 0.792746 -0.047615
C35   C     C_R   0.498187 0.218231 0.043686 -0.189454
C36   C     C_R   0.557051 0.787565 0.963860 -0.187779
C37   C     C_R   0.489315 0.152617 0.140941 -0.206061
C38   C     C_R   0.533701 0.849268 0.863477 -0.205253
C39   C     C_R   0.504894 0.296747 0.180584 -0.175489
C40   C     C_R   0.524028 0.706172 0.824244 -0.179181
C41   C     C_R   0.535218 0.365180 0.087052 0.091553
C42   C     C_R   0.554969 0.642873 0.925673 0.095118
Cu1   Cu    Cu3+1 0.469550 0.918260 0.475690 0.960509
Cu2   Cu    Cu3+1 0.530450 0.081740 0.524310 0.964073
H1    H     H_    0.497885 0.674809 0.768833 0.174991
H2    H     H_    0.491228 0.324985 0.230960 0.174540
H3    H     H_    0.522245 0.927247 0.841352 0.144233
H4    H     H_    0.483462 0.071891 0.162059 0.148988
H5    H     H_    0.489189 0.182922 0.993086 0.149214
H6    H     H_    0.565255 0.822368 0.015012 0.151971
H7    H     H_    0.801606 0.494252 0.624009 0.208986
H8    H     H_    0.202114 0.512862 0.360919 0.214557
H9    H     H_    0.558039 0.717844 0.546475 0.188860
H10   H     H_    0.443788 0.280625 0.450768 0.175544
N1    N     N_R   0.576230 0.204580 0.560790 -0.212266
N2    N     N_R   0.423770 0.795420 0.439210 -0.215655
O1    O     O_R   0.459870 0.022090 0.338120 -0.590019
O2    O     O_R   0.540130 0.977910 0.661880 -0.591598
O3    O     O_R   0.511290 0.160150 0.379180 -0.574480
O4    O     O_R   0.488710 0.839850 0.620820 -0.578865
O5    O     O_R   0.311490 0.930960 0.479480 -0.586103
O6    O     O_R   0.688510 0.069040 0.520520 -0.576478
O7    O     O_R   0.362910 0.069020 0.520540 -0.566701
O8    O     O_R   0.637090 0.930980 0.479460 -0.562764
C43   C     C_R   0.505141 0.353013 0.837539 0.131416
C44   C     C_R   0.393187 0.367100 0.776039 -0.130606
C45   C     C_R   0.345056 0.310619 0.718277 -0.107794
C46   C     C_R   0.407868 0.239185 0.722433 -0.107872
C47   C     C_R   0.521206 0.227937 0.780483 -0.155677
C48   C     C_R   0.571840 0.287053 0.835391 -0.119936
H11   H     H_    0.340388 0.417395 0.777216 0.144998
H12   H     H_    0.257224 0.319557 0.673281 0.173974
H13   H     H_    0.368955 0.192352 0.680884 0.163478
H14   H     H_    0.568727 0.171780 0.784633 0.131514
H15   H     H_    0.657844 0.274721 0.883057 0.162813
C49   C     C_R   0.637628 0.672803 0.169523 0.128590
C50   C     C_R   0.550383 0.690321 0.206458 -0.142877
C51   C     C_R   0.579695 0.761530 0.249080 -0.127965
C52   C     C_R   0.696330 0.813337 0.257337 -0.097509
C53   C     C_R   0.784748 0.792139 0.225412 -0.115791
C54   C     C_R   0.755432 0.722827 0.180761 -0.087514
H16   H     H_    0.458422 0.654458 0.195883 0.152867
H17   H     H_    0.511306 0.779156 0.272707 0.144158
H18   H     H_    0.718222 0.869847 0.288637 0.151458
H19   H     H_    0.875029 0.831917 0.232018 0.158519
H20   H     H_    0.822803 0.712006 0.150330 0.169903
I1    I     I_    0.769680 0.705306 0.512308 -0.386248
I2    I     I_    0.229554 0.301814 0.465624 -0.456156
I3    I     I_    0.674519 0.577752 0.775858 -0.377851
I4    I     I_    0.696399 0.442133 0.278898 -0.350194
C55   C     C_R   0.254287 0.876798 0.311062 0.198396
C56   C     C_R   0.275910 0.942440 0.214690 -0.120465
C57   C     C_R   0.204585 0.018210 0.153359 -0.125042
C58   C     C_R   0.108019 0.026311 0.186416 -0.111711
C59   C     C_R   0.080547 0.956654 0.279465 -0.179054
C60   C     C_R   0.151052 0.880139 0.340259 -0.081664
H21   H     H_    0.346244 0.932701 0.186624 0.108937
H22   H     H_    0.223156 0.069622 0.079726 0.146148
H23   H     H_    0.052708 0.084851 0.138949 0.148008
H24   H     H_    0.003409 0.960792 0.303790 0.145163
H25   H     H_    0.126072 0.824085 0.410527 0.154639
C61   C     C_R   0.759949 0.133504 0.674266 0.183856
C62   C     C_R   0.747108 0.056286 0.768653 -0.107882
C63   C     C_R   0.829660 0.987962 0.819652 -0.122267
C64   C     C_R   0.929273 0.999367 0.778887 -0.106894
C65   C     C_R   0.947378 0.080102 0.687952 -0.144229
C66   C     C_R   0.864003 0.147656 0.636345 -0.081549
H26   H     H_    0.675172 0.050896 0.803769 0.104316
H27   H     H_    0.817712 0.927545 0.891729 0.146467
H28   H     H_    0.993748 0.947045 0.818762 0.146276
H29   H     H_    0.026327 0.090747 0.657682 0.156862
H30   H     H_    0.880150 0.211040 0.566757 0.161532
I5    I     I_    0.882360 0.311478 0.749258 -0.413123
I6    I     I_    0.118079 0.695287 0.245241 -0.418746

loop_
_geom_bond_atom_site_label_1
_geom_bond_atom_site_label_2
_ccdc_geom_bond_type
C14   N2    A    
C21   C26   A    
C4    C36   A    
C57   C58   A    
C11   C13   A    
C66   H30   S    
C59   C60   A    
C64   H28   S    
C1    C33   S    
C39   C41   A    
C50   C51   A    
C11   C19   A    
C33   C39   A    
C34   C40   A    
C23   C29   S    
C35   C37   A    
C47   C48   A    
C1    O3    A    
C52   H18   S    
C2    O4    A    
C65   C66   A    
Cu2   O3    S    
C43   C48   A    
C7    I3    S    
C25   I1    S    
C56   H21   S    
C15   C17   A    
C45   H12   S    
C16   H9    S    
C55   C60   A    
C10   C49   S    
C51   H17   S    
C51   C52   A    
C31   C32   S    
Cu2   O2    S    
C46   C47   A    
C22   C25   A    
C35   H5    S    
C62   H26   S    
C19   C27   A    
C54   H20   S    
C2    C34   S    
C23   O7    A    
C44   C45   A    
C24   O8    A    
C34   C38   A    
C60   H25   S    
C61   C62   A    
C63   C64   A    
C27   H7    S    
Cu1   O8    S    
C12   I6    S    
C65   H29   S    
Cu2   O7    S    
C40   H1    S    
C45   C46   A    
C15   H10   S    
C47   H14   S    
C49   C50   A    
C55   C56   A    
C59   H24   S    
C20   C28   A    
Cu2   O6    S    
C46   H13   S    
C17   C21   A    
C15   N1    A    
Cu1   Cu2   S    
C16   N2    A    
C53   H19   S    
C3    C9    A    
C1    O1    A    
C44   H11   S    
C3    C35   A    
C12   C20   A    
C61   C66   A    
C16   C18   A    
C37   H4    S    
C38   H3    S    
Cu1   O4    S    
C39   H2    S    
C26   I2    S    
C12   C14   A    
C24   C30   S    
C8    I4    S    
C4    C10   A    
C48   H15   S    
C36   H6    S    
Cu1   O5    S    
C33   C37   A    
C7    C9    A    
C5    C41   A    
C3    C41   A    
C24   O6    A    
C18   C22   A    
C53   C54   A    
C49   C54   A    
C5    C8    A    
C2    O2    A    
C6    C7    A    
C25   C27   A    
C64   C65   A    
C26   C28   A    
C58   H23   S    
C36   C38   A    
C29   C31   T    
C30   C32   T    
C28   H8    S    
Cu2   N1    S    
C5    C6    A    
C4    C42   A    
C50   H16   S    
C40   C42   A    
C56   C57   A    
C17   C19   A    
C18   C20   A    
C58   C59   A    
C11   I5    S    
C9    C43   S    
C14   C55   S    
Cu1   O1    S    
C52   C53   A    
Cu1   N2    S    
C23   O5    A    
C8    C10   A    
C43   C44   A    
C6    C42   A    
C62   C63   A    
C63   H27   S    
C13   C61   S    
C21   C22   A    
C57   H22   S    
C13   N1    A    
