data_mof_unit_45471.cif
_audit_creation_date              2012-12-11T16:08:28-0500
_audit_creation_method            fapswitch 2.2
_symmetry_space_group_name_H-M    P1
_symmetry_Int_Tables_number       1
_space_group_crystal_system       triclinic
_cell_length_a                    12.893276
_cell_length_b                    13.303364
_cell_length_c                    27.779456
_cell_angle_alpha                 94.468385
_cell_angle_beta                  90.520239
_cell_angle_gamma                 119.247108
_cell_volume                      4138.69464471

loop_
_atom_site_label
_atom_site_type_symbol
_atom_type_description
_atom_site_fract_x
_atom_site_fract_y
_atom_site_fract_z
_atom_type_partial_charge
C1    C     C_R   0.629032 0.894199 0.427889 0.570132
C2    C     C_R   0.145312 0.731838 0.303615 0.035373
C3    C     C_R   0.131933 0.720420 0.202604 0.027393
C4    C     C_R   0.601359 0.222522 0.440624 0.541638
C5    C     C_R   0.124869 0.626314 0.225379 0.106668
C6    C     C_R   0.129156 0.631134 0.276178 0.110227
C7    C     C_R   0.125100 0.716366 0.152456 -0.107019
C8    C     C_R   0.114164 0.801297 0.129546 -0.018867
C9    C     C_R   0.194141 0.939529 0.358043 -0.132656
C10   C     C_R   0.168155 0.926676 0.308300 0.020960
C11   C     C_R   0.150175 0.825003 0.280688 0.026712
C12   C     C_R   0.690973 0.440155 0.239282 -0.098238
C13   C     C_R   0.168081 0.016746 0.285278 -0.122357
C14   C     C_R   0.153292 0.007675 0.235029 -0.119974
C15   C     C_R   0.141475 0.909758 0.207194 0.021639
C16   C     C_R   0.267425 0.875812 0.426128 0.547674
C17   C     C_R   0.140871 0.818204 0.230175 0.024493
C18   C     C_R   0.126067 0.899802 0.156855 -0.132910
C19   C     C_R   0.200575 0.851203 0.379943 -0.017573
C20   C     C_R   0.762562 0.925925 0.359828 0.076369
C21   C     C_R   0.767654 0.916295 0.309364 0.015832
C22   C     C_R   0.767394 0.906218 0.208404 -0.000655
C23   C     C_R   0.681371 0.423968 0.288785 0.091378
C24   C     C_R   0.862479 0.996767 0.236304 -0.134877
C25   C     C_R   0.864090 0.000510 0.286258 -0.132067
C26   C     C_R   0.770112 0.900392 0.158627 -0.161186
C27   C     C_R   0.685854 0.801855 0.129879 0.033857
C28   C     C_R   0.627792 0.898465 0.564721 0.547395
C29   C     C_R   0.567325 0.750713 0.353910 0.059097
C30   C     C_R   0.574675 0.737833 0.303669 0.043576
C31   C     C_R   0.671480 0.823955 0.281230 0.012899
C32   C     C_R   0.483154 0.643698 0.275017 -0.118866
C33   C     C_R   0.485485 0.636408 0.224869 -0.154270
C34   C     C_R   0.675758 0.323504 0.304753 0.094096
C35   C     C_R   0.579569 0.723044 0.201807 0.020068
C36   C     C_R   0.672603 0.817605 0.230453 0.039369
C37   C     C_R   0.586155 0.715327 0.150962 0.082036
C38   C     C_R   0.655745 0.852317 0.381239 0.045887
C39   C     C_R   0.763301 0.343727 0.645850 0.094372
C40   C     C_R   0.605995 0.231733 0.577026 0.540871
C41   C     C_R   0.778452 0.371415 0.697034 0.055381
C42   C     C_R   0.796942 0.424672 0.798580 -0.027513
C43   C     C_R   0.887757 0.415639 0.775127 -0.093421
C44   C     C_R   0.880381 0.389308 0.725149 0.101409
C45   C     C_R   0.693992 0.357235 0.205917 -0.008389
C46   C     C_R   0.807302 0.452015 0.848453 -0.157243
C47   C     C_R   0.718086 0.463697 0.872375 0.005399
C48   C     C_R   0.565126 0.322771 0.647449 -0.155679
C49   C     C_R   0.579547 0.353709 0.696197 -0.032412
C50   C     C_R   0.684244 0.376076 0.721787 0.007894
C51   C     C_R   0.483435 0.349999 0.719861 -0.070195
C52   C     C_R   0.272635 0.879647 0.563646 0.546995
C53   C     C_R   0.489153 0.370959 0.769392 0.120057
C54   C     C_R   0.598428 0.406687 0.796030 0.056990
C55   C     C_R   0.693424 0.402713 0.772177 0.012563
C56   C     C_1   0.699922 0.374708 0.155255 -0.053755
C57   C     C_R   0.616438 0.449647 0.844997 0.094777
C58   C     C_R   0.649637 0.305353 0.622994 0.006527
C59   C     C_1   0.226149 0.863791 0.610889 -0.016535
C60   C     C_R   0.118116 0.740748 0.721257 -0.138247
C61   C     C_R   0.105608 0.731972 0.770813 -0.139127
C62   C     C_R   0.218780 0.941173 0.786454 0.149858
C63   C     C_R   0.232328 0.950504 0.736309 0.111069
C64   C     C_1   0.634764 0.271495 0.395296 -0.000135
C65   C     C_R   0.181037 0.849329 0.703659 0.012571
C66   C     C_R   0.155567 0.831317 0.803541 0.053047
C67   C     C_1   0.656425 0.300242 0.354847 0.005320
C68   C     C_1   0.132961 0.818084 0.854100 0.000051
C69   C     C_1   0.200547 0.855578 0.652611 -0.064367
C70   C     C_1   0.104746 0.799591 0.895127 0.000537
C71   C     C_1   0.647830 0.859985 0.608824 -0.007270
C72   C     C_R   0.782173 0.834229 0.716605 -0.094098
C73   C     C_R   0.795800 0.821824 0.765665 0.095545
C74   C     C_R   0.582988 0.750319 0.773718 0.087606
C75   C     C_R   0.571381 0.763386 0.724585 -0.093548
C76   C     C_R   0.681473 0.240936 0.271270 0.088144
C77   C     C_R   0.670789 0.806475 0.696356 -0.005689
C78   C     C_1   0.706047 0.398125 0.113925 -0.009558
C79   C     C_R   0.696011 0.780990 0.794392 0.094524
C80   C     C_1   0.710468 0.772156 0.845214 -0.012766
C81   C     C_1   0.659900 0.832743 0.647954 -0.053685
C82   C     C_1   0.725203 0.764849 0.887414 -0.023352
C83   C     C_R   0.062901 0.770911 0.079872 0.548521
C84   C     C_R   0.717248 0.441370 0.067429 0.558503
C85   C     C_R   0.720398 0.781951 0.081301 0.580917
C86   C     C_R   0.056720 0.766373 0.941315 0.529994
C87   C     C_R   0.731759 0.489860 0.925449 0.533987
C88   C     C_R   0.690426 0.258620 0.221864 -0.103421
C89   C     C_R   0.165072 0.744450 0.353581 -0.103884
C90   C     C_R   0.748275 0.755631 0.936977 0.531703
Cr1   Cr    Cr6+3 0.416430 0.829200 0.492370 1.017855
Cr2   Cr    Cr6+3 0.674630 0.087020 0.504170 1.047372
Cr3   Cr    Cr6+3 0.408920 0.083740 0.503490 1.024618
Cr4   Cr    Cr6+3 0.914010 0.832750 0.013970 1.024275
Cr5   Cr    Cr6+3 0.922310 0.578600 0.003000 1.027458
Cr6   Cr    Cr6+3 0.656280 0.574630 0.003870 1.046892
H1    H     H_    0.180826 0.094672 0.306087 0.101699
H2    H     H_    0.218630 0.021249 0.378728 0.128012
H3    H     H_    0.845576 0.968819 0.142681 0.137090
H4    H     H_    0.881351 0.094614 0.381125 0.231946
H5    H     H_    0.937017 0.001726 0.382737 0.224484
H6    H     H_    0.939912 0.072052 0.306267 0.104335
H7    H     H_    0.413854 0.616581 0.125973 0.228879
H8    H     H_    0.490181 0.542856 0.130695 0.234152
H9    H     H_    0.408001 0.575644 0.291090 0.147313
H10   H     H_    0.693535 0.195189 0.195842 0.116249
H11   H     H_    0.404820 0.686902 0.382982 0.271942
H12   H     H_    0.936855 0.064057 0.219434 0.102692
H13   H     H_    0.498260 0.644555 0.408011 0.242728
H14   H     H_    0.886296 0.465786 0.868620 0.139773
H15   H     H_    0.923619 0.453252 0.623115 0.209772
H16   H     H_    0.841630 0.352495 0.580597 0.244346
H17   H     H_    0.965633 0.428527 0.795914 0.134709
H18   H     H_    0.937950 0.292955 0.685023 0.275946
H19   H     H_    0.026245 0.440644 0.684849 0.240218
H20   H     H_    0.566419 0.538264 0.896002 0.273046
H21   H     H_    0.533744 0.543972 0.840966 0.239618
H22   H     H_    0.370098 0.415698 0.798112 0.259557
H23   H     H_    0.412800 0.562242 0.204580 0.105111
H24   H     H_    0.372379 0.301470 0.822697 0.271813
H25   H     H_    0.481086 0.301991 0.629403 0.142731
H26   H     H_    0.079432 0.662553 0.696644 0.121217
H27   H     H_    0.056025 0.647370 0.783753 0.126265
H28   H     H_    0.358755 0.090692 0.815777 0.258068
H29   H     H_    0.228511 0.092391 0.811070 0.253728
H30   H     H_    0.243094 0.073706 0.694991 0.233949
H31   H     H_    0.370116 0.066321 0.700728 0.240835
H32   H     H_    0.858841 0.868327 0.694529 0.115919
H33   H     H_    0.973171 0.875660 0.760054 0.233894
H34   H     H_    0.400130 0.324462 0.699939 0.137931
H35   H     H_    0.938051 0.924936 0.811097 0.238013
H36   H     H_    0.492092 0.776202 0.827439 0.241606
H37   H     H_    0.403601 0.682736 0.781581 0.230908
H38   H     H_    0.589557 0.471479 0.334772 0.235495
H39   H     H_    0.690200 0.580981 0.305768 0.236382
H40   H     H_    0.117582 0.641201 0.131132 0.184202
H41   H     H_    0.165672 0.675172 0.371430 0.175955
H42   H     H_    0.032758 0.453655 0.204819 0.235560
H43   H     H_    0.183457 0.513219 0.205467 0.223548
H44   H     H_    0.038192 0.462163 0.289469 0.234525
H45   H     H_    0.694249 0.516673 0.226603 0.119512
H46   H     H_    0.188509 0.519364 0.289724 0.225614
H47   H     H_    0.117747 0.965656 0.139251 0.123670
H48   H     H_    0.485474 0.742994 0.708643 0.117520
H49   H     H_    0.673738 0.083217 0.258221 0.236223
H50   H     H_    0.753446 0.163504 0.308405 0.227618
H51   H     H_    0.153008 0.077975 0.217887 0.099732
N1    N     N_3   0.675182 0.138178 0.287581 -0.620854
N2    N     N_3   0.298453 0.062896 0.719304 -0.630672
N3    N     N_3   0.910688 0.851666 0.786628 -0.624635
N4    N     N_3   0.481089 0.707602 0.802884 -0.645900
N5    N     N_3   0.676096 0.508286 0.322820 -0.621293
N6    N     N_3   0.111842 0.525742 0.196714 -0.659724
N7    N     N_3   0.119867 0.535373 0.300127 -0.656615
N8    N     N_3   0.863297 0.012583 0.389599 -0.601755
N9    N     N_3   0.495346 0.619295 0.120724 -0.600457
N10   N     N_3   0.468408 0.661269 0.376066 -0.650527
N11   N     N_3   0.863771 0.364485 0.617546 -0.628676
N12   N     N_3   0.974153 0.373025 0.705555 -0.631228
N13   N     N_3   0.535391 0.486436 0.864074 -0.619945
N14   N     N_3   0.378568 0.341837 0.791222 -0.625101
N15   N     N_3   0.267172 0.042712 0.820029 -0.611956
O1    O     O_R   0.296680 0.802170 0.437540 -0.528520
O2    O     O_R   0.637200 0.461990 0.052510 -0.497523
O3    O     O_R   0.664790 0.681920 0.057970 -0.450659
O4    O     O_R   0.525380 0.838530 0.443500 -0.519265
O5    O     O_R   0.815840 0.852920 0.961840 -0.486618
O6    O     O_R   0.012100 0.822630 0.963670 -0.505106
O7    O     O_R   0.037010 0.668460 0.953040 -0.518549
O8    O     O_R   0.813390 0.478970 0.949660 -0.494897
O9    O     O_R   0.632250 0.456930 0.945520 -0.496986
O10   O     O_R   0.660200 0.677230 0.958780 -0.523274
O11   O     O_3   0.830870 0.661990 0.006950 -0.293426
O12   O     O_R   0.662610 0.183990 0.557860 -0.491037
O13   O     O_R   0.702130 0.995190 0.446810 -0.471934
O14   O     O_R   0.661770 0.181390 0.458760 -0.497998
O15   O     O_R   0.499820 0.198480 0.455280 -0.510658
O16   O     O_R   0.311660 0.976250 0.449080 -0.497353
O17   O     O_R   0.297580 0.804960 0.544440 -0.506101
O18   O     O_R   0.526220 0.841130 0.542590 -0.497713
O19   O     O_R   0.703030 0.997990 0.553710 -0.498311
O20   O     O_R   0.500730 0.201280 0.562180 -0.526068
O21   O     O_R   0.312500 0.978850 0.548170 -0.494665
O22   O     O_3   0.499990 0.999990 0.500010 -0.245195
O23   O     O_R   0.820790 0.857990 0.068830 -0.529304
O24   O     O_R   0.016700 0.827330 0.062850 -0.497523
O25   O     O_R   0.041970 0.673520 0.060040 -0.515821
O26   O     O_R   0.817980 0.483660 0.048840 -0.484772

loop_
_geom_bond_atom_site_label_1
_geom_bond_atom_site_label_2
_ccdc_geom_bond_type
C20   C38   A    
C15   C18   A    
C66   C68   S    
C23   N5    S    
C63   C65   A    
H22   N14   S    
C9    H2    S    
C20   N8    S    
C90   O5    A    
C86   O7    A    
Cr1   O4    S    
H29   N15   S    
H37   N4    S    
Cr4   O23   S    
C4    O15   A    
C43   C44   A    
H13   N10   S    
Cr5   O25   S    
C7    C8    A    
C39   C41   A    
C62   N15   S    
C53   C54   A    
Cr2   O14   S    
C21   C31   A    
C12   C23   A    
C26   C27   A    
C72   C77   A    
H16   N11   S    
C72   H32   S    
C18   H47   S    
C35   C37   A    
H15   N11   S    
H20   N13   S    
C3    C7    A    
Cr2   O19   S    
C5    C6    A    
C73   N3    S    
H30   N2    S    
C5    N6    S    
C25   H6    S    
H5    N8    S    
H36   N4    S    
H39   N5    S    
C8    C83   S    
C56   C78   T    
C12   H45   S    
C42   C46   A    
C27   C85   S    
C63   N2    S    
C33   C35   A    
C46   C47   A    
C61   C66   A    
C9    C19   A    
C11   C17   A    
C35   C36   A    
C45   C56   S    
C49   C51   A    
Cr6   O9    S    
Cr1   O17   S    
C29   C38   A    
C52   O21   A    
C83   O24   A    
C24   H12   S    
C29   C30   A    
C9    C10   A    
C76   C88   A    
H28   N15   S    
C75   H48   S    
C84   O2    A    
C26   H3    S    
H38   N5    S    
Cr2   O13   S    
Cr1   O22   S    
Cr6   O11   S    
H21   N13   S    
C37   N9    S    
Cr1   O1    S    
C2    C6    A    
C2    C11   A    
H11   N10   S    
C51   H34   S    
C16   O16   A    
Cr5   O26   S    
H50   N1    S    
C16   O1    A    
C85   O23   A    
C40   C58   S    
C74   C75   A    
C62   C66   A    
C4    O14   A    
C64   C67   T    
C45   C88   A    
C86   O6    A    
C24   C25   A    
C80   C82   T    
Cr2   O22   S    
Cr4   O6    S    
C48   H25   S    
Cr3   O15   S    
C72   C73   A    
C29   N10   S    
Cr2   O12   S    
C87   O8    A    
C14   H51   S    
C8    C18   A    
Cr6   O2    S    
H19   N12   S    
C60   C61   A    
C51   C53   A    
C47   C87   S    
C34   C67   S    
C2    C89   A    
C28   O19   A    
Cr5   O7    S    
C62   C63   A    
C19   C89   A    
C52   C59   S    
C42   C55   A    
C47   C57   A    
C88   H10   S    
Cr3   O20   S    
H44   N7    S    
C77   C81   S    
C23   C34   A    
C87   O9    A    
Cr1   O18   S    
C73   C79   A    
H8    N9    S    
C60   H26   S    
C28   O18   A    
C76   N1    S    
C6    N7    S    
C1    C38   S    
C59   C69   T    
H24   N14   S    
H4    N8    S    
C48   C49   A    
C83   O25   A    
C57   N13   S    
C60   C65   A    
C33   H23   S    
C89   H41   S    
C74   C79   A    
C46   H14   S    
C39   N11   S    
C22   C26   A    
C41   C44   A    
C22   C24   A    
C74   N4    S    
C84   O26   A    
C28   C71   S    
C42   C43   A    
C70   C86   S    
C41   C50   A    
H49   N1    S    
H42   N6    S    
C15   C17   A    
C21   C25   A    
C54   C55   A    
C1    O13   A    
C31   C36   A    
Cr4   O24   S    
C12   C45   A    
C3    C5    A    
C10   C13   A    
Cr4   O5    S    
Cr3   O16   S    
C40   O20   A    
C48   C58   A    
C22   C36   A    
C4    C64   S    
C50   C55   A    
C82   C90   S    
C61   H27   S    
C32   H9    S    
C85   O3    A    
C32   C33   A    
Cr5   O11   S    
C52   O17   A    
C7    H40   S    
H31   N2    S    
C30   C32   A    
Cr3   O21   S    
C53   N14   S    
C30   C31   A    
C1    O4    A    
C27   C37   A    
C16   C19   S    
C65   C69   S    
C39   C58   A    
Cr3   O22   S    
C3    C17   A    
C13   H1    S    
Cr5   O8    S    
H18   N12   S    
C10   C11   A    
Cr4   O11   S    
C79   C80   S    
C78   C84   S    
H7    N9    S    
H33   N3    S    
C20   C21   A    
C40   O12   A    
C68   C70   T    
C49   C50   A    
Cr6   O10   S    
C75   C77   A    
C90   O10   A    
C44   N12   S    
H43   N6    S    
C14   C15   A    
H35   N3    S    
Cr6   O3    S    
H46   N7    S    
C13   C14   A    
C43   H17   S    
C34   C76   A    
C71   C81   T    
C54   C57   A    
