data_mof_unit_59389.cif
_audit_creation_date              2012-10-26T21:11:06-0400
_audit_creation_method            fapswitch 2.2
_symmetry_space_group_name_H-M    P1
_symmetry_Int_Tables_number       1
_space_group_crystal_system       triclinic
_cell_length_a                    10.943559
_cell_length_b                    10.970967
_cell_length_c                    13.096375
_cell_angle_alpha                 91.696982
_cell_angle_beta                  90.596565
_cell_angle_gamma                 90.034837
_cell_volume                      1571.59397984

loop_
_atom_site_label
_atom_site_type_symbol
_atom_type_description
_atom_site_fract_x
_atom_site_fract_y
_atom_site_fract_z
_atom_type_partial_charge
C1    C     C_R   0.499007 0.259372 0.498563 0.610560
C2    C     C_R   0.619660 0.853319 0.739533 0.420560
C3    C     C_R   0.492436 0.109498 0.301703 0.005392
C4    C     C_R   0.507587 0.890500 0.698300 0.005452
C5    C     C_R   0.594906 0.099469 0.238452 0.404591
C6    C     C_R   0.405147 0.900571 0.761580 0.404652
C7    C     C_R   0.585041 0.120270 0.133414 0.124261
C8    C     C_R   0.415044 0.879765 0.866616 0.124267
C9    C     C_R   0.471213 0.156552 0.091605 0.009537
C10   C     C_R   0.528871 0.843433 0.908392 0.009642
C11   C     C_R   0.498498 0.931052 0.408780 0.403838
C12   C     C_R   0.500994 0.740628 0.501437 0.610599
C13   C     C_R   0.501498 0.068947 0.591221 0.403871
C14   C     C_R   0.501358 0.872956 0.502984 -0.024476
C15   C     C_R   0.498644 0.127044 0.497018 -0.024497
C16   C     C_R   0.259456 0.502732 0.499418 0.603960
C17   C     C_R   0.740544 0.497262 0.500582 0.603945
C18   C     C_R   0.502840 0.942733 0.595208 0.020695
C19   C     C_R   0.497165 0.057266 0.404794 0.020713
C20   C     C_1   0.500112 0.499846 0.173510 0.188506
C21   C     C_1   0.499888 0.500155 0.826490 0.188486
C22   C     C_1   0.500096 0.499799 0.050693 0.030521
C23   C     C_R   0.872937 0.496912 0.501599 -0.032648
C24   C     C_1   0.499904 0.500202 0.949307 0.030471
C25   C     C_R   0.217615 0.709810 0.207400 0.442086
C26   C     C_R   0.782194 0.290342 0.792620 0.441926
C27   C     C_R   0.170414 0.675884 0.301098 -0.137281
C28   C     C_R   0.829396 0.324228 0.698910 -0.137234
C29   C     C_R   0.117766 0.560339 0.311119 -0.015946
C30   C     C_R   0.882237 0.439698 0.688901 -0.015983
C31   C     C_R   0.113577 0.478506 0.226465 0.462672
C32   C     C_R   0.886625 0.521492 0.773583 0.462861
C33   C     C_R   0.160162 0.512374 0.131927 0.070769
C34   C     C_R   0.127064 0.503068 0.498401 -0.032616
C35   C     C_R   0.840037 0.487663 0.868130 0.071014
C36   C     C_R   0.211920 0.629049 0.122782 0.347166
C37   C     C_R   0.788079 0.371066 0.877262 0.347018
C38   C     C_R   0.933471 0.524372 0.411130 0.406684
C39   C     C_R   0.066531 0.475601 0.588868 0.406747
C40   C     C_R   0.939950 0.472204 0.591394 -0.008577
C41   C     C_R   0.060051 0.527783 0.408610 -0.008550
C42   C     C_R   0.369811 0.170599 0.156538 0.419835
C43   C     C_R   0.630234 0.829325 0.843429 0.419748
C44   C     C_R   0.380358 0.146619 0.260437 0.420686
Cu1   Cu    Cu3+1 0.499990 0.499990 0.592680 1.141927
Cu2   Cu    Cu3+1 0.500010 0.500010 0.407320 1.141911
F1    F     F_    0.256106 0.664713 0.032041 -0.612189
F2    F     F_    0.937142 0.633724 0.764365 -0.481084
F3    F     F_    0.869535 0.551750 0.325055 -0.565411
F4    F     F_    0.130471 0.448213 0.674939 -0.565364
F5    F     F_    0.258863 0.202194 0.118582 -0.521448
F6    F     F_    0.741167 0.797636 0.881346 -0.521552
F7    F     F_    0.279656 0.153654 0.320025 -0.519087
F8    F     F_    0.720333 0.846227 0.679916 -0.519269
F9    F     F_    0.743903 0.335434 0.968016 -0.612273
F10   F     F_    0.703317 0.061860 0.278032 -0.539832
F11   F     F_    0.296738 0.938225 0.722031 -0.539806
F12   F     F_    0.495709 0.865113 0.318989 -0.553164
F13   F     F_    0.504275 0.134888 0.681011 -0.553005
F14   F     F_    0.267525 0.822075 0.198333 -0.530044
F15   F     F_    0.732105 0.178143 0.801675 -0.530158
F16   F     F_    0.063257 0.366198 0.235703 -0.481131
H1    H     H_    0.173621 0.739909 0.365654 0.181638
H2    H     H_    0.938304 0.587932 0.971276 0.276348
H3    H     H_    0.369246 0.198727 0.964241 0.299924
H4    H     H_    0.513131 0.249575 0.965984 0.287587
H5    H     H_    0.630878 0.801260 0.035737 0.299950
H6    H     H_    0.486981 0.750432 0.034032 0.287496
H7    H     H_    0.826039 0.260226 0.634334 0.181583
H8    H     H_    0.670242 0.107254 0.993611 0.321576
H9    H     H_    0.719862 0.010709 0.080017 0.293766
H10   H     H_    0.329919 0.892836 0.006443 0.321560
H11   H     H_    0.280277 0.989369 0.920038 0.293791
H12   H     H_    0.193881 0.463420 0.982011 0.284189
H13   H     H_    0.062168 0.411762 0.028840 0.276582
H14   H     H_    0.806390 0.536667 0.018049 0.284234
N1    N     N_1   0.500030 0.500030 0.268070 -0.165332
N2    N     N_1   0.499970 0.499970 0.731930 -0.165314
N3    N     N_3   0.691254 0.100695 0.071107 -0.409587
N4    N     N_3   0.308868 0.899381 0.928954 -0.409502
N5    N     N_3   0.154324 0.427033 0.046681 -0.468721
N6    N     N_3   0.846101 0.572959 0.953403 -0.468365
N7    N     N_3   0.458766 0.175111 0.983712 -0.570813
N8    N     N_3   0.541353 0.824882 0.016285 -0.570905
O1    O     O_R   0.499980 0.319630 0.578260 -0.423959
O2    O     O_R   0.500020 0.680370 0.421740 -0.423984
O3    O     O_R   0.500000 0.319650 0.421740 -0.530428
O4    O     O_R   0.500000 0.680350 0.578260 -0.530417
O5    O     O_R   0.319630 0.500000 0.578260 -0.417541
O6    O     O_R   0.680370 0.500000 0.421740 -0.417532
O7    O     O_R   0.319650 0.500020 0.421740 -0.531374
O8    O     O_R   0.680350 0.499980 0.578260 -0.531391

loop_
_geom_bond_atom_site_label_1
_geom_bond_atom_site_label_2
_ccdc_geom_bond_type
C1    O3    A    
C27   C29   A    
C14   C18   A    
C5    F10   S    
Cu1   O1    S    
C28   H7    S    
C31   F16   S    
H9    N3    S    
C38   F3    S    
Cu1   Cu2   S    
C15   C19   A    
C17   O8    A    
C11   C19   A    
C9    C42   A    
C17   C23   S    
C20   N1    T    
C35   C37   A    
C26   F15   S    
C11   C14   A    
C43   F6    S    
H3    N7    S    
C23   C40   A    
C33   C36   A    
C36   F1    S    
Cu1   O8    S    
C16   C34   S    
H4    N7    S    
C44   F7    S    
C21   N2    T    
C31   C33   A    
C3    C19   S    
Cu1   N2    S    
C1    C15   S    
C25   F14   S    
C11   F12   S    
Cu1   O5    S    
C42   F5    S    
C4    C18   S    
H8    N3    S    
H5    N8    S    
C32   F2    S    
C6    F11   S    
C34   C41   A    
C42   C44   A    
C35   N6    S    
C1    O1    A    
C3    C44   A    
C12   O4    A    
C34   C39   A    
H6    N8    S    
C32   C35   A    
Cu1   O4    S    
C38   C41   A    
C4    C6    A    
C2    F8    S    
H14   N6    S    
C39   C40   A    
C5    C7    A    
H13   N5    S    
C6    C8    A    
Cu2   O7    S    
H10   N4    S    
C2    C4    A    
C2    C43   A    
C30   C40   S    
H2    N6    S    
C27   H1    S    
C9    N7    S    
Cu2   O6    S    
C13   C18   A    
C20   C22   S    
C13   C15   A    
C22   C24   T    
H12   N5    S    
C7    N3    S    
Cu2   O3    S    
C7    C9    A    
C29   C41   S    
C10   C43   A    
C17   O6    A    
C12   C14   S    
C3    C5    A    
Cu2   N1    S    
C26   C37   A    
C13   F13   S    
C25   C27   A    
C23   C38   A    
C26   C28   A    
C12   O2    A    
C28   C30   A    
C29   C31   A    
C30   C32   A    
C10   N8    S    
H11   N4    S    
C25   C36   A    
C37   F9    S    
C16   O5    A    
C39   F4    S    
C16   O7    A    
C8    C10   A    
C21   C24   S    
C8    N4    S    
C33   N5    S    
Cu2   O2    S    
