data_mof_unit_25401.cif
_audit_creation_date              2012-12-11T16:12:53-0500
_audit_creation_method            fapswitch 2.2
_symmetry_space_group_name_H-M    P1
_symmetry_Int_Tables_number       1
_space_group_crystal_system       monoclinic
_cell_length_a                    7.088998
_cell_length_b                    20.584489
_cell_length_c                    24.230129
_cell_angle_alpha                 90.0
_cell_angle_beta                  90.660875
_cell_angle_gamma                 90.0
_cell_volume                      3535.50763784

loop_
_atom_site_label
_atom_site_type_symbol
_atom_type_description
_atom_site_fract_x
_atom_site_fract_y
_atom_site_fract_z
_atom_type_partial_charge
O1    O     O_R   0.615270 0.806540 0.192260 -0.534076
O2    O     O_R   0.384730 0.193460 0.807740 -0.534544
O3    O     O_R   0.384730 0.193460 0.692260 -0.535035
O4    O     O_R   0.615270 0.806540 0.307740 -0.534143
O5    O     O_R   0.115270 0.693460 0.307740 -0.535035
O6    O     O_R   0.884730 0.306540 0.692260 -0.534143
O7    O     O_R   0.884730 0.306540 0.807740 -0.534076
O8    O     O_R   0.115270 0.693460 0.192260 -0.534545
O9    O     O_R   0.285500 0.813970 0.307340 -0.537188
O10   O     O_R   0.714500 0.186030 0.692660 -0.536314
O11   O     O_R   0.714500 0.186030 0.807340 -0.537508
O12   O     O_R   0.285500 0.813970 0.192660 -0.537517
O13   O     O_R   0.785500 0.686030 0.192660 -0.537508
O14   O     O_R   0.214500 0.313970 0.807340 -0.537517
O15   O     O_R   0.214500 0.313970 0.692660 -0.537188
O16   O     O_R   0.785500 0.686030 0.307340 -0.536314
C1    C     C_R   0.454321 0.829013 0.326372 0.727211
C2    C     C_R   0.545223 0.170040 0.674462 0.725716
C3    C     C_R   0.546836 0.170475 0.825909 0.725145
C4    C     C_R   0.453426 0.829005 0.173575 0.723803
C5    C     C_R   0.953163 0.670475 0.174091 0.725145
C6    C     C_R   0.046574 0.329005 0.826424 0.723802
C7    C     C_R   0.045679 0.329013 0.673628 0.727211
C8    C     C_R   0.954777 0.670040 0.325538 0.725716
O17   O     O_3   0.448760 0.710460 0.250000 -0.369831
O18   O     O_3   0.551240 0.289540 0.750000 -0.370276
O19   O     O_3   0.948760 0.789540 0.250000 -0.370277
O20   O     O_3   0.051240 0.210460 0.750000 -0.369831
V1    V     V_3+5 0.173900 0.757330 0.250000 1.389732
V2    V     V_3+5 0.826100 0.242670 0.750000 1.393058
V3    V     V_3+5 0.673900 0.742670 0.250000 1.393058
V4    V     V_3+5 0.326100 0.257330 0.750000 1.389733
C9    C     C_3   0.124191 0.522967 0.534366 -0.017462
C10   C     C_3   0.900055 0.467276 0.456720 -0.027608
C11   C     C_3   0.905178 0.468168 0.044118 0.004325
C12   C     C_3   0.078796 0.526954 0.959786 -0.030220
C13   C     C_3   0.594821 0.968167 0.955882 0.004325
C14   C     C_3   0.421204 0.026954 0.040214 -0.030221
C15   C     C_3   0.375809 0.022967 0.465633 -0.017462
C16   C     C_3   0.599945 0.967277 0.543280 -0.027608
C17   C     C_3   0.939488 0.552507 0.509860 -0.029558
C18   C     C_3   0.083606 0.436986 0.481707 -0.014063
C19   C     C_3   0.089439 0.443958 0.016189 -0.027495
C20   C     C_3   0.895958 0.551752 0.987728 -0.011729
C21   C     C_3   0.410560 0.943958 0.983811 -0.027495
C22   C     C_3   0.604042 0.051751 0.012272 -0.011729
C23   C     C_3   0.560512 0.052507 0.490140 -0.029559
C24   C     C_3   0.416394 0.936986 0.518293 -0.014065
C25   C     C_1   0.966261 0.621333 0.368534 -0.219881
C26   C     C_1   0.037366 0.374498 0.627918 -0.223087
C27   C     C_1   0.037190 0.374509 0.872114 -0.212128
C28   C     C_1   0.960052 0.623275 0.129868 -0.215998
C29   C     C_1   0.462810 0.874508 0.127886 -0.212128
C30   C     C_1   0.539948 0.123274 0.870132 -0.215998
C31   C     C_1   0.533739 0.121333 0.631465 -0.219882
C32   C     C_1   0.462634 0.874498 0.372082 -0.223088
C33   C     C_3   0.183098 0.503860 0.475237 0.476964
C34   C     C_3   0.839876 0.485945 0.515736 0.476636
C35   C     C_3   0.816637 0.481236 0.986277 0.496346
C36   C     C_3   0.166330 0.514376 0.017311 0.478383
C37   C     C_3   0.683363 0.981235 0.013723 0.496346
C38   C     C_3   0.333670 0.014375 0.982689 0.478383
C39   C     C_3   0.316902 0.003860 0.524763 0.476963
C40   C     C_3   0.660124 0.985945 0.484263 0.476636
C41   C     C_3   0.999993 0.533684 0.450719 -0.065656
C42   C     C_3   0.022275 0.456494 0.540877 -0.064398
C43   C     C_3   0.000315 0.456822 0.958413 -0.086250
C44   C     C_3   0.984749 0.538353 0.045420 -0.077398
C45   C     C_3   0.499685 0.956821 0.041586 -0.086250
C46   C     C_3   0.515250 0.038352 0.954580 -0.077398
C47   C     C_3   0.500007 0.033685 0.549281 -0.065654
C48   C     C_3   0.477725 0.956494 0.459122 -0.064397
C49   C     C_1   0.979787 0.580930 0.404809 -0.051140
C50   C     C_1   0.031365 0.411904 0.589137 -0.053852
C51   C     C_1   0.022692 0.411826 0.910728 -0.045949
C52   C     C_1   0.969146 0.584339 0.092397 -0.046680
C53   C     C_1   0.477308 0.911826 0.089272 -0.045950
C54   C     C_1   0.530853 0.084339 0.907603 -0.046680
C55   C     C_1   0.520213 0.080930 0.595191 -0.051139
C56   C     C_1   0.468635 0.911904 0.410863 -0.053852
C57   C     C_3   0.855429 0.619476 0.523045 -0.309853
C58   C     C_3   0.807078 0.627701 0.584036 -0.293451
C59   C     C_3   0.682000 0.687230 0.592684 -0.818925
H1    H     H_    0.750959 0.731485 0.576155 0.232114
H2    H     H_    0.543505 0.680488 0.571545 0.232405
H3    H     H_    0.657529 0.694410 0.637443 0.223467
H4    H     H_    0.733794 0.583686 0.598966 0.219927
H5    H     H_    0.937603 0.634076 0.609042 0.197692
H6    H     H_    0.957624 0.657699 0.510952 0.152037
H7    H     H_    0.726160 0.626125 0.497607 0.182682
C60   C     C_3   0.150165 0.367238 0.469156 -0.347277
C61   C     C_3   0.315540 0.364220 0.429450 -0.261480
C62   C     C_3   0.345273 0.295171 0.408213 -0.833358
H8    H     H_    0.371490 0.261348 0.443202 0.228170
H9    H     H_    0.219282 0.278594 0.384429 0.239734
H10   H     H_    0.468905 0.293975 0.380628 0.227628
H11   H     H_    0.295216 0.397540 0.393948 0.206434
H12   H     H_    0.443174 0.379643 0.452293 0.214835
H13   H     H_    0.194652 0.343090 0.508165 0.165040
H14   H     H_    0.029479 0.338756 0.452502 0.179750
C63   C     C_3   0.203123 0.380905 0.025868 -0.318203
C64   C     C_3   0.217754 0.358989 0.086220 -0.323511
C65   C     C_3   0.364889 0.305332 0.093374 -0.791021
H15   H     H_    0.325023 0.262181 0.068267 0.224823
H16   H     H_    0.505755 0.322571 0.080400 0.233071
H17   H     H_    0.373442 0.290593 0.137412 0.221120
H18   H     H_    0.253729 0.400625 0.113358 0.208914
H19   H     H_    0.081088 0.338510 0.099480 0.193284
H20   H     H_    0.135741 0.340916 0.001962 0.163618
H21   H     H_    0.346333 0.388233 0.009091 0.224333
C66   C     C_3   0.812194 0.618581 0.972961 -0.325194
C67   C     C_3   0.648289 0.614260 0.931837 -0.286191
C68   C     C_3   0.584543 0.681793 0.913315 -0.834989
H22   H     H_    0.534830 0.710368 0.949233 0.231545
H23   H     H_    0.702637 0.708032 0.893419 0.235778
H24   H     H_    0.466990 0.677476 0.882908 0.227238
H25   H     H_    0.686157 0.585040 0.895225 0.187288
H26   H     H_    0.530829 0.589510 0.952345 0.252895
H27   H     H_    0.764065 0.643373 0.010804 0.165651
H28   H     H_    0.925314 0.649927 0.956200 0.168188
C69   C     C_3   0.296877 0.880904 0.974132 -0.318202
C70   C     C_3   0.282245 0.858989 0.913780 -0.323511
C71   C     C_3   0.135110 0.805331 0.906626 -0.791022
H29   H     H_    0.174977 0.762180 0.931733 0.224823
H30   H     H_    0.994245 0.822571 0.919600 0.233072
H31   H     H_    0.126557 0.790592 0.862588 0.221120
H32   H     H_    0.246270 0.900625 0.886641 0.208913
H33   H     H_    0.418911 0.838509 0.900520 0.193284
H34   H     H_    0.364259 0.840916 0.998038 0.163617
H35   H     H_    0.153667 0.888233 0.990909 0.224333
C72   C     C_3   0.687806 0.118581 0.027038 -0.325195
C73   C     C_3   0.851711 0.114260 0.068163 -0.286191
C74   C     C_3   0.915457 0.181793 0.086684 -0.834987
H36   H     H_    0.965170 0.210368 0.050767 0.231545
H37   H     H_    0.797362 0.208031 0.106581 0.235777
H38   H     H_    0.033010 0.177476 0.117092 0.227237
H39   H     H_    0.813843 0.085039 0.104775 0.187287
H40   H     H_    0.969171 0.089509 0.047655 0.252895
H41   H     H_    0.735936 0.143372 0.989196 0.165651
H42   H     H_    0.574686 0.149927 0.043800 0.168188
C75   C     C_3   0.644571 0.119476 0.476955 -0.309852
C76   C     C_3   0.692922 0.127701 0.415963 -0.293450
C77   C     C_3   0.818000 0.187230 0.407316 -0.818925
H43   H     H_    0.749041 0.231485 0.423844 0.232114
H44   H     H_    0.956495 0.180488 0.428455 0.232406
H45   H     H_    0.842470 0.194410 0.362556 0.223468
H46   H     H_    0.766206 0.083686 0.401034 0.219926
H47   H     H_    0.562397 0.134076 0.390958 0.197692
H48   H     H_    0.542377 0.157699 0.489048 0.152036
H49   H     H_    0.773840 0.126125 0.502393 0.182682
C78   C     C_3   0.349835 0.867238 0.530844 -0.347276
C79   C     C_3   0.184459 0.864220 0.570551 -0.261479
C80   C     C_3   0.154725 0.795172 0.591787 -0.833356
H50   H     H_    0.128507 0.761348 0.556799 0.228169
H51   H     H_    0.280716 0.778594 0.615571 0.239735
H52   H     H_    0.031092 0.793976 0.619373 0.227629
H53   H     H_    0.204783 0.897541 0.606052 0.206434
H54   H     H_    0.056826 0.879643 0.547707 0.214835
H55   H     H_    0.305348 0.843090 0.491835 0.165039
H56   H     H_    0.470520 0.838756 0.547499 0.179751
C81   C     C_3   0.256401 0.560069 0.573985 -0.327690
C82   C     C_3   0.241812 0.536835 0.633735 -0.292899
C83   C     C_3   0.350996 0.581355 0.672836 -0.809545
H57   H     H_    0.497196 0.588101 0.658767 0.242153
H58   H     H_    0.280348 0.629371 0.675903 0.233546
H59   H     H_    0.359775 0.558609 0.714058 0.227390
H60   H     H_    0.091856 0.535268 0.646561 0.196825
H61   H     H_    0.302688 0.487246 0.637128 0.209878
H62   H     H_    0.403508 0.554260 0.560483 0.247290
H63   H     H_    0.225949 0.612825 0.571091 0.160488
C84   C     C_3   0.774870 0.434097 0.413010 -0.320860
C85   C     C_3   0.866627 0.430178 0.356142 -0.315201
C86   C     C_3   0.746870 0.389860 0.316210 -0.794041
H64   H     H_    0.734419 0.339210 0.331488 0.230449
H65   H     H_    0.603937 0.411411 0.311358 0.237974
H66   H     H_    0.815586 0.388506 0.275299 0.221175
H67   H     H_    0.883779 0.479605 0.338652 0.203901
H68   H     H_    0.006975 0.407205 0.359526 0.208790
H69   H     H_    0.743133 0.384267 0.427471 0.161115
H70   H     H_    0.641670 0.461423 0.408615 0.230398
C87   C     C_3   0.820987 0.434471 0.094572 -0.348211
C88   C     C_3   0.639141 0.466088 0.114227 -0.229304
C89   C     C_3   0.590223 0.444516 0.172572 -0.842336
H71   H     H_    0.582847 0.390711 0.175083 0.242780
H72   H     H_    0.698336 0.462634 0.202307 0.236940
H73   H     H_    0.451337 0.465043 0.184153 0.223738
H74   H     H_    0.651521 0.519687 0.114130 0.215831
H75   H     H_    0.524345 0.451410 0.085802 0.264702
H76   H     H_    0.791855 0.382958 0.084092 0.160894
H77   H     H_    0.927516 0.436469 0.128499 0.175939
C90   C     C_3   0.181720 0.559523 0.912051 -0.310194
C91   C     C_3   0.057152 0.567374 0.860273 -0.309203
C92   C     C_3   0.175310 0.570820 0.808461 -0.807202
H78   H     H_    0.277009 0.611776 0.811223 0.234525
H79   H     H_    0.253400 0.524512 0.802934 0.228730
H80   H     H_    0.081153 0.578516 0.772092 0.227606
H81   H     H_    0.956707 0.526308 0.855763 0.202231
H82   H     H_    0.975862 0.613259 0.863090 0.200025
H83   H     H_    0.229098 0.608332 0.925637 0.160030
H84   H     H_    0.307010 0.529545 0.902493 0.200431
C93   C     C_3   0.679012 0.934470 0.905427 -0.348210
C94   C     C_3   0.860858 0.966088 0.885772 -0.229305
C95   C     C_3   0.909776 0.944515 0.827428 -0.842335
H85   H     H_    0.917153 0.890710 0.824917 0.242780
H86   H     H_    0.801663 0.962633 0.797692 0.236940
H87   H     H_    0.048662 0.965042 0.815846 0.223738
H88   H     H_    0.848478 0.019686 0.885870 0.215830
H89   H     H_    0.975654 0.951410 0.914197 0.264702
H90   H     H_    0.708144 0.882958 0.915908 0.160894
H91   H     H_    0.572483 0.936469 0.871500 0.175939
C96   C     C_3   0.318279 0.059523 0.087949 -0.310194
C97   C     C_3   0.442848 0.067374 0.139727 -0.309203
C98   C     C_3   0.324690 0.070820 0.191538 -0.807202
H92   H     H_    0.222991 0.111776 0.188777 0.234524
H93   H     H_    0.246600 0.024512 0.197066 0.228730
H94   H     H_    0.418847 0.078517 0.227908 0.227606
H95   H     H_    0.543293 0.026308 0.144237 0.202231
H96   H     H_    0.524138 0.113259 0.136910 0.200025
H97   H     H_    0.270902 0.108332 0.074363 0.160031
H98   H     H_    0.192990 0.029545 0.097507 0.200431
C99   C     C_3   0.243599 0.060070 0.426015 -0.327690
C100  C     C_3   0.258188 0.036835 0.366265 -0.292899
C101  C     C_3   0.149004 0.081355 0.327163 -0.809545
H99   H     H_    0.002804 0.088101 0.341233 0.242153
H100  H     H_    0.219652 0.129371 0.324096 0.233546
H101  H     H_    0.140226 0.058609 0.285942 0.227390
H102  H     H_    0.408144 0.035268 0.353439 0.196825
H103  H     H_    0.197312 0.987246 0.362871 0.209878
H104  H     H_    0.096491 0.054260 0.439517 0.247290
H105  H     H_    0.274050 0.112825 0.428909 0.160488
C102  C     C_3   0.725130 0.934097 0.586990 -0.320863
C103  C     C_3   0.633375 0.930180 0.643858 -0.315203
C104  C     C_3   0.753122 0.889857 0.683789 -0.794049
H106  H     H_    0.765555 0.839207 0.668510 0.230451
H107  H     H_    0.896061 0.911402 0.688640 0.237977
H108  H     H_    0.684409 0.888504 0.724700 0.221176
H109  H     H_    0.616240 0.979607 0.661349 0.203901
H110  H     H_    0.493021 0.907212 0.640475 0.208793
H111  H     H_    0.756865 0.884267 0.572529 0.161117
H112  H     H_    0.858332 0.961422 0.591384 0.230397
O21   O     O_3   0.653666 0.482024 0.535225 -0.546766
C105  C     C_3   0.611596 0.418826 0.553576 -0.230882
H113  H     H_    0.653606 0.413488 0.597574 0.150467
H114  H     H_    0.677101 0.380068 0.528094 0.112641
H115  H     H_    0.456650 0.412049 0.551471 0.171127
O22   O     O_3   0.368727 0.507861 0.455270 -0.551509
C106  C     C_3   0.406430 0.570395 0.434721 -0.252192
H116  H     H_    0.357368 0.609594 0.462789 0.123199
H117  H     H_    0.345651 0.575975 0.392638 0.152714
H118  H     H_    0.560750 0.575485 0.430087 0.164240
O23   O     O_3   0.355691 0.528844 0.030684 -0.540662
C107  C     C_3   0.371705 0.590511 0.055359 -0.278190
H119  H     H_    0.332471 0.587919 0.099461 0.158884
H120  H     H_    0.290522 0.628441 0.032488 0.131232
H121  H     H_    0.521221 0.605048 0.055535 0.159395
O24   O     O_3   0.624783 0.466897 0.975581 -0.536844
C108  C     C_3   0.601945 0.433139 0.925565 -0.273302
H122  H     H_    0.661499 0.383374 0.929025 0.148732
H123  H     H_    0.662920 0.460545 0.890466 0.128783
H124  H     H_    0.449113 0.427325 0.916885 0.163308
O25   O     O_3   0.144309 0.028843 0.969315 -0.540662
C109  C     C_3   0.128294 0.090510 0.944640 -0.278190
H125  H     H_    0.167528 0.087918 0.900538 0.158883
H126  H     H_    0.209477 0.128441 0.967511 0.131232
H127  H     H_    0.978778 0.105047 0.944464 0.159395
O26   O     O_3   0.875217 0.966896 0.024418 -0.536844
C110  C     C_3   0.898055 0.933139 0.074435 -0.273301
H128  H     H_    0.838501 0.883374 0.070975 0.148732
H129  H     H_    0.837079 0.960545 0.109534 0.128782
H130  H     H_    0.050887 0.927325 0.083115 0.163307
O27   O     O_3   0.846334 0.982024 0.464774 -0.546766
C111  C     C_3   0.888404 0.918826 0.446424 -0.230883
H131  H     H_    0.846394 0.913488 0.402426 0.150467
H132  H     H_    0.822899 0.880068 0.471906 0.112641
H133  H     H_    0.043350 0.912049 0.448529 0.171127
O28   O     O_3   0.131273 0.007861 0.544729 -0.551510
C112  C     C_3   0.093570 0.070396 0.565279 -0.252192
H134  H     H_    0.142633 0.109595 0.537211 0.123199
H135  H     H_    0.154349 0.075975 0.607362 0.152714
H136  H     H_    0.939250 0.075485 0.569913 0.164240

loop_
_geom_bond_atom_site_label_1
_geom_bond_atom_site_label_2
_ccdc_geom_bond_type
C85   H67   S    
O17   V3    S    
C77   H45   S    
C84   C85   S    
O18   V4    S    
C62   H8    S    
C16   C47   S    
O12   V1    S    
C46   C54   S    
C12   C90   S    
C93   C94   S    
C45   C53   S    
C66   C67   S    
C10   C18   S    
C69   H35   S    
C95   H85   S    
C109  H127  S    
C47   C55   S    
C57   C58   S    
C12   C43   S    
C75   H48   S    
C71   H29   S    
C86   H64   S    
O16   V3    S    
C96   H98   S    
C95   H86   S    
C4    C29   S    
O11   C3    A    
C63   C64   S    
C9    C81   S    
O8    V1    S    
C11   C44   S    
O2    V4    S    
C66   H27   S    
C83   H58   S    
C27   C51   T    
C17   C34   S    
O21   C105  S    
C89   H72   S    
O25   C109  S    
C110  H130  S    
C58   H5    S    
C71   H30   S    
C44   C52   S    
O19   V1    S    
C97   H95   S    
O6    C7    A    
C20   C35   S    
C73   H40   S    
C77   H43   S    
C42   C50   S    
C87   C88   S    
C21   C38   S    
O1    V3    S    
C41   C49   S    
C97   C98   S    
C38   C46   S    
O3    C2    A    
C102  H111  S    
C108  H122  S    
C70   H32   S    
C16   C24   S    
C88   C89   S    
C61   C62   S    
C72   H42   S    
C35   C43   S    
O22   C106  S    
C87   H76   S    
C34   C42   S    
C83   H57   S    
O11   V2    S    
C73   C74   S    
C92   H79   S    
C99   H105  S    
C61   H11   S    
C36   O23   S    
C105  H114  S    
C78   C79   S    
C64   H19   S    
C91   H82   S    
C14   C96   S    
C80   H51   S    
C11   C19   S    
C104  H106  S    
C92   H78   S    
C11   C35   S    
O9    V1    S    
C11   C87   S    
C68   H24   S    
C81   H62   S    
O15   C7    A    
C98   H93   S    
C24   C78   S    
C35   O24   S    
C14   C45   S    
O16   C8    A    
O7    V2    S    
C94   H89   S    
C13   C46   S    
O24   C108  S    
C103  H110  S    
C84   H69   S    
O3    V4    S    
C24   C48   S    
O27   C111  S    
C10   C41   S    
C93   H90   S    
C67   C68   S    
C75   H49   S    
C105  H113  S    
O5    V1    S    
C106  H117  S    
O17   V1    S    
C95   H87   S    
C79   H54   S    
C101  H101  S    
C105  H115  S    
C14   C22   S    
C94   C95   S    
C22   C37   S    
O19   V3    S    
C90   C91   S    
C76   H47   S    
O20   V4    S    
C83   H59   S    
C72   H41   S    
C90   H84   S    
C101  H99   S    
O23   C107  S    
C89   H73   S    
C69   H34   S    
C22   C72   S    
C111  H131  S    
C7    C26   S    
C109  H126  S    
C21   C69   S    
C73   H39   S    
C98   H92   S    
C14   C38   S    
C21   C45   S    
C6    C27   S    
C18   C33   S    
C99   H104  S    
C24   C39   S    
C68   H23   S    
C66   H28   S    
C108  H123  S    
C78   H55   S    
C34   O21   S    
C29   C53   T    
C89   H71   S    
C19   C63   S    
C96   C97   S    
C13   C93   S    
C99   C100  S    
C40   O27   S    
C74   H38   S    
C31   C55   T    
C87   H77   S    
O10   V2    S    
C107  H120  S    
C13   C37   S    
C59   H1    S    
C102  C103  S    
C100  H103  S    
C15   C48   S    
C92   H80   S    
C17   C57   S    
C9    C42   S    
O12   C4    A    
C101  H100  S    
O8    C5    A    
O13   C5    A    
C64   H18   S    
C65   H16   S    
C88   H75   S    
C91   H81   S    
O9    C1    A    
C80   H52   S    
C10   C34   S    
C104  H107  S    
C1    C32   S    
C23   C47   S    
C69   C70   S    
C86   H65   S    
C19   C36   S    
C107  H121  S    
C82   H61   S    
C57   H7    S    
C16   C102  S    
C3    C30   S    
C111  H132  S    
O6    V2    S    
C39   C47   S    
O18   V2    S    
C62   H10   S    
C15   C99   S    
C94   H88   S    
C112  H135  S    
C103  H109  S    
C60   H14   S    
C25   C49   T    
C84   H70   S    
C20   C44   S    
C43   C51   S    
O4    C1    A    
C13   C21   S    
C72   C73   S    
C93   H91   S    
C60   C61   S    
C96   H97   S    
C85   C86   S    
C15   C23   S    
C68   H22   S    
C98   H94   S    
C37   C45   S    
C8    C25   S    
C77   H44   S    
C38   O25   S    
C79   H53   S    
O1    C4    A    
C9    C33   S    
C59   H2    S    
O2    C3    A    
C76   H46   S    
O13   V3    S    
C85   H68   S    
C18   C42   S    
C90   H83   S    
C33   O22   S    
C28   C52   T    
O15   V4    S    
C17   C41   S    
C106  H116  S    
C23   C40   S    
C70   H33   S    
C70   C71   S    
C109  H125  S    
C82   C83   S    
O7    C6    A    
C15   C39   S    
C23   C75   S    
C32   C56   T    
C67   H25   S    
C110  H128  S    
C9    C17   S    
C78   H56   S    
C108  H124  S    
C26   C50   T    
C63   H21   S    
C57   H6    S    
C48   C56   S    
C81   C82   S    
C75   C76   S    
C91   C92   S    
C67   H26   S    
C110  H129  S    
O14   C6    A    
C74   H36   S    
O5    C8    A    
C97   H96   S    
C100  H102  S    
O10   C2    A    
C111  H133  S    
C2    C31   S    
C16   C40   S    
C19   C43   S    
O20   V2    S    
C103  C104  S    
C86   H66   S    
C30   C54   T    
C65   H17   S    
C88   H74   S    
C40   C48   S    
C71   H31   S    
C64   C65   S    
C104  H108  S    
C37   O26   S    
C22   C46   S    
O4    V3    S    
C12   C20   S    
O26   C110  S    
C61   H12   S    
C82   H60   S    
C20   C66   S    
C39   O28   S    
C81   H63   S    
C59   H3    S    
O14   V4    S    
O28   C112  S    
C36   C44   S    
C62   H9    S    
C58   C59   S    
C112  H136  S    
C18   C60   S    
C65   H15   S    
C74   H37   S    
C12   C36   S    
C76   C77   S    
C102  H112  S    
C79   C80   S    
C60   H13   S    
C80   H50   S    
C112  H134  S    
C63   H20   S    
C100  C101  S    
C5    C28   S    
C10   C84   S    
C58   H4    S    
C106  H118  S    
C107  H119  S    
C33   C41   S    
