data_mof_unit_44970.cif
_audit_creation_date              2013-03-05T15:48:53-0500
_audit_creation_method            fapswitch 2.2
_symmetry_space_group_name_H-M    P1
_symmetry_Int_Tables_number       1
_space_group_crystal_system       triclinic
_cell_length_a                    18.351995
_cell_length_b                    18.368805
_cell_length_c                    51.416652
_cell_angle_alpha                 90.073474
_cell_angle_beta                  89.910819
_cell_angle_gamma                 119.965414
_cell_volume                      15015.8272437

loop_
_atom_site_label
_atom_site_type_symbol
_atom_site_description
_atom_site_fract_x
_atom_site_fract_y
_atom_site_fract_z
_atom_type_partial_charge
O1    O     O_R   0.475290 0.813700 0.278840 -0.507205
O2    O     O_R   0.475290 0.813700 0.221160 -0.489522
O3    O     O_R   0.448450 0.657720 0.276690 -0.493377
O4    O     O_R   0.448450 0.657720 0.223310 -0.448728
C1    C     C_R   0.409338 0.584051 0.287377 0.576257
C2    C     C_R   0.409262 0.584213 0.212450 0.574270
O5    O     O_R   0.338410 0.524710 0.278840 -0.438048
O6    O     O_R   0.338410 0.524710 0.221160 -0.500306
O7    O     O_R   0.209270 0.551550 0.276690 -0.449025
O8    O     O_R   0.209270 0.551550 0.223310 -0.499207
C3    C     C_R   0.174750 0.590771 0.287467 0.572499
C4    C     C_R   0.174500 0.590516 0.212600 0.572000
O9    O     O_R   0.186300 0.661590 0.278840 -0.503065
O10   O     O_R   0.186300 0.661590 0.221160 -0.453196
O11   O     O_R   0.342280 0.790730 0.276690 -0.498160
O12   O     O_R   0.342280 0.790730 0.223310 -0.499877
C5    C     C_R   0.415674 0.824612 0.287523 0.533506
C6    C     C_R   0.415477 0.824019 0.212285 0.538179
Cr1   Cr    Cr6+3 0.456550 0.732290 0.250000 1.114459
Cr2   Cr    Cr6+3 0.275740 0.543450 0.250000 1.150028
Cr3   Cr    Cr6+3 0.267710 0.724260 0.250000 1.086659
O13   O     O_3   0.333333 0.666667 0.250000 -0.284461
C7    C     C_R   0.130693 0.536102 0.409477 0.433585
C8    C     C_R   0.980805 0.471366 0.098781 0.432656
O14   O     O_2   0.202906 0.576735 0.401418 -0.478268
O15   O     O_2   0.922256 0.441534 0.114217 -0.469124
N1    N     N_R   0.064543 0.501010 0.392113 -0.387812
N2    N     N_R   0.062571 0.512217 0.107807 -0.390558
C9    C     C_R   0.982668 0.453529 0.400698 0.432141
C10   C     C_R   0.129572 0.545271 0.090663 0.427930
C11   C     C_R   0.106064 0.599153 0.355633 -0.071041
C12   C     C_R   0.123244 0.486982 0.146986 -0.059840
C13   C     C_R   0.130325 0.619667 0.329846 -0.166426
C14   C     C_R   0.148462 0.504883 0.172806 -0.166872
C15   C     C_R   0.100099 0.476562 0.321529 0.185684
C16   C     C_R   0.078050 0.587081 0.176598 0.184353
C17   C     C_R   0.076749 0.457176 0.347765 -0.024797
C18   C     C_R   0.054699 0.569965 0.150332 -0.035084
C19   C     C_R   0.081424 0.518714 0.364856 0.200344
C20   C     C_R   0.078872 0.521802 0.135356 0.194631
C21   C     C_R   0.031971 0.478774 0.445540 -0.028705
C22   C     C_R   0.032382 0.496554 0.054127 -0.030820
C23   C     C_R   0.115337 0.525507 0.436379 0.031374
C24   C     C_R   0.964655 0.463476 0.071862 0.025302
C25   C     C_R   0.181469 0.562235 0.454242 -0.117601
C26   C     C_R   0.882298 0.422688 0.062375 -0.088220
C27   C     C_R   0.965219 0.442160 0.427526 0.029320
C28   C     C_R   0.115353 0.537138 0.063692 0.033534
C29   C     C_R   0.130922 0.560164 0.312697 0.003329
C30   C     C_R   0.129655 0.557891 0.187626 0.000894
H1    H     H_    0.055431 0.394372 0.355021 0.176525
H2    H     H_    0.018406 0.594915 0.141357 0.179388
H3    H     H_    0.245914 0.600577 0.447743 0.162326
H4    H     H_    0.828998 0.395490 0.075535 0.204799
C31   C     C_R   0.865222 0.425876 0.686802 -0.001840
C32   C     C_R   0.867891 0.427563 0.812703 -0.000212
C33   C     C_R   0.066486 0.491694 0.517776 0.014220
C34   C     C_R   0.918261 0.446273 0.990214 0.018571
C35   C     C_R   0.914327 0.424351 0.508857 0.021670
C36   C     C_R   0.070762 0.510419 0.981956 0.015787
C37   C     C_R   0.982226 0.455054 0.526771 0.036890
C38   C     C_R   0.986974 0.474684 0.972597 0.036393
C39   C     C_R   0.131282 0.515094 0.536335 -0.125594
C40   C     C_R   0.836599 0.415293 0.979861 -0.144810
C41   C     C_R   0.114387 0.507753 0.562840 -0.077071
C42   C     C_R   0.822575 0.409151 0.953245 -0.112272
C43   C     C_R   0.032297 0.476699 0.571970 0.020433
C44   C     C_R   0.889174 0.434209 0.935745 0.020986
C45   C     C_R   0.965779 0.449689 0.553967 -0.031279
C46   C     C_R   0.971689 0.467340 0.945301 -0.029550
C47   C     C_R   0.882913 0.417926 0.563133 0.026360
C48   C     C_R   0.038911 0.493428 0.927564 0.022198
C49   C     C_R   0.867991 0.415179 0.590024 0.419029
C50   C     C_R   0.022652 0.485547 0.900661 0.413493
N3    N     N_R   0.933688 0.440988 0.607362 -0.401787
N4    N     N_R   0.941262 0.451418 0.891722 -0.396934
C51   C     C_R   0.015055 0.471510 0.598784 0.417859
C52   C     C_R   0.874963 0.427252 0.908787 0.413056
C53   C     C_R   0.887857 0.360476 0.648564 0.057082
C54   C     C_R   0.890294 0.365094 0.851617 0.060840
C55   C     C_R   0.863351 0.356394 0.674601 -0.123553
C56   C     C_R   0.862571 0.357984 0.825847 -0.121174
C57   C     C_R   0.897107 0.501810 0.673110 -0.136963
C58   C     C_R   0.906427 0.506196 0.825063 -0.137562
C59   C     C_R   0.922768 0.506936 0.647331 -0.057656
C60   C     C_R   0.934713 0.514127 0.850594 -0.057965
C61   C     C_R   0.916638 0.436415 0.634776 0.257182
C62   C     C_R   0.924791 0.443821 0.864233 0.256416
O16   O     O_2   0.072195 0.494091 0.614538 -0.478678
O17   O     O_2   0.803590 0.399646 0.900395 -0.461766
C63   C     C_R   0.083283 0.503865 0.490661 0.023083
C64   C     C_R   0.933204 0.450286 0.017456 0.015640
C65   C     C_R   0.015304 0.469558 0.472745 0.038524
C66   C     C_R   0.017182 0.489100 0.026819 0.037021
C67   C     C_R   0.930823 0.426917 0.481745 0.018586
C68   C     C_R   0.086157 0.520627 0.009199 0.024702
C69   C     C_R   0.166032 0.551227 0.480789 -0.144072
C70   C     C_R   0.866762 0.416044 0.035812 -0.135831
H5    H     H_    0.839431 0.297457 0.684952 0.139287
H6    H     H_    0.833383 0.297007 0.816466 0.132463
H7    H     H_    0.166342 0.527058 0.576242 0.224016
H8    H     H_    0.758778 0.384414 0.946367 0.210569
H9    H     H_    0.195920 0.537827 0.531000 0.130304
H10   H     H_    0.781707 0.396399 0.991756 0.121662
H11   H     H_    0.220468 0.583372 0.493124 0.110316
H12   H     H_    0.801418 0.382025 0.030381 0.125439
O18   O     O_2   0.925120 0.422429 0.384964 -0.485064
O19   O     O_2   0.201642 0.582555 0.098959 -0.467460
C71   C     C_R   0.882546 0.395841 0.436675 -0.102901
C72   C     C_R   0.182559 0.569526 0.046177 -0.108780
H13   H     H_    0.152909 0.683830 0.323741 0.147017
H14   H     H_    0.186823 0.480719 0.180705 0.143540
H15   H     H_    0.109168 0.646786 0.368757 0.143822
H16   H     H_    0.141357 0.448817 0.135647 0.150865
H17   H     H_    0.830144 0.365658 0.423289 0.176079
H18   H     H_    0.246804 0.601075 0.053047 0.153877
C73   C     C_R   0.832074 0.393456 0.518739 -0.145641
C74   C     C_R   0.136454 0.534410 0.963592 -0.129246
C75   C     C_R   0.816880 0.390416 0.545291 -0.112140
C76   C     C_R   0.120733 0.526252 0.937036 -0.083957
O20   O     O_2   0.796660 0.390171 0.598096 -0.445836
O21   O     O_2   0.080661 0.508773 0.885160 -0.486981
C77   C     C_R   0.865565 0.388353 0.463185 -0.140116
C78   C     C_R   0.168583 0.561861 0.019560 -0.139104
H19   H     H_    0.777907 0.373261 0.506416 0.109928
H20   H     H_    0.201167 0.558637 0.968993 0.125975
H21   H     H_    0.899103 0.556319 0.681948 0.142009
H22   H     H_    0.911480 0.560912 0.815419 0.143964
H23   H     H_    0.752674 0.366232 0.551813 0.182766
H24   H     H_    0.173407 0.545716 0.923863 0.220319
H25   H     H_    0.944445 0.565042 0.636703 0.136313
H26   H     H_    0.960741 0.574376 0.860291 0.140465
H27   H     H_    0.800325 0.350389 0.468516 0.117312
H28   H     H_    0.224375 0.590469 0.007688 0.095381
C79   C     C_R   0.435965 0.002946 0.401180 0.444218
C80   C     C_R   0.490828 0.016960 0.098376 0.445115
O22   O     O_2   0.398979 0.027679 0.387244 -0.421838
O23   O     O_2   0.518446 0.074600 0.114060 -0.413495
N5    N     N_R   0.467255 0.955113 0.390439 -0.395466
N6    N     N_R   0.448286 0.935276 0.107343 -0.403661
C81   C     C_R   0.507470 0.924127 0.405672 0.426541
C82   C     C_R   0.411919 0.868357 0.090328 0.428650
C83   C     C_R   0.523377 0.954492 0.346873 -0.043813
C84   C     C_R   0.365277 0.885993 0.147673 -0.042779
C85   C     C_R   0.510856 0.922493 0.321645 -0.128569
C86   C     C_R   0.357557 0.860063 0.173530 -0.126203
C87   C     C_R   0.359933 0.853448 0.328091 -0.133336
C88   C     C_R   0.505864 0.903258 0.174296 -0.117178
C89   C     C_R   0.372563 0.884297 0.353470 -0.050529
C90   C     C_R   0.513486 0.929597 0.148472 -0.044445
C91   C     C_R   0.454359 0.933326 0.363220 0.232721
C92   C     C_R   0.442781 0.918988 0.134864 0.233471
C93   C     C_R   0.484279 0.988001 0.443937 -0.066911
C94   C     C_R   0.460901 0.965292 0.053724 -0.066034
C95   C     C_R   0.445222 0.021821 0.428133 0.007485
C96   C     C_R   0.500321 0.033768 0.071295 0.009091
C97   C     C_R   0.415429 0.071751 0.439967 0.215306
C98   C     C_R   0.546552 0.116360 0.061125 0.221360
C99   C     C_R   0.516894 0.940426 0.432466 0.040002
C100  C     C_R   0.417086 0.882385 0.063391 0.038250
C101  C     C_R   0.429005 0.869962 0.312268 0.009140
C102  C     C_R   0.427275 0.866125 0.186885 0.006307
H29   H     H_    0.296217 0.812764 0.321404 0.133510
H30   H     H_    0.560687 0.908718 0.184016 0.167973
H31   H     H_    0.318713 0.866905 0.365934 0.147603
H32   H     H_    0.573556 0.954835 0.138671 0.151733
C103  C     C_R   0.567985 0.144730 0.686010 -0.020543
C104  C     C_R   0.558755 0.131285 0.812686 -0.027522
C105  C     C_R   0.451147 0.048717 0.510750 -0.020630
C106  C     C_R   0.501073 0.076542 0.989703 -0.020318
C107  C     C_R   0.545825 0.990533 0.513719 0.029499
C108  C     C_R   0.439368 0.925183 0.981603 0.029140
C109  C     C_R   0.501185 0.026035 0.525835 0.028371
C110  C     C_R   0.472949 0.008462 0.972114 0.031007
C111  C     C_R   0.401853 0.076643 0.523734 -0.119547
C112  C     C_R   0.523340 0.156451 0.979772 -0.125714
C113  C     C_R   0.405559 0.088009 0.550630 0.218773
C114  C     C_R   0.525141 0.171504 0.953115 0.219699
C115  C     C_R   0.458203 0.068910 0.565808 0.020725
C116  C     C_R   0.508308 0.106158 0.935244 0.015096
C117  C     C_R   0.507114 0.039333 0.553208 -0.062967
C118  C     C_R   0.479116 0.023898 0.944844 -0.064816
C119  C     C_R   0.562491 0.023269 0.567914 0.045445
C120  C     C_R   0.456653 0.956927 0.927240 0.033292
C121  C     C_R   0.571800 0.040849 0.594665 0.436370
C122  C     C_R   0.466042 0.972948 0.900352 0.454286
N7    N     N_R   0.523583 0.069133 0.606820 -0.373745
N8    N     N_R   0.498326 0.053828 0.891250 -0.376358
C123  C     C_R   0.463330 0.077466 0.593199 0.488494
C124  C     C_R   0.521324 0.120278 0.908162 0.472123
C125  C     C_R   0.566782 0.180123 0.640488 0.231094
C126  C     C_R   0.462244 0.096239 0.849515 0.258231
C127  C     C_R   0.578160 0.202869 0.666760 -0.125069
C128  C     C_R   0.486794 0.126554 0.824079 -0.123661
C129  C     C_R   0.544311 0.062198 0.679181 -0.160160
C130  C     C_R   0.603996 0.101128 0.826601 -0.150404
C131  C     C_R   0.528708 0.037419 0.653138 -0.091016
C132  C     C_R   0.580455 0.071123 0.851889 -0.103692
C133  C     C_R   0.539988 0.095773 0.633624 0.203446
C134  C     C_R   0.511341 0.070467 0.863750 0.225452
O24   O     O_2   0.414635 0.092456 0.605088 -0.422359
O25   O     O_2   0.555395 0.191782 0.899544 -0.416026
C135  C     C_R   0.451822 0.042865 0.483172 -0.020765
C136  C     C_R   0.503548 0.062557 0.016766 -0.018328
C137  C     C_R   0.490394 0.001071 0.471331 0.028648
C138  C     C_R   0.464847 0.979415 0.026395 0.031988
C139  C     C_R   0.534740 0.971803 0.486713 0.029378
C140  C     C_R   0.429652 0.910223 0.008886 0.034745
C141  C     C_R   0.417380 0.079924 0.466987 -0.120691
C142  C     C_R   0.546165 0.129561 0.034413 -0.122087
H33   H     H_    0.599491 0.267515 0.672189 0.149492
H34   H     H_    0.450823 0.148749 0.813426 0.168504
H35   H     H_    0.358777 0.089950 0.513385 0.154975
H36   H     H_    0.534675 0.207685 0.992564 0.152200
H37   H     H_    0.395749 0.120382 0.474754 0.151423
H38   H     H_    0.584523 0.193403 0.027706 0.138326
O26   O     O_2   0.533618 0.880804 0.395884 -0.519228
O27   O     O_2   0.375316 0.796465 0.098741 -0.458327
C143  C     C_R   0.556831 0.908366 0.448038 -0.100921
C144  C     C_R   0.378816 0.814926 0.045995 -0.104584
H39   H     H_    0.565157 0.936511 0.309791 0.153908
H40   H     H_    0.296056 0.831363 0.182581 0.160158
H41   H     H_    0.586843 0.992779 0.354124 0.155355
H42   H     H_    0.310324 0.877555 0.137269 0.148318
H43   H     H_    0.581293 0.870589 0.439747 0.168100
H44   H     H_    0.343139 0.751002 0.053001 0.154228
C145  C     C_R   0.601041 0.975872 0.529022 -0.135982
C146  C     C_R   0.417394 0.859730 0.963408 -0.132135
C147  C     C_R   0.609522 0.992475 0.555500 -0.098802
C148  C     C_R   0.426103 0.875445 0.936836 -0.089406
O28   O     O_2   0.623548 0.032044 0.607140 -0.537633
O29   O     O_2   0.445849 0.915144 0.884981 -0.479109
C149  C     C_R   0.565952 0.923948 0.474558 -0.138941
C150  C     C_R   0.385313 0.828267 0.019334 -0.140802
H45   H     H_    0.641121 0.954317 0.520906 0.116120
H46   H     H_    0.395769 0.795685 0.969115 0.119225
H47   H     H_    0.537599 0.017230 0.693939 0.135675
H48   H     H_    0.659876 0.104196 0.818422 0.143938
H49   H     H_    0.653445 0.980927 0.566280 0.167445
H50   H     H_    0.409122 0.823075 0.923752 0.198306
H51   H     H_    0.508465 0.972860 0.648045 0.163802
H52   H     H_    0.618618 0.052177 0.862822 0.135221
H53   H     H_    0.595334 0.894984 0.485202 0.115019
H54   H     H_    0.352492 0.772877 0.007400 0.098648
C151  C     C_R   0.548712 0.532298 0.400761 0.440042
C152  C     C_R   0.553776 0.547506 0.097810 0.435680
O30   O     O_2   0.602899 0.537916 0.385698 -0.478493
O31   O     O_2   0.588825 0.524228 0.113136 -0.470206
N9    N     N_R   0.479461 0.534458 0.391362 -0.389702
N10   N     N_R   0.500274 0.574288 0.106948 -0.391536
C153  C     C_R   0.416772 0.526932 0.407903 0.437590
C154  C     C_R   0.461156 0.602162 0.089971 0.428314
C155  C     C_R   0.494701 0.627974 0.355300 -0.063315
C156  C     C_R   0.401279 0.513607 0.143384 -0.060166
C157  C     C_R   0.479081 0.639776 0.329620 -0.166220
C158  C     C_R   0.380517 0.514441 0.169386 -0.162838
C159  C     C_R   0.424574 0.490954 0.320732 0.192887
C160  C     C_R   0.523852 0.625578 0.178314 0.186274
C161  C     C_R   0.439989 0.480032 0.346808 -0.023891
C162  C     C_R   0.543496 0.624612 0.151900 -0.031833
C163  C     C_R   0.473285 0.547860 0.364125 0.195924
C164  C     C_R   0.482020 0.570197 0.134351 0.195809
C165  C     C_R   0.495130 0.519235 0.444921 -0.028611
C166  C     C_R   0.524742 0.570588 0.053267 -0.031859
C167  C     C_R   0.557418 0.524491 0.427674 0.033677
C168  C     C_R   0.566933 0.545551 0.070864 0.027715
C169  C     C_R   0.627574 0.523226 0.437692 -0.095392
C170  C     C_R   0.619762 0.517302 0.061165 -0.087762
C171  C     C_R   0.423826 0.519383 0.434857 0.032922
C172  C     C_R   0.472494 0.600251 0.062963 0.032273
C173  C     C_R   0.441248 0.571418 0.312319 0.002656
C174  C     C_R   0.439982 0.572337 0.186973 0.004388
H55   H     H_    0.425147 0.418571 0.353835 0.183286
H56   H     H_    0.606518 0.666725 0.144857 0.177232
H57   H     H_    0.676859 0.528053 0.424934 0.174752
H58   H     H_    0.652326 0.496820 0.074202 0.188786
C175  C     C_R   0.572032 0.439194 0.687039 0.005139
C176  C     C_R   0.572444 0.441006 0.812791 0.005108
C177  C     C_R   0.581382 0.501812 0.509404 0.031820
C178  C     C_R   0.599971 0.535085 0.989039 0.032087
C179  C     C_R   0.455631 0.514671 0.516775 -0.018212
C180  C     C_R   0.489557 0.571393 0.981356 -0.019356
C181  C     C_R   0.523195 0.506488 0.526688 0.028755
C182  C     C_R   0.546920 0.547538 0.971664 0.026369
C183  C     C_R   0.644556 0.488284 0.520056 -0.134070
C184  C     C_R   0.661905 0.519534 0.978423 -0.110444
C185  C     C_R   0.652579 0.483259 0.546699 -0.092139
C186  C     C_R   0.667539 0.510602 0.951834 -0.050432
C187  C     C_R   0.597957 0.491242 0.563954 0.042662
C188  C     C_R   0.611212 0.515872 0.934689 0.053889
C189  C     C_R   0.532767 0.502921 0.554109 -0.060605
C190  C     C_R   0.551032 0.535423 0.944412 -0.063965
C191  C     C_R   0.477503 0.511086 0.571616 0.017156
C192  C     C_R   0.495015 0.542394 0.926981 0.014134
C193  C     C_R   0.490630 0.509130 0.598723 0.437917
C194  C     C_R   0.502108 0.530709 0.899989 0.442066
N11   N     N_R   0.552492 0.493921 0.607873 -0.397284
N12   N     N_R   0.559351 0.508477 0.891085 -0.400127
C195  C     C_R   0.606434 0.485929 0.590912 0.457971
C196  C     C_R   0.613872 0.501518 0.907973 0.453335
C197  C     C_R   0.631354 0.530149 0.649323 -0.049592
C198  C     C_R   0.632295 0.539712 0.848778 -0.055914
C199  C     C_R   0.638876 0.509714 0.674972 -0.133901
C200  C     C_R   0.638073 0.515701 0.823430 -0.133324
C201  C     C_R   0.496152 0.392319 0.673374 -0.121053
C202  C     C_R   0.499215 0.393154 0.827641 -0.120099
C203  C     C_R   0.488909 0.412644 0.647750 -0.013346
C204  C     C_R   0.493601 0.417354 0.853010 -0.025337
C205  C     C_R   0.557096 0.480318 0.635326 0.245672
C206  C     C_R   0.560886 0.489677 0.863911 0.233173
O32   O     O_2   0.661303 0.473116 0.599345 -0.442444
O33   O     O_2   0.664112 0.481736 0.899691 -0.456697
C207  C     C_R   0.574485 0.510406 0.482139 0.022135
C208  C     C_R   0.589442 0.538397 0.016357 0.020852
C209  C     C_R   0.504194 0.514055 0.472260 0.041559
C210  C     C_R   0.534148 0.565242 0.025940 0.040751
C211  C     C_R   0.442951 0.512890 0.489438 0.026493
C212  C     C_R   0.487387 0.585921 0.008468 0.027807
C213  C     C_R   0.636048 0.516315 0.464295 -0.135325
C214  C     C_R   0.630957 0.513857 0.034530 -0.128546
H59   H     H_    0.698198 0.547041 0.684930 0.136370
H60   H     H_    0.695351 0.554004 0.812562 0.137478
H61   H     H_    0.684333 0.582933 0.640017 0.138192
H62   H     H_    0.684581 0.595760 0.856997 0.134975
H63   H     H_    0.702320 0.473010 0.553775 0.167407
H64   H     H_    0.715983 0.498290 0.944747 0.172259
H65   H     H_    0.688094 0.479338 0.508308 0.105959
H66   H     H_    0.708338 0.515432 0.990152 0.106300
H67   H     H_    0.693133 0.518103 0.470262 0.113528
H68   H     H_    0.670497 0.488703 0.028792 0.120192
O34   O     O_2   0.355149 0.527412 0.399085 -0.465242
O35   O     O_2   0.416128 0.628240 0.098448 -0.460297
C215  C     C_R   0.361021 0.511916 0.451878 -0.102514
C216  C     C_R   0.432477 0.627173 0.045504 -0.106804
H69   H     H_    0.492001 0.701740 0.323738 0.152805
H70   H     H_    0.316213 0.472555 0.175359 0.143452
H71   H     H_    0.520255 0.680556 0.368680 0.160879
H72   H     H_    0.353578 0.470737 0.129984 0.149632
H73   H     H_    0.304107 0.508422 0.444559 0.169002
H74   H     H_    0.394670 0.653213 0.052457 0.153425
C217  C     C_R   0.403109 0.525305 0.534569 -0.118580
C218  C     C_R   0.433689 0.576858 0.963721 -0.123255
C219  C     C_R   0.412287 0.522513 0.561388 0.229107
C220  C     C_R   0.434665 0.561502 0.937167 0.225181
O36   O     O_2   0.447889 0.521792 0.614305 -0.432735
O37   O     O_2   0.458611 0.541550 0.884276 -0.426341
C221  C     C_R   0.370227 0.508878 0.478574 -0.135180
C222  C     C_R   0.439593 0.620237 0.018835 -0.140770
H75   H     H_    0.353806 0.536801 0.528254 0.127472
H76   H     H_    0.384348 0.588166 0.970236 0.127410
H77   H     H_    0.443527 0.337528 0.682028 0.152467
H78   H     H_    0.447745 0.335122 0.820112 0.163577
H79   H     H_    0.431387 0.373347 0.637139 0.170575
H80   H     H_    0.438328 0.377982 0.864586 0.173857
H81   H     H_    0.317857 0.501198 0.490145 0.110688
H82   H     H_    0.408025 0.643948 0.006795 0.096253
O38   O     O_R   0.524710 0.338410 0.721160 -0.506601
O39   O     O_R   0.524710 0.338410 0.778840 -0.506086
O40   O     O_R   0.551550 0.209270 0.723310 -0.485872
O41   O     O_R   0.551550 0.209270 0.776690 -0.495034
C223  C     C_R   0.591238 0.175566 0.712572 0.540578
C224  C     C_R   0.591204 0.175759 0.787682 0.549404
O42   O     O_R   0.661590 0.186300 0.721160 -0.506679
O43   O     O_R   0.661590 0.186300 0.778840 -0.512553
O44   O     O_R   0.790730 0.342280 0.723310 -0.499476
O45   O     O_R   0.790730 0.342280 0.776690 -0.497306
C225  C     C_R   0.823889 0.415280 0.712278 0.543605
C226  C     C_R   0.824303 0.415538 0.787615 0.548489
O46   O     O_R   0.813700 0.475290 0.721160 -0.510722
O47   O     O_R   0.813700 0.475290 0.778840 -0.509697
O48   O     O_R   0.657720 0.448450 0.723310 -0.497500
O49   O     O_R   0.657720 0.448450 0.776690 -0.495557
C227  C     C_R   0.584495 0.408538 0.712292 0.538913
C228  C     C_R   0.584499 0.408695 0.787714 0.547142
Cr4   Cr    Cr6+3 0.543450 0.275740 0.750000 1.047754
Cr5   Cr    Cr6+3 0.724260 0.267710 0.750000 1.026068
Cr6   Cr    Cr6+3 0.732290 0.456550 0.750000 1.027864
O50   O     O_3   0.666667 0.333333 0.750000 -0.237500
N13   N     N_R   0.091128 0.410984 0.304264 0.094500
O51   O     O_R   0.060779 0.405119 0.281005 -0.281769
O52   O     O_R   0.101007 0.349961 0.312956 -0.277070
N14   N     N_R   0.048291 0.632945 0.191678 0.099427
O53   O     O_R   0.020378 0.608823 0.215197 -0.257858
O54   O     O_R   0.036567 0.690068 0.180692 -0.297875
N15   N     N_R   0.385775 0.117665 0.425006 0.121990
O55   O     O_R   0.315774 0.114786 0.431431 -0.292499
O56   O     O_R   0.436571 0.175392 0.408876 -0.253347
N16   N     N_R   0.597749 0.187777 0.077279 0.118882
O57   O     O_R   0.594633 0.256577 0.074496 -0.319504
O58   O     O_R   0.659521 0.190247 0.090407 -0.267316
N17   N     N_R   0.585150 0.243551 0.621117 0.118725
O59   O     O_R   0.617477 0.241315 0.598794 -0.306147
O60   O     O_R   0.578397 0.308962 0.626795 -0.285822
N18   N     N_R   0.389544 0.094524 0.860858 0.108907
O61   O     O_R   0.347324 0.041835 0.879361 -0.281061
O62   O     O_R   0.361533 0.141727 0.851507 -0.323671
N19   N     N_R   0.359244 0.124359 0.561750 0.119400
O63   O     O_R   0.279908 0.092694 0.556257 -0.300042
O64   O     O_R   0.399659 0.198480 0.572397 -0.246865
N20   N     N_R   0.539588 0.252363 0.944844 0.123711
O65   O     O_R   0.595511 0.319804 0.956727 -0.380681
O66   O     O_R   0.485138 0.257227 0.929830 -0.243120
N21   N     N_R   0.392878 0.420574 0.303200 0.105903
O67   O     O_R   0.418761 0.431308 0.279189 -0.265514
O68   O     O_R   0.347103 0.344381 0.311969 -0.260862
N22   N     N_R   0.589458 0.679855 0.195935 0.094513
O69   O     O_R   0.594098 0.653063 0.218953 -0.270510
O70   O     O_R   0.651408 0.751082 0.187791 -0.305507
N23   N     N_R   0.352516 0.529138 0.577753 0.114006
O71   O     O_R   0.341753 0.593674 0.575462 -0.344761
O72   O     O_R   0.297066 0.463462 0.590487 -0.268165
N24   N     N_R   0.370928 0.562241 0.921220 0.115687
O73   O     O_R   0.358364 0.625905 0.922353 -0.356347
O74   O     O_R   0.314254 0.492868 0.910359 -0.272914
C229  C     C_3   0.881213 0.282927 0.635956 -0.273595
C230  C     C_3   0.789535 0.215380 0.631669 -0.394014
H83   H     H_    0.787065 0.159740 0.622281 0.184932
H84   H     H_    0.755093 0.195304 0.650444 0.156829
H85   H     H_    0.757807 0.239344 0.618773 0.229677
H86   H     H_    0.914289 0.297774 0.616944 0.174655
H87   H     H_    0.912225 0.257408 0.648609 0.154891
C231  C     C_3   0.879409 0.287639 0.865463 -0.269265
C232  C     C_3   0.961640 0.285961 0.865968 -0.410362
H88   H     H_    0.984803 0.288215 0.845843 0.169927
H89   H     H_    0.010247 0.339924 0.877205 0.205701
H90   H     H_    0.951009 0.227046 0.875364 0.150793
H91   H     H_    0.856349 0.284513 0.885618 0.180962
H92   H     H_    0.831121 0.229818 0.855473 0.135313

loop_
_geom_bond_atom_site_label_1
_geom_bond_atom_site_label_2
_geom_bond_distance
_ccdc_geom_bond_type
C39   C41   1.388858 A    
C203  H79   1.082908 S    
C103  C127  1.399268 A    
C80   N6    1.379808 Am   
C153  C171  1.405567 A    
C53   C61   1.411649 A    
C111  C113  1.395027 A    
C106  C112  1.408670 A    
C132  H52   1.082984 S    
C79   N5    1.381466 Am   
C135  C137  1.414732 A    
C51   O16   1.222713 D    
O10   Cr3   2.010135 S    
N21   O68   1.301448 A    
C58   C60   1.392825 A    
C73   C75   1.388545 A    
C60   C62   1.399902 A    
C127  H33   1.084598 S    
C122  O29   1.222710 D    
N2    C20   1.440459 S    
N10   C154  1.381939 Am   
C7    C23   1.405407 A    
C38   C46   1.424656 A    
C36   C38   1.421286 A    
C131  C133  1.406748 A    
C156  C158  1.391773 A    
C149  H53   1.077777 S    
O8    Cr2   1.892213 S    
C125  N17   1.439685 S    
C197  H61   1.082771 S    
C185  C187  1.398985 A    
O3    Cr1   1.892709 S    
C13   H13   1.082573 S    
C146  H46   1.077827 S    
C177  C181  1.423338 A    
N6    C92   1.439594 S    
C106  C136  1.420225 A    
C153  O34   1.223192 D    
C69   H11   1.077345 S    
C83   C91   1.402684 A    
C26   C70   1.388352 A    
Cr3   O13   1.960183 S    
C49   N3    1.379991 Am   
C22   C24   1.410309 A    
C175  C201  1.406408 A    
C24   C26   1.397788 A    
C232  H90   1.110319 S    
C117  C119  1.412128 A    
C171  C215  1.397314 A    
C1    C173  1.476560 S    
C156  H72   1.083045 S    
C47   C49   1.405175 A    
C55   H5    1.083516 S    
C40   H10   1.076404 S    
C2    C174  1.483632 S    
C12   C14   1.390501 A    
C3    C29   1.480781 S    
C86   C102  1.407515 A    
C196  O33   1.223331 D    
C184  H66   1.077649 S    
C169  H57   1.083702 S    
C64   C66   1.420937 A    
C188  C196  1.403765 A    
C179  C211  1.422706 A    
C66   C68   1.422667 A    
N20   O66   1.301618 A    
C49   O20   1.222709 D    
C53   C229  1.512812 S    
N22   O70   1.301419 A    
C31   C57   1.403382 A    
C16   C18   1.404467 A    
C72   H18   1.081181 S    
C12   C20   1.397342 A    
C16   C30   1.419738 A    
C53   C55   1.401697 A    
C106  C110  1.414904 A    
C155  C163  1.396201 A    
C165  C167  1.410405 A    
O2    Cr1   2.010903 S    
C103  C129  1.396951 A    
C191  C219  1.416434 A    
C124  O25   1.221753 D    
C161  C163  1.398846 A    
C33   C37   1.420209 A    
C158  H70   1.082306 S    
C187  C195  1.403984 A    
C70   H12   1.076355 S    
C47   C75   1.398586 A    
C88   C102  1.407050 A    
C230  H83   1.110006 S    
N19   O64   1.301581 A    
O38   C227  1.288081 A    
C54   C62   1.413211 A    
C59   H25   1.082912 S    
C184  C186  1.386545 A    
C3    O9    1.288280 A    
C60   H26   1.082948 S    
C85   C101  1.404653 A    
C170  C214  1.390536 A    
C96   C98   1.417667 A    
C151  C167  1.408900 A    
C126  C134  1.414455 A    
C74   C76   1.388365 A    
N18   O61   1.301208 A    
C128  H34   1.082828 S    
C85   H39   1.083061 S    
C182  C190  1.426264 A    
C178  C208  1.422861 A    
C192  C220  1.417788 A    
C132  C134  1.401142 A    
C203  C205  1.401742 A    
N23   O71   1.300978 A    
C13   C29   1.407707 A    
C199  H59   1.082896 S    
C166  C210  1.424600 A    
C150  H54   1.077886 S    
N15   O56   1.301403 A    
C113  N19   1.435133 S    
C58   H22   1.082917 S    
C28   C72   1.396802 A    
C97   C141  1.395786 A    
O12   Cr3   1.891062 S    
N1    C9    1.379505 Am   
C14   H14   1.082177 S    
O43   Cr5   2.010014 S    
C43   C51   1.406730 A    
C41   H7    1.083246 S    
C202  H78   1.082887 S    
C110  C118  1.423928 A    
C136  C138  1.413949 A    
C193  N11   1.380988 Am   
C94   C100  1.410776 A    
C141  H37   1.078350 S    
C50   N4    1.378864 Am   
C9    C27   1.407654 A    
C10   C28   1.405400 A    
N24   O73   1.301275 A    
C189  C191  1.417817 A    
N4    C52   1.380357 Am   
C89   C91   1.402315 A    
C114  C116  1.417115 A    
C207  C209  1.419526 A    
N8    C134  1.441140 S    
C90   H32   1.082830 S    
C168  C170  1.399380 A    
N8    C124  1.381259 Am   
C54   C231  1.513020 S    
N10   C164  1.441083 S    
C175  C227  1.478764 S    
C218  H76   1.077987 S    
C81   C99   1.401948 A    
N16   O57   1.301363 A    
C201  C203  1.394329 A    
C15   C29   1.420464 A    
C219  N23   1.433955 S    
C147  H49   1.083743 S    
O39   C228  1.289915 A    
C162  H56   1.083006 S    
C172  C216  1.398471 A    
C25   H3    1.083387 S    
C231  H91   1.109417 S    
C65   C67   1.420208 A    
C79   O22   1.221045 D    
N11   C195  1.379959 Am   
C48   C76   1.397350 A    
C165  C209  1.424598 A    
C204  C206  1.401894 A    
C33   C39   1.414651 A    
C217  C219  1.393579 A    
C34   C40   1.415248 A    
C130  H48   1.082911 S    
C198  C200  1.396147 A    
C35   C37   1.421073 A    
O49   Cr6   1.889298 S    
O38   Cr4   2.010925 S    
C230  H85   1.109260 S    
C89   H31   1.082872 S    
C54   C56   1.402424 A    
O45   Cr5   1.891758 S    
C71   C77   1.389362 A    
C27   C71   1.398702 A    
C212  C222  1.414502 A    
C186  C188  1.399303 A    
C84   C86   1.395755 A    
C167  C169  1.398392 A    
C115  C123  1.414992 A    
C180  C218  1.410474 A    
C170  H58   1.083727 S    
C21   C27   1.410614 A    
C144  H44   1.081461 S    
C22   C28   1.408407 A    
C23   C25   1.398440 A    
C5    C101  1.472158 S    
C93   C137  1.423666 A    
C88   C90   1.396485 A    
N3    C61   1.436799 S    
C145  C147  1.386690 A    
C231  C232  1.525001 S    
C207  C213  1.415830 A    
C107  C139  1.420432 A    
Cr5   O50   1.960340 S    
O42   Cr5   2.009829 S    
C222  H82   1.078167 S    
Cr4   O50   1.960306 S    
C67   C77   1.414610 A    
C176  C228  1.480552 S    
C151  N9    1.379351 Am   
C166  C172  1.408733 A    
C229  H86   1.109923 S    
C129  H47   1.083018 S    
O40   Cr4   1.890103 S    
C8    N2    1.380800 Am   
C57   H21   1.082877 S    
N20   O65   1.300437 A    
C14   C30   1.407428 A    
C4    C30   1.481187 S    
C32   C56   1.406097 A    
C179  C181  1.417104 A    
C180  C182  1.416741 A    
C78   H28   1.076319 S    
C221  H81   1.077305 S    
C180  C212  1.423230 A    
C84   C92   1.400414 A    
C87   H29   1.082419 S    
N19   O63   1.301080 A    
N5    C81   1.380062 Am   
C100  C144  1.399444 A    
N5    C91   1.442151 S    
C108  C110  1.420277 A    
O49   C228  1.295637 A    
C80   C96   1.418129 A    
C118  C120  1.412194 A    
C216  H74   1.080899 S    
C165  C171  1.409191 A    
C156  C164  1.397244 A    
C104  C224  1.479601 S    
C11   C19   1.395078 A    
C105  C109  1.415493 A    
C9    O18   1.222678 D    
C152  C168  1.409487 A    
C34   C64   1.422457 A    
C193  O36   1.221099 D    
C97   N15   1.435482 S    
C211  C221  1.415146 A    
C183  H65   1.076902 S    
C34   C38   1.422389 A    
C209  C211  1.420117 A    
C98   C142  1.395648 A    
N14   O53   1.301477 A    
O48   Cr6   1.892117 S    
C95   C97   1.417333 A    
C21   C23   1.409356 A    
C143  C149  1.385995 A    
C42   C44   1.396765 A    
C146  C148  1.389159 A    
N13   O51   1.301452 A    
C232  H89   1.108569 S    
C52   O17   1.223374 D    
C223  O42   1.283760 A    
C131  H51   1.082718 S    
C77   H27   1.077191 S    
C177  C183  1.412794 A    
C87   C89   1.394784 A    
N6    C82   1.378885 Am   
C86   H40   1.083019 S    
C218  C220  1.395695 A    
C208  C210  1.418930 A    
C183  C185  1.386139 A    
N17   O60   1.300742 A    
N3    C51   1.378731 Am   
C72   C78   1.386756 A    
C21   C65   1.423483 A    
C116  C118  1.416435 A    
C41   C43   1.398353 A    
C202  C204  1.397648 A    
C126  N18   1.441147 S    
C36   C74   1.416338 A    
C159  C173  1.419420 A    
C93   C95   1.417005 A    
C160  C174  1.420931 A    
C119  C147  1.399059 A    
C94   C96   1.418386 A    
O41   Cr4   1.892707 S    
C194  N12   1.380761 Am   
C109  C117  1.423197 A    
C216  C222  1.388951 A    
N12   C196  1.379229 Am   
C32   C58   1.403207 A    
C197  C199  1.397407 A    
C44   C52   1.404650 A    
O1    Cr1   2.008859 S    
C48   C50   1.407501 A    
C87   C101  1.405002 A    
C82   C100  1.403510 A    
C1    O5    1.287771 A    
C155  H71   1.083029 S    
C186  H64   1.083499 S    
C181  C189  1.426696 A    
C32   C226  1.475981 S    
C229  H87   1.111414 S    
N7    C133  1.442837 S    
C230  H84   1.110666 S    
C129  C131  1.397026 A    
C125  C127  1.398261 A    
C198  H62   1.082844 S    
C63   C65   1.420869 A    
O7    Cr2   1.889176 S    
C26   H4    1.083906 S    
C105  C111  1.409957 A    
C225  O46   1.289551 A    
C201  H77   1.082797 S    
N11   C205  1.443746 S    
N18   O62   1.301638 A    
C154  O35   1.223161 D    
C98   N16   1.435959 S    
C36   C68   1.422916 A    
C39   H9    1.077606 S    
C57   C59   1.393381 A    
Cr2   O13   1.962174 S    
C99   C143  1.399749 A    
C151  O30   1.222563 D    
C8    C24   1.407990 A    
C112  H36   1.079291 S    
O4    C2    1.296697 A    
C122  N8    1.377992 Am   
C220  N24   1.435090 S    
N15   O55   1.301202 A    
C137  C139  1.420224 A    
O11   C5    1.294544 A    
C157  H69   1.083640 S    
C215  C221  1.387837 A    
C33   C63   1.421005 A    
C10   O19   1.223302 D    
C22   C66   1.424982 A    
O1    C5    1.286002 A    
C8    O15   1.222719 D    
O3    C1    1.295657 A    
C2    O6    1.290606 A    
C107  C109  1.419689 A    
N24   O74   1.301334 A    
C120  C148  1.400262 A    
C17   C19   1.399355 A    
C116  C124  1.414659 A    
C18   C20   1.400590 A    
C6    C102  1.478238 S    
C154  C172  1.406807 A    
C224  O43   1.288899 A    
C142  H38   1.079502 S    
C108  C146  1.413225 A    
C204  H80   1.082870 S    
C120  C122  1.406130 A    
C161  H55   1.082975 S    
C139  C149  1.411337 A    
C121  N7    1.378477 Am   
C185  H63   1.083490 S    
O46   Cr6   2.007529 S    
C166  C168  1.410180 A    
O5    Cr2   2.010535 S    
N12   C206  1.442435 S    
C215  H73   1.082060 S    
N22   O69   1.301485 A    
C200  H60   1.082895 S    
O39   Cr4   2.007952 S    
O44   Cr5   1.891556 S    
C40   C42   1.386921 A    
C175  C199  1.407157 A    
C160  N22   1.437517 S    
C176  C200  1.407736 A    
C231  H92   1.112197 S    
O2    C6    1.287908 A    
C42   H8    1.082469 S    
C148  H50   1.083780 S    
N21   O67   1.301486 A    
O41   C224  1.295225 A    
C64   C70   1.415964 A    
N17   O59   1.301239 A    
C157  C173  1.406492 A    
C158  C174  1.407423 A    
O6    Cr2   2.007244 S    
C76   H24   1.083675 S    
C111  H35   1.078187 S    
C144  C150  1.387317 A    
C15   C17   1.406128 A    
C125  C133  1.416023 A    
C169  C213  1.390023 A    
O44   C225  1.294560 A    
C83   H41   1.082859 S    
C17   H1    1.083020 S    
N13   O52   1.301395 A    
C18   H2    1.083081 S    
C79   C95   1.417868 A    
C45   C47   1.409735 A    
C75   H23   1.083731 S    
O47   Cr6   2.010307 S    
C217  H75   1.077317 S    
C82   O27   1.223372 D    
C114  N20   1.437052 S    
O48   C227  1.296696 A    
C11   C13   1.389266 A    
C7    N1    1.380779 Am   
N23   O72   1.301226 A    
N4    C62   1.437809 S    
C176  C202  1.407185 A    
C31   C225  1.476200 S    
C15   N13   1.437252 S    
C197  C205  1.402915 A    
C113  C115  1.416724 A    
C35   C73   1.414719 A    
C104  C128  1.406354 A    
C81   O26   1.223338 D    
O4    Cr1   1.890500 S    
C35   C67   1.421877 A    
C178  C184  1.411901 A    
N16   O58   1.301427 A    
C59   C61   1.399975 A    
C208  C214  1.415355 A    
C121  O28   1.222725 D    
C152  O31   1.222576 D    
N9    C153  1.379984 Am   
C84   H42   1.082861 S    
C68   C78   1.415147 A    
C88   H30   1.082903 S    
O9    Cr3   2.008878 S    
C108  C140  1.423527 A    
Cr1   O13   1.960473 S    
C162  C164  1.400172 A    
N1    C19   1.436993 S    
C232  H88   1.110985 S    
C155  C157  1.391584 A    
C213  H67   1.076718 S    
C123  O24   1.221360 D    
C190  C192  1.418153 A    
C63   C69   1.414074 A    
C159  C161  1.405897 A    
C93   C99   1.410656 A    
C160  C162  1.406954 A    
C177  C207  1.423800 A    
C226  O47   1.288797 A    
C105  C135  1.422396 A    
C119  C121  1.403513 A    
C229  C230  1.527704 S    
C198  C206  1.401039 A    
C179  C217  1.410408 A    
O40   C223  1.291108 A    
C143  H43   1.083806 S    
O7    C3    1.296635 A    
Cr6   O50   1.962185 S    
C94   C138  1.424372 A    
O8    C4    1.296566 A    
C195  O32   1.223005 D    
C4    O10   1.288969 A    
C210  C212  1.420102 A    
C90   C92   1.400390 A    
C159  N21   1.438635 S    
C31   C55   1.406368 A    
C140  C150  1.412116 A    
C16   N14   1.437271 S    
C80   O23   1.221137 D    
C152  N10   1.381068 Am   
C37   C45   1.423155 A    
C83   C85   1.394606 A    
N14   O54   1.301449 A    
C50   O21   1.222716 D    
C56   H6    1.083601 S    
C135  C141  1.410087 A    
C178  C182  1.422687 A    
C107  C145  1.412107 A    
C145  H45   1.077733 S    
C194  O37   1.220987 D    
N2    C10   1.381978 Am   
C191  C193  1.418293 A    
C25   C69   1.388002 A    
C192  C194  1.419770 A    
C73   H19   1.077162 S    
C112  C114  1.395634 A    
C187  C189  1.411415 A    
C11   H15   1.083053 S    
C188  C190  1.411628 A    
C7    O14   1.223142 D    
N9    C163  1.436641 S    
O45   C226  1.294948 A    
N7    C123  1.381441 Am   
C130  C132  1.393977 A    
C71   H17   1.083684 S    
C43   C45   1.410851 A    
O11   Cr3   1.891877 S    
O12   C6    1.295255 A    
C104  C130  1.403695 A    
C136  C142  1.409788 A    
C103  C223  1.458250 S    
C44   C46   1.409205 A    
C214  H68   1.077484 S    
C46   C48   1.410773 A    
C74   H20   1.076259 S    
C12   H16   1.083068 S    
C138  C140  1.421926 A    
C115  C117  1.415978 A    
C126  C128  1.404610 A    
