data_mof_unit_63500.cif
_audit_creation_date              2013-03-05T16:29:29-0500
_audit_creation_method            fapswitch 2.2
_symmetry_space_group_name_H-M    P1
_symmetry_Int_Tables_number       1
_space_group_crystal_system       triclinic
_cell_length_a                    18.277121
_cell_length_b                    18.277121
_cell_length_c                    35.58691
_cell_angle_alpha                 89.999959
_cell_angle_beta                  90.0
_cell_angle_gamma                 89.999988
_cell_volume                      11887.9194572

loop_
_atom_site_label
_atom_site_type_symbol
_atom_site_description
_atom_site_fract_x
_atom_site_fract_y
_atom_site_fract_z
_atom_type_partial_charge
O1    O     O_R   0.560470 0.107230 0.500140 -0.602598
O2    O     O_R   0.892770 0.560470 0.500140 -0.600584
O3    O     O_R   0.439530 0.892770 0.500140 -0.600689
O4    O     O_R   0.107230 0.439530 0.500140 -0.602700
O5    O     O_R   0.560470 0.892770 0.499860 -0.600687
O6    O     O_R   0.892770 0.439530 0.499860 -0.602698
O7    O     O_R   0.439530 0.107230 0.499860 -0.602593
O8    O     O_R   0.107230 0.560470 0.499860 -0.600583
O9    O     O_R   0.060470 0.607230 0.000140 -0.600688
O10   O     O_R   0.392770 0.060470 0.000140 -0.602697
O11   O     O_R   0.939530 0.392770 0.000140 -0.602594
O12   O     O_R   0.607230 0.939530 0.000140 -0.600584
O13   O     O_R   0.060470 0.392770 0.999860 -0.602594
O14   O     O_R   0.392770 0.939530 0.999860 -0.600583
O15   O     O_R   0.939530 0.607230 0.999860 -0.600688
O16   O     O_R   0.607230 0.060470 0.999860 -0.602698
C1    C     C_R   0.500000 0.141138 0.500000 0.958060
C2    C     C_R   0.858862 0.499999 0.499968 0.963219
C3    C     C_R   0.500000 0.858861 0.500000 0.968416
C4    C     C_R   0.141138 0.499999 0.500032 0.963215
C5    C     C_R   0.000000 0.641139 0.000000 0.968409
C6    C     C_R   0.358861 0.000001 0.000032 0.963216
C7    C     C_R   0.000000 0.358862 0.000000 0.958066
C8    C     C_R   0.641138 0.000001 0.999968 0.963214
O17   O     O_R   0.560470 0.999900 0.444700 -0.590950
O18   O     O_R   0.000100 0.560470 0.444700 -0.591051
O19   O     O_R   0.439530 0.000100 0.444700 -0.584436
O20   O     O_R   0.999900 0.439530 0.444700 -0.584341
O21   O     O_R   0.560470 0.000100 0.555300 -0.584435
O22   O     O_R   0.000100 0.439530 0.555300 -0.584341
O23   O     O_R   0.439530 0.999900 0.555300 -0.590954
O24   O     O_R   0.999900 0.560470 0.555300 -0.591053
O25   O     O_R   0.060470 0.499900 0.944700 -0.584436
O26   O     O_R   0.500100 0.060470 0.944700 -0.584341
O27   O     O_R   0.939530 0.500100 0.944700 -0.590951
O28   O     O_R   0.499900 0.939530 0.944700 -0.591050
O29   O     O_R   0.060470 0.500100 0.055300 -0.590952
O30   O     O_R   0.500100 0.939530 0.055300 -0.591051
O31   O     O_R   0.939530 0.499900 0.055300 -0.584437
O32   O     O_R   0.499900 0.060470 0.055300 -0.584342
C9    C     C_1   0.500000 0.217515 0.500000 -0.071402
C10   C     C_1   0.782484 0.499997 0.499980 -0.072267
C11   C     C_1   0.500000 0.782483 0.500000 -0.073140
C12   C     C_1   0.217516 0.499997 0.500019 -0.072267
C13   C     C_1   1.000000 0.717517 0.000000 -0.073144
C14   C     C_1   0.282484 0.000003 0.000019 -0.072270
C15   C     C_1   0.000000 0.282484 1.000000 -0.071404
C16   C     C_1   0.717516 0.000003 0.999980 -0.072271
C17   C     C_R   0.500005 0.999771 0.426730 0.992841
C18   C     C_R   0.000229 0.500005 0.426730 0.992837
C19   C     C_R   0.499995 0.999771 0.573269 0.992838
C20   C     C_R   0.999771 0.500005 0.573269 0.992838
C21   C     C_R   0.999995 0.500229 0.926730 0.992841
C22   C     C_R   0.499771 0.999995 0.926730 0.992836
C23   C     C_R   0.000005 0.500229 0.073270 0.992842
C24   C     C_R   0.500229 0.999995 0.073270 0.992839
Zn1   Zn    Zn3+2 0.580800 0.000000 0.500000 1.152643
Zn2   Zn    Zn3+2 0.000000 0.580800 0.500000 1.147322
Zn3   Zn    Zn3+2 0.419200 0.000000 0.500000 1.152640
Zn4   Zn    Zn3+2 0.000000 0.419200 0.500000 1.157946
Zn5   Zn    Zn3+2 0.080800 0.500000 0.000000 1.152643
Zn6   Zn    Zn3+2 0.500000 0.080800 0.000000 1.157947
Zn7   Zn    Zn3+2 0.919200 0.500000 0.000000 1.152643
Zn8   Zn    Zn3+2 0.500000 0.919200 0.000000 1.147326
O33   O     O_R   0.392480 0.499860 0.468850 -0.601055
O34   O     O_R   0.500140 0.392480 0.468850 -0.600601
O35   O     O_R   0.607520 0.500140 0.468850 -0.600350
O36   O     O_R   0.499860 0.607520 0.468850 -0.600805
O37   O     O_R   0.392480 0.500140 0.531150 -0.600347
O38   O     O_R   0.500140 0.607520 0.531150 -0.600802
O39   O     O_R   0.607520 0.499860 0.531150 -0.601052
O40   O     O_R   0.499860 0.392480 0.531150 -0.600598
O41   O     O_R   0.892480 0.999860 0.968850 -0.600350
O42   O     O_R   0.000140 0.892480 0.968850 -0.600804
O43   O     O_R   0.107520 0.000140 0.968850 -0.601055
O44   O     O_R   0.999860 0.107520 0.968850 -0.600602
O45   O     O_R   0.892480 0.000140 0.031150 -0.601053
O46   O     O_R   0.000140 0.107520 0.031150 -0.600600
O47   O     O_R   0.107520 0.999860 0.031150 -0.600349
O48   O     O_R   0.999860 0.892480 0.031150 -0.600804
Zn9   Zn    Zn3+2 0.500000 0.500000 0.458350 1.119345
Zn10  Zn    Zn3+2 0.500000 0.500000 0.541650 1.119353
Zn11  Zn    Zn3+2 0.000000 1.000000 0.958350 1.119342
Zn12  Zn    Zn3+2 0.000000 0.000000 0.041650 1.119345
C25   C     C_R   0.448569 0.044415 0.173373 0.210503
C26   C     C_R   0.955576 0.448579 0.173373 0.210404
C27   C     C_R   0.542426 0.948773 0.173803 0.211679
C28   C     C_R   0.051226 0.542428 0.173803 0.211769
C29   C     C_R   0.457574 0.948772 0.826197 0.211677
C30   C     C_R   0.948773 0.542427 0.826197 0.211769
C31   C     C_R   0.551430 0.044415 0.826627 0.210506
C32   C     C_R   0.044425 0.448580 0.826627 0.210404
C33   C     C_R   0.957571 0.551225 0.673803 0.211677
C34   C     C_R   0.448777 0.957569 0.673803 0.211767
C35   C     C_R   0.051435 0.455589 0.673372 0.210502
C36   C     C_R   0.544418 0.051427 0.673373 0.210404
C37   C     C_R   0.948568 0.455587 0.326627 0.210503
C38   C     C_R   0.455576 0.051421 0.326627 0.210404
C39   C     C_R   0.042427 0.551227 0.326197 0.211677
C40   C     C_R   0.551226 0.957573 0.326197 0.211770
C41   C     C_R   0.451642 0.046598 0.133983 0.194513
C42   C     C_R   0.953396 0.451649 0.133983 0.194508
C43   C     C_R   0.545463 0.950887 0.134369 0.188799
C44   C     C_R   0.049115 0.545462 0.134370 0.188810
C45   C     C_R   0.454537 0.950886 0.865631 0.188801
C46   C     C_R   0.950885 0.545462 0.865630 0.188810
C47   C     C_R   0.548357 0.046598 0.866017 0.194512
C48   C     C_R   0.046604 0.451650 0.866017 0.194507
C49   C     C_R   0.954534 0.549110 0.634369 0.188802
C50   C     C_R   0.450889 0.954534 0.634369 0.188814
C51   C     C_R   0.048361 0.453406 0.633983 0.194514
C52   C     C_R   0.546599 0.048356 0.633983 0.194511
C53   C     C_R   0.951641 0.453403 0.366017 0.194513
C54   C     C_R   0.453396 0.048351 0.366017 0.194508
C55   C     C_R   0.045464 0.549112 0.365631 0.188801
C56   C     C_R   0.549115 0.954538 0.365630 0.188811
C57   C     C_R   0.499906 0.999838 0.114480 -0.343230
C58   C     C_R   0.000161 0.499907 0.114480 -0.343211
C59   C     C_R   0.500094 0.999838 0.885520 -0.343231
C60   C     C_R   0.999839 0.499907 0.885520 -0.343212
C61   C     C_R   0.000094 0.500162 0.614479 -0.343230
C62   C     C_R   0.499839 0.000093 0.614480 -0.343211
C63   C     C_R   0.999906 0.500162 0.385520 -0.343231
C64   C     C_R   0.500161 0.000093 0.385520 -0.343212
C65   C     C_R   0.358627 0.499999 0.500001 0.911073
C66   C     C_R   0.500000 0.358627 0.500000 0.910858
C67   C     C_R   0.641373 0.499999 0.499999 0.911073
C68   C     C_R   0.500000 0.641373 0.500000 0.911290
C69   C     C_R   0.858627 0.000001 0.999999 0.911075
C70   C     C_R   1.000000 0.858627 0.000000 0.911292
C71   C     C_R   0.141373 0.000001 0.000001 0.911074
C72   C     C_R   0.000000 0.141373 1.000000 0.910859
C73   C     C_R   0.494599 0.996046 0.193042 -0.209832
C74   C     C_R   0.003947 0.494605 0.193042 -0.209851
C75   C     C_R   0.505401 0.996047 0.806958 -0.209833
C76   C     C_R   0.996053 0.494606 0.806957 -0.209851
C77   C     C_R   0.005402 0.503954 0.693042 -0.209832
C78   C     C_R   0.496051 0.005396 0.693042 -0.209853
C79   C     C_R   0.994599 0.503954 0.306958 -0.209832
C80   C     C_R   0.503947 0.005394 0.306957 -0.209852
C81   C     C_1   0.497479 0.999444 0.233214 0.216217
C82   C     C_1   0.000549 0.497487 0.233215 0.216285
C83   C     C_1   0.502520 0.999444 0.766786 0.216219
C84   C     C_1   0.999451 0.497487 0.766785 0.216285
C85   C     C_1   0.002521 0.500557 0.733214 0.216218
C86   C     C_1   0.499450 0.002514 0.733214 0.216287
C87   C     C_1   0.997479 0.500556 0.266786 0.216218
C88   C     C_1   0.500549 0.002513 0.266785 0.216284
C89   C     C_1   0.500000 0.282236 0.500000 -0.108150
C90   C     C_1   0.717764 0.499998 0.499993 -0.109216
C91   C     C_1   0.500000 0.717763 0.500000 -0.110285
C92   C     C_1   0.282236 0.499998 0.500007 -0.109216
C93   C     C_1   1.000000 0.782237 0.000000 -0.110287
C94   C     C_1   0.217764 0.000002 0.000007 -0.109218
C95   C     C_1   0.000000 0.217764 1.000000 -0.108154
C96   C     C_1   0.782236 0.000002 0.999993 -0.109218
N1    N     N_R   0.397303 0.089798 0.193303 0.252213
O49   O     O_R   0.393332 0.159560 0.186378 -0.231258
O50   O     O_R   0.354107 0.061345 0.218428 -0.285033
N2    N     N_R   0.910188 0.397318 0.193304 0.252185
O51   O     O_R   0.840424 0.393356 0.186380 -0.231105
O52   O     O_R   0.938637 0.354119 0.218429 -0.285397
N3    N     N_R   0.589550 0.900163 0.194346 0.260586
O53   O     O_R   0.659626 0.899528 0.187903 -0.238961
O54   O     O_R   0.562314 0.855596 0.219189 -0.274905
N4    N     N_R   0.099839 0.589549 0.194347 0.260600
O55   O     O_R   0.100480 0.659624 0.187901 -0.238687
O56   O     O_R   0.144403 0.562311 0.219190 -0.275177
N5    N     N_R   0.410451 0.900162 0.805654 0.260584
O57   O     O_R   0.340375 0.899525 0.812097 -0.238962
O58   O     O_R   0.437688 0.855594 0.780812 -0.274901
N6    N     N_R   0.900160 0.589548 0.805653 0.260599
O59   O     O_R   0.899517 0.659623 0.812098 -0.238688
O60   O     O_R   0.855596 0.562308 0.780810 -0.275175
N7    N     N_R   0.602695 0.089800 0.806697 0.252216
O61   O     O_R   0.606668 0.159561 0.813623 -0.231255
O62   O     O_R   0.645890 0.061347 0.781570 -0.285042
N8    N     N_R   0.089815 0.397321 0.806696 0.252186
O63   O     O_R   0.159579 0.393363 0.813619 -0.231103
O64   O     O_R   0.061367 0.354120 0.781571 -0.285400
N9    N     N_R   0.910444 0.599832 0.694346 0.260585
O65   O     O_R   0.840368 0.600463 0.687903 -0.238961
O66   O     O_R   0.937678 0.644402 0.719188 -0.274904
N10   N     N_R   0.400168 0.910444 0.694347 0.260599
O67   O     O_R   0.399532 0.840369 0.687902 -0.238687
O68   O     O_R   0.355601 0.937679 0.719189 -0.275176
N11   N     N_R   0.102705 0.410210 0.693303 0.252215
O69   O     O_R   0.106690 0.340450 0.686373 -0.231261
O70   O     O_R   0.145894 0.438665 0.718431 -0.285035
N12   N     N_R   0.589801 0.102693 0.693303 0.252187
O71   O     O_R   0.659561 0.106677 0.686372 -0.231110
O72   O     O_R   0.561349 0.145882 0.718433 -0.285399
N13   N     N_R   0.897300 0.410205 0.306697 0.252214
O73   O     O_R   0.893323 0.340443 0.313624 -0.231258
O74   O     O_R   0.854108 0.438659 0.281570 -0.285035
N14   N     N_R   0.410187 0.102681 0.306696 0.252185
O75   O     O_R   0.340423 0.106641 0.313620 -0.231106
O76   O     O_R   0.438635 0.145881 0.281571 -0.285394
N15   N     N_R   0.089552 0.599836 0.305654 0.260585
O77   O     O_R   0.159628 0.600470 0.312097 -0.238961
O78   O     O_R   0.062316 0.644404 0.280812 -0.274904
N16   N     N_R   0.599839 0.910451 0.305653 0.260600
O79   O     O_R   0.600481 0.840376 0.312098 -0.238687
O80   O     O_R   0.644402 0.937690 0.280810 -0.275178
N17   N     N_R   0.401678 0.092320 0.113703 0.249800
O81   O     O_R   0.417057 0.161020 0.108358 -0.270714
O82   O     O_R   0.346123 0.063273 0.096402 -0.367056
N18   N     N_R   0.907671 0.401687 0.113704 0.249878
O83   O     O_R   0.838971 0.417067 0.108361 -0.270541
O84   O     O_R   0.936716 0.346137 0.096398 -0.366856
N19   N     N_R   0.595154 0.903592 0.114640 0.253824
O85   O     O_R   0.594795 0.833480 0.120981 -0.266953
O86   O     O_R   0.642452 0.930781 0.091146 -0.367950
N20   N     N_R   0.096415 0.595148 0.114640 0.253787
O87   O     O_R   0.166526 0.594784 0.120982 -0.267140
O88   O     O_R   0.069230 0.642450 0.091147 -0.368278
N21   N     N_R   0.404847 0.903591 0.885360 0.253825
O89   O     O_R   0.405207 0.833479 0.879019 -0.266953
O90   O     O_R   0.357549 0.930779 0.908853 -0.367950
N22   N     N_R   0.903584 0.595147 0.885360 0.253788
O91   O     O_R   0.833473 0.594782 0.879018 -0.267139
O92   O     O_R   0.930767 0.642449 0.908852 -0.368277
N23   N     N_R   0.598320 0.092322 0.886297 0.249800
O93   O     O_R   0.582939 0.161021 0.891643 -0.270714
O94   O     O_R   0.653877 0.063275 0.903597 -0.367053
N24   N     N_R   0.092331 0.401689 0.886296 0.249878
O95   O     O_R   0.161031 0.417069 0.891638 -0.270539
O96   O     O_R   0.063286 0.346139 0.903603 -0.366857
N25   N     N_R   0.904840 0.596402 0.614639 0.253824
O97   O     O_R   0.905195 0.666514 0.620981 -0.266955
O98   O     O_R   0.857545 0.569211 0.591146 -0.367955
N26   N     N_R   0.403593 0.904845 0.614640 0.253787
O99   O     O_R   0.333482 0.905203 0.620982 -0.267141
O100  O     O_R   0.430781 0.857546 0.591147 -0.368284
N27   N     N_R   0.098327 0.407686 0.613703 0.249801
O101  O     O_R   0.082947 0.338988 0.608353 -0.270721
O102  O     O_R   0.153885 0.436735 0.596405 -0.367049
N28   N     N_R   0.592320 0.098321 0.613703 0.249879
O103  O     O_R   0.661018 0.082938 0.608353 -0.270553
O104  O     O_R   0.563272 0.153878 0.596404 -0.366842
N29   N     N_R   0.901677 0.407681 0.386297 0.249800
O105  O     O_R   0.917056 0.338983 0.391644 -0.270717
O106  O     O_R   0.846120 0.436729 0.403597 -0.367053
N30   N     N_R   0.407670 0.098312 0.386296 0.249878
O107  O     O_R   0.338970 0.082932 0.391639 -0.270541
O108  O     O_R   0.436715 0.153863 0.403602 -0.366854
N31   N     N_R   0.095156 0.596406 0.385360 0.253825
O109  O     O_R   0.094798 0.666518 0.379019 -0.266954
O110  O     O_R   0.142453 0.569217 0.408854 -0.367952
N32   N     N_R   0.596415 0.904852 0.385360 0.253788
O111  O     O_R   0.666526 0.905217 0.379018 -0.267140
O112  O     O_R   0.569231 0.857550 0.408853 -0.368278

loop_
_geom_bond_atom_site_label_1
_geom_bond_atom_site_label_2
_geom_bond_distance
_ccdc_geom_bond_type
C83   C86   1.197328 T    
C54   N30   1.432871 S    
N1    O49   1.300681 A    
C29   C75   1.406924 A    
O27   C21   1.276807 A    
N27   O102  1.300754 A    
N5    O57   1.301198 A    
C27   C73   1.406923 A    
C27   N3    1.437231 S    
N23   O93   1.300691 A    
C40   C56   1.404956 A    
O24   Zn2   2.002729 S    
O42   Zn11  2.000369 S    
O48   Zn12  2.000369 S    
O29   C23   1.276805 A    
O39   C67   1.269552 A    
C80   C88   1.431918 S    
N22   O92   1.301239 A    
N8    O63   1.300681 A    
C21   C60   1.466558 S    
C35   N11   1.438425 S    
N7    O62   1.301240 A    
O10   Zn6   1.994775 S    
N17   O81   1.300691 A    
O10   C6    1.267105 A    
C36   C52   1.403458 A    
C79   C87   1.431921 S    
C12   C92   1.182897 T    
N16   O80   1.301103 A    
O9    Zn5   1.994773 S    
O36   Zn9   2.000367 S    
C77   C85   1.431921 S    
N3    O54   1.301104 A    
N25   O98   1.301240 A    
C33   N9    1.437232 S    
O35   C67   1.269496 A    
C48   C60   1.410763 A    
C2    C10   1.395963 S    
C67   C90   1.396198 S    
C39   C55   1.404953 A    
O47   Zn12  2.000367 S    
O12   Zn8   1.994773 S    
C66   C89   1.396206 S    
N20   O88   1.301239 A    
N14   O75   1.300681 A    
C38   C54   1.403457 A    
C9    C89   1.182899 T    
N32   O112  1.301239 A    
O11   Zn7   1.994775 S    
O26   Zn6   2.002729 S    
C72   C95   1.396206 S    
O32   Zn6   2.002729 S    
N30   O107  1.300691 A    
O13   C7    1.267126 A    
N29   O105  1.300690 A    
C24   C57   1.466555 S    
C36   N12   1.438423 S    
O46   C72   1.269527 A    
O24   C20   1.276806 A    
O37   Zn10  2.000369 S    
C40   C80   1.406924 A    
C81   C88   1.197327 T    
C4    C12   1.395963 S    
O20   C18   1.276984 A    
O27   Zn7   2.002729 S    
C26   C74   1.406859 A    
O31   C23   1.276983 A    
N7    O61   1.300683 A    
C37   C53   1.403457 A    
O43   C71   1.269549 A    
C51   C61   1.410761 A    
O7    C1    1.267127 A    
O22   Zn4   2.002729 S    
C51   N27   1.432869 S    
N27   O101  1.300691 A    
O3    C3    1.267135 A    
C70   C93   1.396195 S    
C32   C48   1.403456 A    
O36   C68   1.269519 A    
C5    C13   1.395966 S    
C42   C58   1.410763 A    
C15   C95   1.182899 T    
O39   Zn10  2.000367 S    
C54   C64   1.410762 A    
N9    O66   1.301103 A    
C16   C96   1.182897 T    
C37   N13   1.438421 S    
O37   C65   1.269499 A    
N15   O77   1.301199 A    
N1    O50   1.301240 A    
O28   C22   1.276808 A    
O32   C24   1.276983 A    
C22   C59   1.466555 S    
N4    O56   1.301104 A    
N5    O58   1.301106 A    
O13   Zn5   1.994775 S    
C39   C79   1.406925 A    
C32   C76   1.406856 A    
C13   C93   1.182892 T    
O16   Zn6   1.994773 S    
O6    C2    1.267106 A    
C41   N17   1.432869 S    
O44   Zn11  2.000367 S    
O7    Zn3   1.994773 S    
N22   O91   1.301169 A    
C28   C44   1.404953 A    
N6    O60   1.301104 A    
C46   N22   1.437016 S    
C47   N23   1.432869 S    
N31   O110  1.301239 A    
O25   C21   1.276985 A    
C14   C94   1.182897 T    
N28   O104  1.300757 A    
C35   C77   1.406861 A    
C1    C9    1.395959 S    
O48   C70   1.269522 A    
N16   O79   1.301198 A    
C31   N7    1.438419 S    
C11   C91   1.182892 T    
C8    C16   1.395963 S    
O6    Zn4   1.994775 S    
C55   C63   1.412367 A    
C30   C46   1.404956 A    
N14   O76   1.301242 A    
C43   N19   1.437018 S    
N20   O87   1.301170 A    
N18   O83   1.300690 A    
O45   C69   1.269552 A    
C3    C11   1.395966 S    
O45   Zn12  2.000369 S    
N13   O74   1.301243 A    
N21   O89   1.301168 A    
N9    O65   1.301198 A    
C17   C64   1.466558 S    
C34   C50   1.404953 A    
O46   Zn12  2.000367 S    
O34   C66   1.269524 A    
C38   C80   1.406857 A    
N29   O106  1.300755 A    
O33   C65   1.269549 A    
C44   C58   1.412370 A    
C52   C62   1.410760 A    
N25   O97   1.301169 A    
C65   C92   1.396198 S    
O1    Zn1   1.994773 S    
C75   C83   1.431921 S    
C74   C82   1.431918 S    
C30   C76   1.406926 A    
C20   C61   1.466551 S    
C68   C91   1.396195 S    
O33   Zn9   2.000369 S    
N19   O85   1.301170 A    
C53   C63   1.410759 A    
C25   C73   1.406857 A    
O47   C71   1.269499 A    
O4    Zn4   1.994773 S    
N26   O100  1.301239 A    
C49   N25   1.437016 S    
N24   O95   1.300690 A    
O8    C4    1.267156 A    
O9    C5    1.267134 A    
O18   Zn2   2.002729 S    
O20   Zn4   2.002729 S    
C50   N26   1.437017 S    
C71   C94   1.396198 S    
C27   C43   1.404956 A    
O14   Zn8   1.994775 S    
C32   N8    1.438417 S    
O25   Zn5   2.002729 S    
C29   C45   1.404956 A    
C6    C14   1.395963 S    
O21   Zn1   2.002729 S    
O26   C22   1.276984 A    
C52   N28   1.432869 S    
O42   C70   1.269522 A    
O30   Zn8   2.002729 S    
N4    O55   1.301197 A    
C34   C78   1.406925 A    
N12   O71   1.300688 A    
O19   Zn3   2.002729 S    
C30   N6    1.437231 S    
N11   O70   1.301242 A    
C26   C42   1.403453 A    
O17   Zn1   2.002729 S    
O43   Zn11  2.000367 S    
C53   N29   1.432869 S    
C25   C41   1.403457 A    
N6    O59   1.301196 A    
N15   O78   1.301105 A    
C29   N5    1.437229 S    
O21   C19   1.276981 A    
O38   Zn10  2.000367 S    
O23   Zn3   2.002729 S    
C34   N10   1.437233 S    
O22   C20   1.276982 A    
N28   O103  1.300693 A    
N12   O72   1.301244 A    
O29   Zn5   2.002729 S    
C56   C64   1.412369 A    
N19   O86   1.301241 A    
O1    C1    1.267125 A    
C82   C87   1.197327 T    
C76   C84   1.431918 S    
N2    O52   1.301241 A    
C18   C63   1.466555 S    
C23   C58   1.466558 S    
O23   C19   1.276806 A    
O2    C2    1.267155 A    
C40   N16   1.437231 S    
C69   C96   1.396198 S    
N8    O64   1.301242 A    
N31   O109  1.301168 A    
N23   O94   1.300756 A    
C55   N31   1.437019 S    
O35   Zn9   2.000367 S    
O5    C3    1.267134 A    
N21   O90   1.301240 A    
O30   C24   1.276805 A    
O31   Zn7   2.002729 S    
O12   C8    1.267155 A    
C28   N4    1.437232 S    
O3    Zn3   1.994775 S    
C47   C59   1.410760 A    
O5    Zn1   1.994775 S    
C84   C85   1.197327 T    
C41   C57   1.410759 A    
N2    O51   1.300681 A    
O14   C6    1.267156 A    
C7    C15   1.395959 S    
O18   C18   1.276807 A    
N32   O111  1.301170 A    
C44   N20   1.437016 S    
N11   O69   1.300686 A    
N10   O68   1.301103 A    
N18   O84   1.300757 A    
C35   C51   1.403454 A    
C50   C62   1.412369 A    
C45   N21   1.437017 S    
C36   C78   1.406860 A    
O44   C72   1.269522 A    
O8    Zn2   1.994773 S    
C49   C61   1.412365 A    
C48   N24   1.432870 S    
C78   C86   1.431922 S    
O41   C69   1.269496 A    
O11   C7    1.267127 A    
N26   O99   1.301168 A    
N30   O108  1.300755 A    
C42   N18   1.432872 S    
C46   C60   1.412369 A    
O2    Zn2   1.994775 S    
C10   C90   1.182897 T    
O17   C17   1.276808 A    
O38   C68   1.269525 A    
N3    O53   1.301197 A    
C33   C77   1.406925 A    
C28   C74   1.406924 A    
O4    C4    1.267105 A    
O40   C66   1.269525 A    
O15   C5    1.267135 A    
C31   C75   1.406857 A    
O16   C8    1.267106 A    
N13   O73   1.300684 A    
C39   N15   1.437231 S    
C25   N1    1.438419 S    
C19   C62   1.466555 S    
O15   Zn7   1.994773 S    
C45   C59   1.412369 A    
C43   C57   1.412366 A    
N10   O67   1.301198 A    
C73   C81   1.431920 S    
C56   N32   1.437018 S    
O28   Zn8   2.002729 S    
N17   O82   1.300755 A    
C26   N2    1.438418 S    
O41   Zn11  2.000369 S    
C37   C79   1.406858 A    
O40   Zn10  2.000369 S    
N24   O96   1.300757 A    
O19   C17   1.276983 A    
C33   C49   1.404956 A    
O34   Zn9   2.000369 S    
C31   C47   1.403457 A    
C38   N14   1.438416 S    
