data_mof_unit_35643.cif
_audit_creation_date              2012-12-10T20:36:33-0500
_audit_creation_method            fapswitch 2.2
_symmetry_space_group_name_H-M    P1
_symmetry_Int_Tables_number       1
_space_group_crystal_system       triclinic
_cell_length_a                    10.520866
_cell_length_b                    10.673545
_cell_length_c                    9.906459
_cell_angle_alpha                 89.478297
_cell_angle_beta                  89.954201
_cell_angle_gamma                 90.40272
_cell_volume                      1112.3711778

loop_
_atom_site_label
_atom_site_type_symbol
_atom_type_description
_atom_site_fract_x
_atom_site_fract_y
_atom_site_fract_z
_atom_type_partial_charge
C1    C     C_R   0.504916 0.259945 0.500308 0.871459
C2    C     C_3   0.957350 0.605222 0.438072 -0.206040
C3    C     C_3   0.040235 0.503252 0.370547 -0.184521
C4    C     C_3   0.123602 0.500396 0.498582 -0.024835
C5    C     C_R   0.546832 0.062673 0.619542 0.129366
C6    C     C_R   0.528445 0.128679 0.499274 -0.129810
C7    C     C_R   0.538438 0.066003 0.375599 -0.224053
C8    C     C_R   0.539018 0.936512 0.374924 -0.238501
C9    C     C_R   0.529297 0.871101 0.497881 -0.091457
C10   C     C_R   0.546407 0.934512 0.618747 0.086747
C11   C     C_3   0.476330 0.923371 0.749658 -0.520427
C12   C     C_R   0.257872 0.500386 0.499730 0.903424
C13   C     C_3   0.476211 0.065852 0.750732 -0.105019
C14   C     C_R   0.392014 0.471313 0.071547 0.194003
C15   C     C_R   0.600846 0.547057 0.068913 0.108172
C16   C     C_R   0.600463 0.545382 0.925949 -0.121506
C17   C     C_R   0.391412 0.472995 0.929639 0.202422
C18   C     C_3   0.312998 0.356527 0.924515 -0.497679
C19   C     C_3   0.316090 0.353208 0.078105 -0.509973
C20   C     C_R   0.505338 0.739897 0.499374 0.884403
C21   C     C_R   0.742279 0.499457 0.500365 0.876335
C22   C     C_3   0.041452 0.396815 0.560344 0.064873
C23   C     C_3   0.956773 0.397005 0.433654 -0.248466
C24   C     C_3   0.876726 0.499062 0.501674 -0.035698
C25   C     C_3   0.960749 0.496033 0.627542 0.113462
C26   C     C_3   0.041778 0.599602 0.564705 0.099267
H1    H     H_    0.379965 0.107450 0.742110 0.163191
H2    H     H_    0.682032 0.580462 0.870481 0.177035
H3    H     H_    0.216687 0.374302 0.882803 0.207936
H4    H     H_    0.364125 0.278301 0.877481 0.228733
H5    H     H_    0.919004 0.690973 0.389138 0.139626
H6    H     H_    0.536375 0.888924 0.278818 0.168139
H7    H     H_    0.379631 0.882130 0.737812 0.200796
N1    N     N_R   0.499140 0.499140 0.142800 -0.122665
N2    N     N_R   0.499140 0.499180 0.857150 -0.121434
O1    O     O_R   0.500020 0.316790 0.614690 -0.601468
O2    O     O_R   0.500000 0.316760 0.385350 -0.623774
O3    O     O_R   0.313960 0.499990 0.614650 -0.616488
O4    O     O_R   0.313940 0.499950 0.385310 -0.624854
O5    O     O_R   0.500000 0.683240 0.614650 -0.616119
O6    O     O_R   0.499980 0.683210 0.385310 -0.637951
O7    O     O_R   0.686060 0.500050 0.614690 -0.618075
O8    O     O_R   0.686040 0.500010 0.385350 -0.645838
Zn1   Zn    Zn3+2 0.500010 0.500020 0.653130 0.950700
Zn2   Zn    Zn3+2 0.499990 0.499980 0.346870 0.925690
H8    H     H_    0.918195 0.313472 0.381274 0.145678
H9    H     H_    0.535071 0.879102 0.830015 0.202956
N3    N     N_3   0.553499 0.119463 0.859095 -0.437736
H10   H     H_    0.642873 0.077010 0.862099 0.195317
H11   H     H_    0.508402 0.098735 0.950796 0.181286
N4    N     N_3   0.709510 0.601541 0.131979 -0.478328
H12   H     H_    0.680335 0.661204 0.208730 0.225994
H13   H     H_    0.767685 0.529889 0.168017 0.218033
H14   H     H_    0.221183 0.367321 0.124583 0.197123
H15   H     H_    0.371048 0.273309 0.120262 0.211564
N5    N     N_3   0.091238 0.285738 0.627779 -0.477387
H16   H     H_    0.013524 0.229348 0.654703 0.179820
H17   H     H_    0.143459 0.236070 0.556469 0.176959
N6    N     N_3   0.917073 0.492596 0.767141 -0.462650
H18   H     H_    0.997710 0.492114 0.828640 0.173833
H19   H     H_    0.870863 0.406702 0.782848 0.194971
N7    N     N_3   0.091491 0.708706 0.635023 -0.470936
H20   H     H_    0.013583 0.758103 0.671820 0.186416
H21   H     H_    0.141915 0.676325 0.719067 0.188051
H22   H     H_    0.076208 0.506682 0.265212 0.150876
H23   H     H_    0.535471 0.115510 0.279702 0.169034

loop_
_geom_bond_atom_site_label_1
_geom_bond_atom_site_label_2
_ccdc_geom_bond_type
C14   N1    A    
C13   N3    S    
C4    C26   S    
C23   C24   S    
N1    Zn2   S    
C16   H2    S    
N7    H20   S    
C18   H4    S    
C15   N4    S    
C4    C12   S    
C4    C22   S    
C9    C10   A    
C15   N1    A    
C11   H9    S    
O1    Zn1   S    
C1    O2    A    
O4    Zn2   S    
C5    C13   S    
C12   O4    A    
N3    H11   S    
C17   C18   S    
C26   N7    S    
N6    H18   S    
C2    C26   S    
C23   H8    S    
O5    Zn1   S    
C24   C25   S    
C7    H23   S    
O3    Zn1   S    
N2    Zn1   S    
C11   C13   S    
C14   C17   A    
C3    H22   S    
O7    Zn1   S    
C19   H14   S    
C5    C10   A    
N3    H10   S    
N5    H17   S    
C20   O6    A    
C6    C7    A    
C2    C3    S    
C2    H5    S    
C16   N2    A    
C2    C24   S    
C5    C6    A    
C20   O5    A    
C9    C20   S    
N6    H19   S    
C7    C8    A    
C10   C11   S    
O2    Zn2   S    
C15   C16   A    
C8    H6    S    
C12   O3    A    
C11   H7    S    
C17   N2    A    
N5    H16   S    
N7    H21   S    
C18   C19   S    
C21   C24   S    
C19   H15   S    
C1    C6    S    
C18   H3    S    
O6    Zn2   S    
C22   C23   S    
C13   H1    S    
C22   N5    S    
C21   O7    A    
C25   N6    S    
C25   C26   S    
C21   O8    A    
C3    C23   S    
C14   C19   S    
O8    Zn2   S    
C3    C4    S    
N4    H12   S    
C1    O1    A    
C8    C9    A    
N4    H13   S    
C22   C25   S    
