data_mof_unit_61286.cif
_audit_creation_date              2012-12-10T18:24:43-0500
_audit_creation_method            fapswitch 2.2
_symmetry_space_group_name_H-M    P1
_symmetry_Int_Tables_number       1
_space_group_crystal_system       triclinic
_cell_length_a                    30.18572
_cell_length_b                    30.826905
_cell_length_c                    24.64615
_cell_angle_alpha                 90.000043
_cell_angle_beta                  128.317563
_cell_angle_gamma                 90.0
_cell_volume                      17993.7341458

loop_
_atom_site_label
_atom_site_type_symbol
_atom_type_description
_atom_site_fract_x
_atom_site_fract_y
_atom_site_fract_z
_atom_type_partial_charge
C1    C     C_R   0.811599 0.810209 0.501557 0.866734
C2    C     C_R   0.535170 0.751390 0.069885 0.282474
C3    C     C_3   0.844849 0.155888 0.499801 0.091683
C4    C     C_3   0.597112 0.593789 0.501809 0.116366
C5    C     C_3   0.402888 0.593789 0.498191 0.116366
C6    C     C_3   0.097112 0.093789 0.501809 0.116365
C7    C     C_3   0.902888 0.093788 0.498192 0.116369
C8    C     C_3   0.652272 0.604002 0.577955 0.060052
C9    C     C_3   0.347727 0.604000 0.422045 0.060052
C10   C     C_3   0.152271 0.104002 0.577956 0.060051
C11   C     C_3   0.847723 0.103996 0.422046 0.060050
C12   C     C_3   0.561547 0.636289 0.471994 -0.565215
C13   C     C_R   0.964830 0.251389 0.930116 0.282473
C14   C     C_3   0.438452 0.636289 0.528003 -0.565217
C15   C     C_3   0.061547 0.136289 0.471993 -0.565216
C16   C     C_3   0.938449 0.136291 0.527995 -0.565224
C17   C     C_R   0.063084 0.941289 0.500270 0.867005
C18   C     C_R   0.936917 0.941288 0.499730 0.866996
C19   C     C_R   0.563084 0.441290 0.500270 0.867013
C20   C     C_R   0.436916 0.441289 0.499730 0.867006
C21   C     C_R   0.438546 0.560449 0.499422 0.858415
C22   C     C_R   0.561454 0.560449 0.500578 0.858414
C23   C     C_R   0.938546 0.060448 0.499422 0.858420
C24   C     C_R   0.035170 0.251389 0.069885 0.282473
C25   C     C_R   0.061453 0.060449 0.500578 0.858416
C26   C     C_R   0.817556 0.750110 0.634485 0.844761
C27   C     C_R   0.182444 0.750110 0.365515 0.844761
C28   C     C_R   0.317556 0.250110 0.634485 0.844761
C29   C     C_R   0.682444 0.250110 0.365515 0.844761
C30   C     C_R   0.612155 0.787259 0.253966 -0.196549
C31   C     C_R   0.387844 0.787259 0.746034 -0.196552
C32   C     C_R   0.112159 0.287260 0.253967 -0.196554
C33   C     C_R   0.887852 0.287256 0.746034 -0.196553
C34   C     C_R   0.576716 0.787761 0.182059 -0.164409
C35   C     C_3   0.901505 0.826702 0.520335 -0.388825
C36   C     C_R   0.423284 0.787761 0.817940 -0.164406
C37   C     C_R   0.076720 0.287762 0.182060 -0.164404
C38   C     C_R   0.923292 0.287758 0.817941 -0.164407
C39   C     C_R   0.573161 0.751269 0.145527 0.088735
C40   C     C_R   0.426840 0.751268 0.854473 0.088735
C41   C     C_R   0.073160 0.251268 0.145527 0.088735
C42   C     C_R   0.926840 0.251268 0.854474 0.088735
C43   C     C_R   0.605961 0.714482 0.181783 -0.164747
C44   C     C_R   0.394040 0.714482 0.818217 -0.164749
C45   C     C_R   0.105957 0.214480 0.181783 -0.164748
C46   C     C_3   0.098500 0.826701 0.479680 -0.388831
C47   C     C_R   0.894033 0.214485 0.818217 -0.164750
C48   C     C_R   0.642024 0.714244 0.253650 -0.196809
C49   C     C_R   0.357976 0.714244 0.746349 -0.196805
C50   C     C_R   0.142020 0.214243 0.253651 -0.196806
C51   C     C_R   0.857969 0.214247 0.746350 -0.196803
C52   C     C_3   0.942256 0.928244 0.627952 -0.878618
C53   C     C_3   0.057742 0.928249 0.372048 -0.878616
C54   C     C_3   0.442258 0.428248 0.627953 -0.878620
C55   C     C_3   0.557740 0.428249 0.372047 -0.878620
C56   C     C_3   0.807496 0.942120 0.389778 -1.001905
C57   C     C_3   0.401499 0.326701 0.520320 -0.388835
C58   C     C_3   0.192504 0.942126 0.610219 -1.001900
C59   C     C_3   0.307497 0.442126 0.389780 -1.001900
C60   C     C_3   0.692502 0.442128 0.610218 -1.001903
C61   C     C_3   0.630804 0.534436 0.456814 -0.993876
C62   C     C_3   0.369200 0.534437 0.543193 -0.993877
C63   C     C_3   0.130804 0.034436 0.456815 -0.993879
C64   C     C_3   0.869213 0.034440 0.543213 -0.993881
C65   C     C_3   0.746210 0.646423 0.629284 -0.882314
C66   C     C_3   0.253788 0.646420 0.370717 -0.882312
C67   C     C_3   0.246209 0.146424 0.629285 -0.882316
C68   C     C_3   0.598503 0.326700 0.479687 -0.388840
C69   C     C_3   0.753783 0.146412 0.370721 -0.882305
C70   C     C_3   0.693220 0.565083 0.614563 -0.862351
C71   C     C_3   0.306780 0.565081 0.385441 -0.862356
C72   C     C_3   0.193220 0.065084 0.614564 -0.862350
C73   C     C_3   0.806779 0.065074 0.385451 -0.862374
C74   C     C_3   0.785108 0.832530 0.366994 -0.945944
C75   C     C_3   0.214912 0.832542 0.633012 -0.945931
C76   C     C_3   0.285087 0.332543 0.366988 -0.945936
C77   C     C_3   0.714921 0.332548 0.633015 -0.945933
C78   C     C_3   0.935050 0.863864 0.519564 -0.464553
C79   C     C_3   0.064952 0.863864 0.480441 -0.464554
C80   C     C_3   0.435047 0.363864 0.519559 -0.464556
C81   C     C_R   0.188401 0.810209 0.498443 0.866748
C82   C     C_3   0.564953 0.363864 0.480443 -0.464558
C83   C     C_3   0.808726 0.865215 0.426691 0.001030
C84   C     C_3   0.191279 0.865222 0.573305 0.001032
C85   C     C_3   0.308721 0.365223 0.426695 0.001029
C86   C     C_3   0.691281 0.365225 0.573303 0.001029
C87   C     C_3   0.858461 0.878965 0.553685 -0.450481
C88   C     C_3   0.141528 0.878959 0.446303 -0.450497
C89   C     C_3   0.358472 0.378959 0.553697 -0.450501
C90   C     C_3   0.641524 0.378957 0.446299 -0.450508
C91   C     C_3   0.844666 0.844117 0.499879 0.096312
C92   C     C_R   0.311599 0.310209 0.501556 0.866749
C93   C     C_3   0.155334 0.844117 0.500121 0.096304
C94   C     C_3   0.344666 0.344117 0.499879 0.096304
C95   C     C_3   0.655335 0.344117 0.500121 0.096300
C96   C     C_3   0.902198 0.907370 0.499671 0.112354
C97   C     C_3   0.097803 0.907371 0.500328 0.112350
C98   C     C_3   0.402197 0.407371 0.499671 0.112350
C99   C     C_3   0.597803 0.407371 0.500328 0.112348
C100  C     C_3   0.843988 0.900932 0.424821 0.002098
C101  C     C_3   0.156015 0.900935 0.575178 0.002092
C102  C     C_3   0.343985 0.400935 0.424822 0.002094
C103  C     C_R   0.688401 0.310209 0.498444 0.866756
C104  C     C_3   0.656016 0.400937 0.575177 0.002092
C105  C     C_3   0.890580 0.917272 0.552766 0.017993
C106  C     C_3   0.109419 0.917271 0.447230 0.017975
C107  C     C_3   0.390582 0.417270 0.552770 0.017976
C108  C     C_3   0.609417 0.417270 0.447228 0.017972
C109  C     C_R   0.682643 0.750061 0.365547 0.845077
C110  C     C_R   0.317358 0.750061 0.634453 0.845074
C111  C     C_R   0.182642 0.250061 0.365547 0.845072
C112  C     C_R   0.817358 0.250061 0.634453 0.845075
C113  C     C_R   0.836163 0.764453 0.745954 -0.199510
C114  C     C_R   0.645051 0.750521 0.290090 -0.030297
C115  C     C_R   0.163837 0.764453 0.254046 -0.199510
C116  C     C_R   0.336163 0.264453 0.745954 -0.199510
C117  C     C_R   0.663837 0.264452 0.254046 -0.199508
C118  C     C_R   0.871812 0.763280 0.817826 -0.164122
C119  C     C_R   0.128188 0.763280 0.182174 -0.164123
C120  C     C_R   0.371812 0.263280 0.817826 -0.164123
C121  C     C_R   0.628188 0.263280 0.182174 -0.164124
C122  C     C_R   0.927211 0.747771 0.854499 0.088872
C123  C     C_R   0.072789 0.747771 0.145500 0.088872
C124  C     C_R   0.427211 0.247771 0.854499 0.088873
C125  C     C_R   0.354949 0.750521 0.709909 -0.030297
C126  C     C_R   0.572789 0.247771 0.145500 0.088873
C127  C     C_R   0.946333 0.733031 0.818416 -0.164887
C128  C     C_R   0.053667 0.733030 0.181584 -0.164887
C129  C     C_R   0.446333 0.233030 0.818416 -0.164888
C130  C     C_R   0.553667 0.233030 0.181584 -0.164887
C131  C     C_R   0.910376 0.733540 0.746522 -0.194813
C132  C     C_R   0.089624 0.733540 0.253478 -0.194813
C133  C     C_R   0.410376 0.233540 0.746522 -0.194813
C134  C     C_R   0.589624 0.233539 0.253478 -0.194814
C135  C     C_R   0.855224 0.749477 0.709954 -0.032204
C136  C     C_R   0.145050 0.250521 0.290091 -0.030292
C137  C     C_R   0.144776 0.749477 0.290046 -0.032204
C138  C     C_R   0.355224 0.249477 0.709954 -0.032204
C139  C     C_R   0.644776 0.249477 0.290046 -0.032205
C140  C     C_R   0.034966 0.747267 0.069878 0.281824
C141  C     C_R   0.965034 0.747267 0.930122 0.281825
C142  C     C_R   0.534966 0.247267 0.069878 0.281824
C143  C     C_R   0.465034 0.247267 0.930122 0.281824
C144  C     C_3   0.654626 0.614302 0.463582 -0.382622
C145  C     C_3   0.345376 0.614303 0.536421 -0.382625
C146  C     C_3   0.154627 0.114302 0.463583 -0.382623
C147  C     C_R   0.854950 0.250521 0.709910 -0.030303
C148  C     C_3   0.845381 0.114305 0.536428 -0.382630
C149  C     C_3   0.611725 0.581355 0.452893 0.059717
C150  C     C_3   0.388278 0.581356 0.547110 0.059717
C151  C     C_3   0.111725 0.081355 0.452894 0.059715
C152  C     C_3   0.888284 0.081359 0.547118 0.059712
C153  C     C_3   0.680889 0.645877 0.576929 0.000430
C154  C     C_3   0.319109 0.645876 0.423071 0.000429
C155  C     C_3   0.180888 0.145878 0.576929 0.000430
C156  C     C_3   0.819104 0.145871 0.423070 0.000427
C157  C     C_R   0.687769 0.689729 0.497272 0.877174
C158  C     C_R   0.464831 0.751390 0.930115 0.282473
C159  C     C_R   0.312231 0.689730 0.502727 0.877175
C160  C     C_R   0.187769 0.189730 0.497272 0.877175
C161  C     C_R   0.812231 0.189730 0.502726 0.877175
C162  C     C_3   0.592955 0.670627 0.461811 -0.480953
C163  C     C_3   0.407044 0.670628 0.538186 -0.480949
C164  C     C_3   0.092954 0.170627 0.461810 -0.480953
C165  C     C_3   0.907042 0.170630 0.538177 -0.480942
C166  C     C_3   0.655151 0.655888 0.500197 0.091684
C167  C     C_3   0.344849 0.655888 0.499802 0.091684
C168  C     C_3   0.155150 0.155888 0.500197 0.091686
H1    H     H_    0.614265 0.815711 0.281282 0.153225
H2    H     H_    0.180774 0.891849 0.457090 0.169391
H3    H     H_    0.570364 0.428852 0.338203 0.230936
H4    H     H_    0.862349 0.945702 0.534067 0.155536
H5    H     H_    0.137655 0.945697 0.465932 0.155546
H6    H     H_    0.362346 0.445697 0.534069 0.155544
H7    H     H_    0.637655 0.445695 0.465930 0.155547
H8    H     H_    0.826048 0.964236 0.373485 0.274096
H9    H     H_    0.765372 0.933130 0.341440 0.256265
H10   H     H_    0.800671 0.959646 0.423228 0.238507
H11   H     H_    0.173951 0.964239 0.626514 0.274095
H12   H     H_    0.234629 0.933137 0.658555 0.256266
H13   H     H_    0.319226 0.391849 0.542909 0.169392
H14   H     H_    0.199324 0.959654 0.576766 0.238507
H15   H     H_    0.326048 0.464238 0.373481 0.274095
H16   H     H_    0.265370 0.433137 0.341446 0.256265
H17   H     H_    0.300679 0.459655 0.423234 0.238506
H18   H     H_    0.673952 0.464238 0.626522 0.274095
H19   H     H_    0.734631 0.433141 0.658549 0.256267
H20   H     H_    0.699315 0.459660 0.576762 0.238507
H21   H     H_    0.793554 0.776592 0.718565 0.152700
H22   H     H_    0.206446 0.776592 0.281435 0.152701
H23   H     H_    0.293554 0.276592 0.718565 0.152700
H24   H     H_    0.680767 0.391845 0.457079 0.169394
H25   H     H_    0.706446 0.276592 0.281435 0.152700
H26   H     H_    0.674811 0.528109 0.502673 0.250835
H27   H     H_    0.602743 0.511502 0.456779 0.249224
H28   H     H_    0.628065 0.527408 0.410602 0.248575
H29   H     H_    0.325194 0.528108 0.497333 0.250836
H30   H     H_    0.397263 0.511503 0.543232 0.249228
H31   H     H_    0.371937 0.527411 0.589404 0.248576
H32   H     H_    0.174810 0.028108 0.502676 0.250838
H33   H     H_    0.102740 0.011502 0.456775 0.249227
H34   H     H_    0.128069 0.027409 0.410606 0.248575
H35   H     H_    0.883050 0.863383 0.605669 0.183983
H36   H     H_    0.825209 0.028105 0.497352 0.250836
H37   H     H_    0.897283 0.011507 0.543266 0.249241
H38   H     H_    0.871946 0.027420 0.589423 0.248581
H39   H     H_    0.765440 0.625401 0.612393 0.254725
H40   H     H_    0.761958 0.679898 0.635217 0.233376
H41   H     H_    0.761042 0.636229 0.681312 0.245307
H42   H     H_    0.234560 0.625398 0.387610 0.254725
H43   H     H_    0.238040 0.679895 0.364783 0.233376
H44   H     H_    0.238955 0.636225 0.318689 0.245307
H45   H     H_    0.265440 0.125402 0.612395 0.254725
H46   H     H_    0.116927 0.863374 0.394321 0.183988
H47   H     H_    0.261956 0.179900 0.635217 0.233376
H48   H     H_    0.261041 0.136231 0.681312 0.245308
H49   H     H_    0.734559 0.125391 0.387621 0.254726
H50   H     H_    0.738032 0.179887 0.364784 0.233377
H51   H     H_    0.738947 0.136214 0.318693 0.245306
H52   H     H_    0.670345 0.534148 0.600764 0.254590
H53   H     H_    0.722176 0.562286 0.601538 0.246891
H54   H     H_    0.719270 0.568746 0.671522 0.231433
H55   H     H_    0.329655 0.534146 0.399240 0.254586
H56   H     H_    0.277824 0.562284 0.398466 0.246891
H57   H     H_    0.383072 0.363374 0.605679 0.183989
H58   H     H_    0.280729 0.568742 0.328481 0.231434
H59   H     H_    0.170346 0.034149 0.600765 0.254587
H60   H     H_    0.222177 0.062288 0.601540 0.246890
H61   H     H_    0.219269 0.068747 0.671523 0.231432
H62   H     H_    0.829658 0.034141 0.399254 0.254580
H63   H     H_    0.777827 0.062278 0.398481 0.246891
H64   H     H_    0.780725 0.068732 0.328490 0.231439
H65   H     H_    0.638582 0.611788 0.609739 0.134527
H66   H     H_    0.361415 0.611786 0.390259 0.134528
H67   H     H_    0.138581 0.111789 0.609739 0.134525
H68   H     H_    0.616919 0.363370 0.394318 0.183992
H69   H     H_    0.861407 0.111780 0.390255 0.134534
H70   H     H_    0.977435 0.866143 0.570879 0.192046
H71   H     H_    0.022569 0.866141 0.429124 0.192048
H72   H     H_    0.477431 0.366141 0.570876 0.192049
H73   H     H_    0.522571 0.366140 0.429125 0.192050
H74   H     H_    0.819513 0.815274 0.371521 0.247919
H75   H     H_    0.757308 0.808364 0.365758 0.248496
H76   H     H_    0.759178 0.849934 0.316704 0.250612
H77   H     H_    0.180515 0.815281 0.628498 0.247913
H78   H     H_    0.242715 0.808379 0.634247 0.248487
H79   H     H_    0.771145 0.880208 0.417997 0.181227
H80   H     H_    0.240843 0.849951 0.683298 0.250612
H81   H     H_    0.319483 0.315281 0.371502 0.247915
H82   H     H_    0.257284 0.308380 0.365753 0.248487
H83   H     H_    0.259157 0.349951 0.316702 0.250613
H84   H     H_    0.680528 0.315284 0.628505 0.247913
H85   H     H_    0.742726 0.308387 0.634249 0.248483
H86   H     H_    0.740852 0.349959 0.683298 0.250615
H87   H     H_    0.228853 0.880219 0.581986 0.181232
H88   H     H_    0.271147 0.380220 0.418015 0.181233
H89   H     H_    0.385734 0.815711 0.718718 0.153226
H90   H     H_    0.728851 0.380225 0.581978 0.181238
H91   H     H_    0.856264 0.774997 0.844660 0.146050
H92   H     H_    0.143736 0.774998 0.155340 0.146051
H93   H     H_    0.356264 0.274998 0.844660 0.146051
H94   H     H_    0.643736 0.274997 0.155340 0.146051
H95   H     H_    0.988852 0.720728 0.845700 0.145883
H96   H     H_    0.011148 0.720727 0.154299 0.145883
H97   H     H_    0.488852 0.220728 0.845700 0.145883
H98   H     H_    0.511148 0.220727 0.154299 0.145883
H99   H     H_    0.551628 0.816448 0.155109 0.146244
H100  H     H_    0.114272 0.315713 0.281283 0.153225
H101  H     H_    0.448371 0.816448 0.844891 0.146244
H102  H     H_    0.051636 0.316450 0.155110 0.146243
H103  H     H_    0.948385 0.316443 0.844891 0.146244
H104  H     H_    0.925878 0.721921 0.719581 0.150830
H105  H     H_    0.074122 0.721920 0.280419 0.150830
H106  H     H_    0.425878 0.221921 0.719581 0.150830
H107  H     H_    0.574122 0.221920 0.280419 0.150831
H108  H     H_    0.697675 0.599906 0.495102 0.203619
H109  H     H_    0.302327 0.599906 0.504902 0.203621
H110  H     H_    0.197676 0.099906 0.495105 0.203620
H111  H     H_    0.885748 0.315706 0.718719 0.153230
H112  H     H_    0.802334 0.099906 0.504915 0.203625
H113  H     H_    0.643063 0.622649 0.412241 0.141086
H114  H     H_    0.356939 0.622651 0.587761 0.141086
H115  H     H_    0.143065 0.122649 0.412243 0.141087
H116  H     H_    0.856947 0.122656 0.587769 0.141084
H117  H     H_    0.572278 0.585075 0.398623 0.173809
H118  H     H_    0.427725 0.585077 0.601379 0.173809
H119  H     H_    0.072279 0.085075 0.398623 0.173809
H120  H     H_    0.927733 0.085085 0.601385 0.173815
H121  H     H_    0.590839 0.702306 0.481752 0.202303
H122  H     H_    0.854199 0.889847 0.390628 0.194581
H123  H     H_    0.409159 0.702306 0.518243 0.202303
H124  H     H_    0.090838 0.202306 0.481750 0.202304
H125  H     H_    0.909152 0.202307 0.518227 0.202302
H126  H     H_    0.571598 0.674783 0.405689 0.186834
H127  H     H_    0.428402 0.674785 0.594309 0.186834
H128  H     H_    0.071598 0.174782 0.405687 0.186834
H129  H     H_    0.928403 0.174790 0.594300 0.186837
H130  H     H_    0.519367 0.630333 0.421442 0.201052
H131  H     H_    0.480633 0.630335 0.578555 0.201050
H132  H     H_    0.019366 0.130333 0.421441 0.201052
H133  H     H_    0.145806 0.889848 0.609373 0.194584
H134  H     H_    0.980633 0.130339 0.578544 0.201045
H135  H     H_    0.604132 0.686040 0.154657 0.146278
H136  H     H_    0.395869 0.686039 0.845343 0.146279
H137  H     H_    0.104125 0.186037 0.154657 0.146278
H138  H     H_    0.895856 0.186045 0.845343 0.146279
H139  H     H_    0.554000 0.648975 0.507945 0.174164
H140  H     H_    0.445997 0.648975 0.492050 0.174166
H141  H     H_    0.053999 0.148976 0.507944 0.174165
H142  H     H_    0.945990 0.148974 0.492036 0.174169
H143  H     H_    0.668107 0.673002 0.594567 0.138790
H144  H     H_    0.354194 0.389848 0.390627 0.194584
H145  H     H_    0.331890 0.673000 0.405430 0.138789
H146  H     H_    0.168105 0.173003 0.594566 0.138791
H147  H     H_    0.831880 0.172994 0.405422 0.138786
H148  H     H_    0.667022 0.685527 0.280672 0.151290
H149  H     H_    0.332979 0.685527 0.719328 0.151289
H150  H     H_    0.167015 0.185524 0.280672 0.151286
H151  H     H_    0.832966 0.185532 0.719328 0.151294
H152  H     H_    0.894417 0.800577 0.484651 0.190975
H153  H     H_    0.105596 0.800582 0.515377 0.190971
H154  H     H_    0.394403 0.300582 0.484623 0.190972
H155  H     H_    0.645808 0.389848 0.609373 0.194586
H156  H     H_    0.605603 0.300584 0.515389 0.190971
H157  H     H_    0.926910 0.812273 0.573079 0.172851
H158  H     H_    0.073094 0.812263 0.426941 0.172855
H159  H     H_    0.426905 0.312263 0.573058 0.172856
H160  H     H_    0.573096 0.312259 0.426951 0.172859
H161  H     H_    0.942513 0.856100 0.481677 0.153337
H162  H     H_    0.057487 0.856105 0.518326 0.153337
H163  H     H_    0.442513 0.356104 0.481674 0.153338
H164  H     H_    0.557487 0.356106 0.518328 0.153338
H165  H     H_    0.976454 0.903983 0.649243 0.254763
H166  H     H_    0.819210 0.891857 0.542879 0.169388
H167  H     H_    0.958738 0.961176 0.632061 0.257641
H168  H     H_    0.929627 0.928854 0.661790 0.230933
H169  H     H_    0.023538 0.903994 0.350757 0.254769
H170  H     H_    0.041271 0.961185 0.367947 0.257640
H171  H     H_    0.070367 0.928854 0.338206 0.230935
H172  H     H_    0.476462 0.403993 0.649243 0.254768
H173  H     H_    0.458730 0.461184 0.632054 0.257641
H174  H     H_    0.429633 0.428853 0.661794 0.230935
H175  H     H_    0.523534 0.403996 0.350758 0.254770
H176  H     H_    0.541273 0.461186 0.367947 0.257641
N1    N     N_R   0.517345 0.713480 0.034338 -0.180907
N2    N     N_R   0.978178 0.747145 0.033793 -0.180284
N3    N     N_R   0.521822 0.247145 0.966207 -0.180285
N4    N     N_R   0.478178 0.247145 0.033793 -0.180284
N5    N     N_R   0.056197 0.747293 0.034903 -0.180462
N6    N     N_R   0.943803 0.747293 0.965097 -0.180462
N7    N     N_R   0.556197 0.247293 0.034903 -0.180462
N8    N     N_R   0.443803 0.247293 0.965097 -0.180461
N9    N     N_R   0.482655 0.713480 0.965662 -0.180907
N10   N     N_R   0.017338 0.213479 0.034338 -0.180907
N11   N     N_R   0.982648 0.213479 0.965663 -0.180907
N12   N     N_R   0.482785 0.789324 0.965642 -0.180063
N13   N     N_R   0.517216 0.789324 0.034358 -0.180063
N14   N     N_R   0.982792 0.289324 0.965643 -0.180063
N15   N     N_R   0.017223 0.289324 0.034358 -0.180062
N16   N     N_R   0.021822 0.747145 0.966207 -0.180284
O1    O     O_R   0.822450 0.770150 0.500010 -0.622982
O2    O     O_R   0.517630 0.546310 0.442550 -0.632561
O3    O     O_R   0.982370 0.046310 0.557450 -0.632563
O4    O     O_R   0.017630 0.046310 0.442550 -0.632561
O5    O     O_R   0.424900 0.546280 0.442440 -0.633947
O6    O     O_R   0.575100 0.546280 0.557560 -0.633948
O7    O     O_R   0.924900 0.046280 0.442440 -0.633946
O8    O     O_R   0.075100 0.046280 0.557560 -0.633947
O9    O     O_R   0.770150 0.822430 0.500030 -0.638022
O10   O     O_R   0.229850 0.822430 0.499970 -0.638022
O11   O     O_R   0.270150 0.322430 0.500030 -0.638023
O12   O     O_R   0.177550 0.770150 0.499990 -0.622983
O13   O     O_R   0.729850 0.322430 0.499970 -0.638021
O14   O     O_R   0.725220 0.723850 0.398140 -0.622898
O15   O     O_R   0.274780 0.723850 0.601860 -0.622894
O16   O     O_R   0.225220 0.223850 0.398140 -0.622893
O17   O     O_R   0.774780 0.223850 0.601860 -0.622894
O18   O     O_R   0.672910 0.776140 0.398150 -0.621880
O19   O     O_R   0.327090 0.776140 0.601850 -0.621881
O20   O     O_R   0.172910 0.276140 0.398150 -0.621881
O21   O     O_R   0.827090 0.276140 0.601850 -0.621883
O22   O     O_R   0.729840 0.677550 0.499990 -0.626364
O23   O     O_R   0.322450 0.270150 0.500010 -0.622983
O24   O     O_R   0.270160 0.677550 0.500010 -0.626364
O25   O     O_R   0.229840 0.177550 0.499990 -0.626366
O26   O     O_R   0.770160 0.177550 0.500010 -0.626364
O27   O     O_R   0.677530 0.729830 0.500000 -0.632329
O28   O     O_R   0.322470 0.729830 0.500000 -0.632330
O29   O     O_R   0.177530 0.229830 0.500000 -0.632329
O30   O     O_R   0.822470 0.229830 0.500000 -0.632331
O31   O     O_R   0.827070 0.723850 0.601870 -0.621105
O32   O     O_R   0.172930 0.723850 0.398130 -0.621106
O33   O     O_R   0.327070 0.223850 0.601870 -0.621105
O34   O     O_R   0.677550 0.270150 0.499990 -0.622983
O35   O     O_R   0.672930 0.223850 0.398130 -0.621108
O36   O     O_R   0.774770 0.776130 0.601880 -0.621773
O37   O     O_R   0.225230 0.776130 0.398120 -0.621774
O38   O     O_R   0.274770 0.276130 0.601880 -0.621774
O39   O     O_R   0.725230 0.276130 0.398120 -0.621773
O40   O     O_R   0.075080 0.953700 0.557570 -0.632915
O41   O     O_R   0.924920 0.953700 0.442430 -0.632915
O42   O     O_R   0.575080 0.453700 0.557570 -0.632913
O43   O     O_R   0.424920 0.453700 0.442430 -0.632914
O44   O     O_R   0.017620 0.953670 0.442560 -0.619691
O45   O     O_R   0.982380 0.953670 0.557440 -0.619695
O46   O     O_R   0.517620 0.453670 0.442560 -0.619690
O47   O     O_R   0.482380 0.453670 0.557440 -0.619691
O48   O     O_R   0.482370 0.546310 0.557450 -0.632562
Zn1   Zn    Zn3+2 0.784920 0.715080 0.500000 0.931311
Zn2   Zn    Zn3+2 0.461640 0.500010 0.423200 0.918028
Zn3   Zn    Zn3+2 0.038360 0.000010 0.576800 0.918026
Zn4   Zn    Zn3+2 0.961640 0.000010 0.423200 0.918029
Zn5   Zn    Zn3+2 0.215080 0.715080 0.500000 0.931311
Zn6   Zn    Zn3+2 0.284920 0.215080 0.500000 0.931312
Zn7   Zn    Zn3+2 0.715080 0.215080 0.500000 0.931310
Zn8   Zn    Zn3+2 0.715070 0.784900 0.500020 0.928958
Zn9   Zn    Zn3+2 0.284930 0.784900 0.499980 0.928957
Zn10  Zn    Zn3+2 0.215070 0.284900 0.500020 0.928958
Zn11  Zn    Zn3+2 0.784930 0.284900 0.499980 0.928957
Zn12  Zn    Zn3+2 0.538360 0.500010 0.576800 0.918027

loop_
_geom_bond_atom_site_label_1
_geom_bond_atom_site_label_2
_ccdc_geom_bond_type
C13   N11   A    
C2    N1    A    
C63   H34   S    
C87   C91   S    
C153  C166  S    
C45   H137  S    
C74   C83   S    
C76   H82   S    
O29   Zn10  S    
C90   C95   S    
C65   H40   S    
C10   H67   S    
C54   C107  S    
C64   C152  S    
C160  O25   A    
C104  H155  S    
C145  C167  S    
C46   C79   S    
C6    C25   S    
C89   C94   S    
C100  H122  S    
C33   C147  A    
C53   C106  S    
C78   C96   S    
C21   O5    A    
C4    C12   S    
C23   O7    A    
C38   H103  S    
C141  N6    A    
C116  C138  A    
C49   H149  S    
C53   H171  S    
C74   H76   S    
C8    H65   S    
C119  H92   S    
C64   H36   S    
C112  O17   A    
C78   H70   S    
C24   C41   S    
C130  C134  A    
C81   O12   A    
C140  N2    A    
C13   C42   S    
C55   H175  S    
C92   O11   A    
C68   C95   S    
C69   H50   S    
C158  N12   A    
C164  C168  S    
C19   C99   S    
C132  C137  A    
C52   H168  S    
C25   O4    A    
N1    N9    A    
C89   H13   S    
C30   H1    S    
C102  H144  S    
C54   H172  S    
C58   C101  S    
O23   Zn6   S    
O48   Zn12  S    
C129  C133  A    
C6    C151  S    
C15   H141  S    
C83   C100  S    
C109  O18   A    
C66   H44   S    
C29   O39   A    
C113  H21   S    
C48   C114  A    
C143  N8    A    
C26   O31   A    
C62   C150  S    
C59   C102  S    
C79   C97   S    
C145  H109  S    
C22   O6    A    
C151  H119  S    
C152  H120  S    
C35   H152  S    
C119  C123  A    
C18   O45   A    
C83   C91   S    
C64   H37   S    
C35   C78   S    
C33   C38   A    
O31   Zn1   S    
C144  H108  S    
O40   Zn3   S    
O12   Zn5   S    
C68   H156  S    
C45   C50   A    
O11   Zn10  S    
C3    C156  S    
C106  H5    S    
C159  C167  S    
C84   C93   S    
C160  C168  S    
O9    Zn8   S    
C127  C131  A    
C117  H25   S    
C86   C95   S    
C7    C152  S    
C74   H74   S    
O22   Zn1   S    
C142  N7    A    
C5    C21   S    
C120  H93   S    
O17   Zn7   S    
C83   H79   S    
C144  H113  S    
C41   C45   A    
C31   C36   A    
C58   H12   S    
O44   Zn4   S    
C2    N13   A    
C61   C149  S    
C76   C85   S    
C75   H80   S    
C153  H143  S    
C111  O16   A    
O37   Zn9   S    
C162  H121  S    
C86   C104  S    
C90   H24   S    
C63   H32   S    
C99   C108  S    
O33   Zn6   S    
C56   H8    S    
C62   H31   S    
C165  H129  S    
C50   H150  S    
C154  H145  S    
C75   C84   S    
C28   O38   A    
C143  N3    A    
C108  H7    S    
C14   C163  S    
C70   H53   S    
C81   C93   S    
C118  C122  A    
C122  C127  A    
O43   Zn2   S    
C65   C153  S    
O34   Zn7   S    
C131  H104  S    
C115  C137  A    
C72   H59   S    
O4    Zn4   S    
C66   H42   S    
O7    Zn4   S    
C145  C150  S    
C146  H110  S    
C134  H107  S    
C57   C80   S    
C67   H48   S    
O21   Zn11  S    
N5    N16   A    
O39   Zn11  S    
C95   C103  S    
C69   C156  S    
C30   C34   A    
C34   C39   A    
C34   H99   S    
C77   H85   S    
O32   Zn5   S    
C134  C139  A    
C164  H124  S    
O10   Zn9   S    
C165  H125  S    
C116  C120  A    
C82   H164  S    
C5    C9    S    
C121  H94   S    
C4    C22   S    
C87   C105  S    
C16   C165  S    
C77   H84   S    
C32   C37   A    
C59   H15   S    
C8    C153  S    
C75   H78   S    
C109  C114  S    
C24   N10   A    
C27   O32   A    
C11   C156  S    
C52   C105  S    
C115  C119  A    
C57   C94   S    
C113  C135  A    
C31   C125  A    
C73   H63   S    
C19   O46   A    
C3    C165  S    
O18   Zn8   S    
C71   H56   S    
C63   H33   S    
C25   O8    A    
C148  C152  S    
C62   H29   S    
C10   C155  S    
C9    C154  S    
C163  H127  S    
C87   H166  S    
C65   H39   S    
C107  H6    S    
C8    C70   S    
C112  C147  S    
C55   C108  S    
C79   H162  S    
C68   C82   S    
C90   C108  S    
C141  N16   A    
C103  O13   A    
C1    O9    A    
C7    C23   S    
C132  H105  S    
C96   C100  S    
C109  O14   A    
C48   H148  S    
C37   C41   A    
O27   Zn8   S    
C29   O35   A    
C12   C162  S    
C146  C151  S    
C40   C44   A    
C20   C98   S    
C1    C91   S    
N10   N11   A    
C150  H118  S    
C122  C141  S    
C60   C104  S    
C17   C97   S    
O3    Zn3   S    
C85   C102  S    
C53   H170  S    
C155  H146  S    
C10   C72   S    
O1    Zn1   S    
C96   C105  S    
C110  O19   A    
C82   C99   S    
C68   H160  S    
C20   O43   A    
C117  C139  A    
O13   Zn11  S    
C27   C137  S    
C69   H49   S    
C40   C158  S    
O19   Zn9   S    
C126  C130  A    
C52   H165  S    
O30   Zn11  S    
O14   Zn1   S    
C67   C155  S    
C87   H35   S    
O28   Zn9   S    
C86   H90   S    
C13   N14   A    
C111  O20   A    
C162  C166  S    
O46   Zn2   S    
C28   O33   A    
C54   H173  S    
C124  C143  S    
C159  O28   A    
C61   H27   S    
C99   C104  S    
O35   Zn7   S    
C133  C138  A    
O16   Zn6   S    
C149  H117  S    
C76   H81   S    
C55   H3    S    
O25   Zn6   S    
C27   O37   A    
C16   H142  S    
C88   H2    S    
C80   H163  S    
C15   C164  S    
C28   C138  S    
C35   H157  S    
C11   C73   S    
C32   C136  A    
O6    Zn12  S    
C47   C51   A    
C118  H91   S    
C64   H38   S    
C126  C142  S    
C5    C150  S    
C44   H136  S    
C82   H73   S    
C1    O1    A    
O26   Zn7   S    
C157  C166  S    
C155  C168  S    
C89   C107  S    
C84   H87   S    
C90   H68   S    
C157  O22   A    
O5    Zn2   S    
C63   C151  S    
C5    C14   S    
C157  O27   A    
C17   O40   A    
C74   H75   S    
C7    C16   S    
C116  H23   S    
C15   H132  S    
C60   H19   S    
C71   H58   S    
C164  H128  S    
C129  H97   S    
C66   C154  S    
C30   C114  A    
C21   O48   A    
C55   H176  S    
C146  C168  S    
C85   H88   S    
C12   H130  S    
C80   C98   S    
C9    H66   S    
C69   H51   S    
C14   H140  S    
C9    C71   S    
C89   H57   S    
C161  O26   A    
C6    C10   S    
C52   H167  S    
C49   C125  A    
C78   H161  S    
C58   H14   S    
O45   Zn3   S    
C98   C102  S    
C56   H10   S    
O42   Zn12  S    
C70   H54   S    
C127  H95   S    
C124  C129  A    
C128  H96   S    
C160  O29   A    
C111  C136  S    
C43   H135  S    
C19   O42   A    
C3    C161  S    
N3    N7    A    
C130  H98   S    
C148  H112  S    
C17   O44   A    
C46   H153  S    
O47   Zn12  S    
C72   H60   S    
C156  H147  S    
C144  C166  S    
C50   C136  A    
C66   H43   S    
C76   H83   S    
C163  H123  S    
C44   C49   A    
C105  H4    S    
C18   C96   S    
C67   H47   S    
C79   H71   S    
C4    C8    S    
C23   O3    A    
C57   H159  S    
C7    C11   S    
C4    C149  S    
C112  O21   A    
C88   H46   S    
C38   C42   A    
C131  C135  A    
C92   O23   A    
N4    N8    A    
C12   H139  S    
C117  C121  A    
C26   C135  S    
C6    C15   S    
C115  H22   S    
C2    C39   S    
O2    Zn2   S    
C110  O15   A    
C36   H101  S    
C59   H17   S    
C58   H11   S    
C43   C48   A    
C101  H133  S    
C75   H77   S    
C20   O47   A    
C24   N15   A    
C3    C148  S    
C84   C101  S    
O41   Zn4   S    
C158  N9    A    
N14   N15   A    
C145  H114  S    
C128  C132  A    
C92   C94   S    
C73   H62   S    
O24   Zn5   S    
N2    N6    A    
O20   Zn10  S    
C56   H9    S    
C29   C139  S    
C46   H158  S    
C71   H55   S    
C72   H61   S    
C36   C40   A    
C62   H30   S    
C39   C43   A    
C123  C140  S    
O8    Zn3   S    
C70   H52   S    
C14   H131  S    
C163  C167  S    
C144  C149  S    
C88   C106  S    
C85   C94   S    
C61   H28   S    
C51   C147  A    
C57   H154  S    
O15   Zn5   S    
C18   O41   A    
C60   H20   S    
C31   H89   S    
C159  O24   A    
C77   C86   S    
C26   O36   A    
C67   H45   S    
C37   H102  S    
C56   C100  S    
C53   H169  S    
C33   H111  S    
C88   C93   S    
C60   H18   S    
C133  H106  S    
C148  H116  S    
C65   H41   S    
C77   H86   S    
C81   O10   A    
O38   Zn10  S    
C11   H69   S    
C80   H72   S    
C121  C126  A    
C22   O2    A    
O36   Zn8   S    
C142  N4    A    
C123  C128  A    
C46   C93   S    
C61   H26   S    
N12   N13   A    
C32   H100  S    
C47   H138  S    
C42   C47   A    
C59   H16   S    
C154  C167  S    
C140  N5    A    
C110  C125  S    
C113  C118  A    
C51   H151  S    
C103  O34   A    
C16   H134  S    
C54   H174  S    
C162  H126  S    
C161  O30   A    
C73   H64   S    
C97   C101  S    
C146  H115  S    
C120  C124  A    
C35   C91   S    
C98   C107  S    
C97   C106  S    
