data_mof_unit_63780.cif
_audit_creation_date              2012-10-26T19:00:45-0400
_audit_creation_method            fapswitch 2.2
_symmetry_space_group_name_H-M    P1
_symmetry_Int_Tables_number       1
_space_group_crystal_system       triclinic
_cell_length_a                    17.760759
_cell_length_b                    16.546932
_cell_length_c                    10.950783
_cell_angle_alpha                 90.0
_cell_angle_beta                  92.500748
_cell_angle_gamma                 89.999351
_cell_volume                      3215.21767002

loop_
_atom_site_label
_atom_site_type_symbol
_atom_type_description
_atom_site_fract_x
_atom_site_fract_y
_atom_site_fract_z
_atom_type_partial_charge
Br1   Br    Br    0.438188 0.339138 0.871407 -0.274350
Br2   Br    Br    0.386221 0.889098 0.305556 -0.323163
Br3   Br    Br    0.614361 0.690650 0.696613 -0.360216
Br4   Br    Br    0.385645 0.690655 0.303378 -0.360236
Br5   Br    Br    0.561847 0.339150 0.128606 -0.274381
Br6   Br    Br    0.618591 0.306270 0.691592 -0.324976
Br7   Br    Br    0.381406 0.306273 0.308412 -0.325009
Br8   Br    Br    0.895359 0.669910 0.588773 -0.306241
Br9   Br    Br    0.104631 0.669856 0.410992 -0.306241
Br10  Br    Br    0.723377 0.335458 0.388130 -0.341580
Br11  Br    Br    0.276640 0.335510 0.612036 -0.341581
Br12  Br    Br    0.613781 0.889093 0.694445 -0.323161
C1    C     C_R   0.355393 0.499854 0.502899 0.574732
C2    C     C_R   0.453011 0.744276 0.419473 0.294010
C3    C     C_R   0.500000 0.873990 0.500002 -0.018745
C4    C     C_1   0.500000 0.963387 0.500002 0.121842
C5    C     C_1   0.500000 0.037489 0.500002 0.079058
C6    C     C_R   0.548665 0.170261 0.578735 -0.073521
C7    C     C_R   0.451335 0.170262 0.421267 -0.073531
C8    C     C_R   0.548271 0.255626 0.578069 0.323940
C9    C     C_R   0.451728 0.255627 0.421932 0.323918
C10   C     C_R   0.500000 0.126500 0.500001 -0.032270
C11   C     C_R   0.500730 0.499731 0.264938 0.587219
C12   C     C_R   0.644607 0.499854 0.497099 0.574731
C13   C     C_R   0.499272 0.499731 0.735062 0.587228
C14   C     C_2   0.490170 0.433867 0.934683 0.171040
C15   C     C_2   0.509850 0.433869 0.065320 0.171025
C16   C     C_2   0.506614 0.498988 0.867238 -0.097856
C17   C     C_2   0.493393 0.498989 0.132763 -0.097856
C18   C     C_R   0.845449 0.572710 0.534187 0.184744
C19   C     C_R   0.154548 0.572689 0.465714 0.184744
C20   C     C_R   0.767000 0.569985 0.532147 -0.104792
C21   C     C_R   0.232997 0.569966 0.467759 -0.104793
C22   C     C_R   0.727648 0.499966 0.494119 -0.007516
C23   C     C_R   0.885705 0.504954 0.496991 0.007363
C24   C     C_R   0.272353 0.499968 0.505875 -0.007508
C25   C     C_R   0.768951 0.432366 0.454087 0.171277
C26   C     C_R   0.231055 0.432388 0.545987 0.171256
C27   C     C_R   0.847522 0.435558 0.456621 -0.095857
C28   C     C_R   0.152484 0.435579 0.543458 -0.095856
C29   C     C_R   0.114296 0.504954 0.503003 0.007365
C30   C     C_1   0.966233 0.505589 0.499103 0.075832
C31   C     C_1   0.033768 0.505589 0.500892 0.075830
C32   C     C_R   0.547612 0.830268 0.581437 0.140178
C33   C     C_R   0.452388 0.830270 0.418565 0.140180
C34   C     C_R   0.546990 0.744274 0.580526 0.294005
Cu1   Cu    Cu3+1 0.500000 0.580420 0.500000 1.088844
Cu2   Cu    Cu3+1 0.500000 0.419580 0.500000 1.181870
H1    H     H_    0.532010 0.552181 0.910261 0.110300
H2    H     H_    0.467991 0.552177 0.089737 0.110302
H3    H     H_    0.736999 0.622877 0.561405 0.204067
H4    H     H_    0.262995 0.622841 0.438430 0.204074
H5    H     H_    0.878989 0.383738 0.426132 0.169045
H6    H     H_    0.121020 0.383775 0.574015 0.169043
H7    H     H_    0.587189 0.138222 0.641047 0.179641
H8    H     H_    0.412811 0.138223 0.358955 0.179639
N1    N     N_R   0.500000 0.701220 0.500000 -0.263241
N2    N     N_R   0.500000 0.298780 0.500000 -0.213089
O1    O     O_R   0.391260 0.567930 0.500000 -0.495078
O2    O     O_R   0.608740 0.567930 0.500000 -0.495088
O3    O     O_R   0.391280 0.432120 0.500000 -0.441772
O4    O     O_R   0.608720 0.432120 0.500000 -0.441768
O5    O     O_R   0.500000 0.567890 0.321940 -0.476245
O6    O     O_R   0.500000 0.567890 0.678060 -0.476242
O7    O     O_R   0.500030 0.432070 0.321950 -0.442293
O8    O     O_R   0.499970 0.432070 0.678050 -0.442287

loop_
_geom_bond_atom_site_label_1
_geom_bond_atom_site_label_2
_ccdc_geom_bond_type
C7    H8    S    
Br11  C26   S    
C23   C27   A    
C19   C21   A    
C20   H3    S    
Cu2   N2    S    
C1    O1    A    
C6    C10   A    
Cu2   O7    S    
Cu1   N1    S    
C22   C25   A    
Br6   C8    S    
C16   H1    S    
Br3   C34   S    
C14   C16   D    
Cu1   Cu2   S    
C12   O2    A    
Br8   C18   S    
C11   O7    A    
C11   O5    A    
Cu2   O3    S    
C9    N2    A    
C25   C27   A    
Br7   C9    S    
Cu1   O5    S    
C21   C24   A    
C13   C16   S    
C26   C28   A    
C29   C31   S    
C14   C15   S    
C27   H5    S    
C18   C23   A    
Br10  C25   S    
C6    H7    S    
C24   C26   A    
C28   C29   A    
C7    C9    A    
C32   C34   A    
C3    C32   A    
C2    C33   A    
C6    C8    A    
C17   H2    S    
Br2   C33   S    
Br4   C2    S    
Br1   C14   S    
C15   C17   D    
C30   C31   T    
Br9   C19   S    
Cu1   O1    S    
C3    C4    S    
C18   C20   A    
C11   C17   S    
Cu2   O4    S    
C7    C10   A    
C1    O3    A    
C1    C24   S    
Br12  C32   S    
Cu1   O6    S    
C2    N1    A    
C23   C30   S    
C3    C33   A    
C12   O4    A    
C19   C29   A    
Cu2   O8    S    
Cu1   O2    S    
Br5   C15   S    
C8    N2    A    
C34   N1    A    
C12   C22   S    
C13   O8    A    
C5    C10   S    
C28   H6    S    
C4    C5    T    
C21   H4    S    
C13   O6    A    
C20   C22   A    
