data_mof_unit_59807.cif
_audit_creation_date              2012-12-10T17:06:01-0500
_audit_creation_method            fapswitch 2.2
_symmetry_space_group_name_H-M    P1
_symmetry_Int_Tables_number       1
_space_group_crystal_system       triclinic
_cell_length_a                    11.533399
_cell_length_b                    10.596145
_cell_length_c                    10.08293
_cell_angle_alpha                 86.497491
_cell_angle_beta                  90.106212
_cell_angle_gamma                 90.208433
_cell_volume                      1229.91908587

loop_
_atom_site_label
_atom_site_type_symbol
_atom_type_description
_atom_site_fract_x
_atom_site_fract_y
_atom_site_fract_z
_atom_type_partial_charge
C1    C     C_R   0.487896 0.262212 0.505045 0.880236
C2    C     C_2   0.505106 0.872161 0.478527 0.190211
C3    C     C_2   0.405935 0.069044 0.421747 0.331617
C4    C     C_2   0.449929 0.131261 0.523890 -0.245300
C5    C     C_2   0.588935 0.471759 0.926903 0.432444
C6    C     C_2   0.592123 0.508631 0.070427 -0.152784
C7    C     C_R   0.282105 0.499936 0.499894 0.909590
C8    C     C_R   0.503218 0.737655 0.495277 0.883945
C9    C     C_R   0.717877 0.499692 0.500235 0.896556
C10   C     C_1   0.161582 0.499388 0.499909 -0.169213
C11   C     C_1   0.059347 0.498932 0.500632 -0.015517
C12   C     C_1   0.940629 0.498705 0.501417 -0.003873
C13   C     C_1   0.838385 0.499011 0.501077 -0.153126
C14   C     C_2   0.409271 0.930711 0.429789 0.383070
H1    H     H_    0.442709 0.563450 0.888786 0.129013
N1    N     N_2   0.501210 0.501330 0.852150 -0.186524
N2    N     N_2   0.501250 0.501360 0.147810 -0.162485
O1    O     O_R   0.499980 0.319060 0.613040 -0.600533
O2    O     O_R   0.500020 0.319100 0.386900 -0.589119
O3    O     O_R   0.334430 0.499990 0.613070 -0.610900
O4    O     O_R   0.334470 0.500030 0.386930 -0.611586
O5    O     O_R   0.499980 0.680900 0.613100 -0.621379
O6    O     O_R   0.500020 0.680940 0.386960 -0.595968
O7    O     O_R   0.665530 0.499970 0.613070 -0.546636
O8    O     O_R   0.665570 0.500010 0.386930 -0.609059
Zn1   Zn    Zn3+2 0.499980 0.499970 0.650990 0.998509
Zn2   Zn    Zn3+2 0.500020 0.500030 0.349010 0.967509
O9    O     O_3   0.313906 0.860927 0.393184 -0.809032
H2    H     H_    0.250977 0.920440 0.365563 0.348609
O10   O     O_3   0.607590 0.937594 0.496403 -0.822167
H3    H     H_    0.667683 0.876483 0.529149 0.323095
O11   O     O_3   0.361592 0.128887 0.307449 -0.779283
H4    H     H_    0.324319 0.208425 0.331775 0.339401
C15   C     C_R   0.452519 0.070268 0.663017 0.113094
C16   C     C_R   0.552873 0.076000 0.742371 0.003477
C17   C     C_R   0.554746 0.018300 0.870872 -0.170711
C18   C     C_R   0.456875 0.954191 0.921522 -0.127570
C19   C     C_R   0.356722 0.948172 0.844093 -0.136393
C20   C     C_R   0.354009 0.006660 0.716044 -0.182809
H5    H     H_    0.630121 0.123720 0.704058 0.149893
H6    H     H_    0.632263 0.022958 0.931084 0.133467
H7    H     H_    0.458224 0.909958 0.021110 0.145107
H8    H     H_    0.280753 0.899023 0.883770 0.135970
H9    H     H_    0.275131 0.002234 0.658060 0.131369
O12   O     O_3   0.679055 0.407525 0.872471 -0.730507
H10   H     H_    0.728022 0.371801 0.945707 0.304042
C21   C     C_R   0.694762 0.578969 0.114399 0.203198
C22   C     C_R   0.802034 0.519412 0.139293 -0.119667
C23   C     C_R   0.897311 0.589488 0.179880 -0.146948
C24   C     C_R   0.886197 0.718686 0.197208 -0.120829
C25   C     C_R   0.779558 0.778215 0.174218 -0.159288
C26   C     C_R   0.684215 0.708753 0.133024 -0.103315
H11   H     H_    0.811548 0.418563 0.132588 0.105513
H12   H     H_    0.979173 0.542996 0.200990 0.138614
H13   H     H_    0.959914 0.772310 0.229737 0.140360
H14   H     H_    0.770666 0.878141 0.188451 0.146975
H15   H     H_    0.602082 0.756066 0.115519 0.119557
C27   C     C_R   0.399572 0.438458 0.104675 0.212950
C28   C     C_R   0.402232 0.310858 0.073622 -0.102138
C29   C     C_R   0.302234 0.252862 0.027136 -0.094339
C30   C     C_R   0.199157 0.321128 0.012225 -0.130549
C31   C     C_R   0.195657 0.447407 0.044501 -0.168796
C32   C     C_R   0.295123 0.505576 0.091964 -0.162309
H16   H     H_    0.481767 0.257169 0.084494 0.156255
H17   H     H_    0.304439 0.154906 0.003191 0.164302
H18   H     H_    0.122016 0.276194 0.975652 0.135126
H19   H     H_    0.116167 0.500523 0.031478 0.141468
H20   H     H_    0.291881 0.603792 0.115766 0.146109

loop_
_geom_bond_atom_site_label_1
_geom_bond_atom_site_label_2
_ccdc_geom_bond_type
C7    C10   S    
C8    O5    A    
C11   C12   S    
C9    O7    A    
C18   C19   A    
C25   C26   A    
O6    Zn2   S    
O8    Zn2   S    
O2    Zn2   S    
N2    C27   S    
C24   H13   S    
O1    Zn1   S    
O10   H3    S    
C2    O10   S    
C1    C4    S    
O11   H4    S    
C30   C31   A    
C31   C32   A    
C24   C25   A    
C1    O1    A    
C9    O8    A    
C28   C29   A    
O12   H10   S    
N1    Zn1   S    
C17   H6    S    
C22   H11   S    
C3    C14   S    
O3    Zn1   S    
C31   H19   S    
C5    C6    S    
C30   H18   S    
O9    H2    S    
O7    Zn1   S    
C29   H17   S    
C16   H5    S    
C10   C11   T    
O4    Zn2   S    
C3    O11   S    
C2    C14   D    
C4    C15   S    
C1    O2    A    
C6    C21   S    
C18   H7    S    
C20   H9    S    
O5    Zn1   S    
C23   H12   S    
N2    Zn2   S    
C28   H16   S    
C19   H8    S    
C8    O6    A    
C19   C20   A    
C12   C13   T    
C17   C18   A    
C15   C16   A    
C26   H15   S    
C21   C26   A    
C27   C32   A    
C23   C24   A    
C6    N2    D    
C9    C13   S    
C32   H20   S    
C22   C23   A    
C5    N1    D    
C14   O9    S    
C27   C28   A    
C7    O4    A    
C5    O12   S    
C15   C20   A    
C7    O3    A    
H1    N1    S    
C2    C8    S    
C3    C4    D    
C21   C22   A    
C29   C30   A    
C16   C17   A    
C25   H14   S    
