data_mof_unit_53823.cif
_audit_creation_date              2013-03-05T15:47:30-0500
_audit_creation_method            fapswitch 2.2
_symmetry_space_group_name_H-M    P1
_symmetry_Int_Tables_number       1
_space_group_crystal_system       triclinic
_cell_length_a                    22.041705
_cell_length_b                    22.009746
_cell_length_c                    21.896266
_cell_angle_alpha                 90.064006
_cell_angle_beta                  90.331845
_cell_angle_gamma                 89.359888
_cell_volume                      10621.7395493

loop_
_atom_site_label
_atom_site_type_symbol
_atom_site_description
_atom_site_fract_x
_atom_site_fract_y
_atom_site_fract_z
_atom_type_partial_charge
O1    O     O_R   0.551740 0.091630 0.999970 -0.640831
O2    O     O_R   0.000030 0.091630 0.551740 -0.643635
O3    O     O_R   0.448260 0.091630 0.000030 -0.607064
O4    O     O_R   0.999970 0.091630 0.448260 -0.608645
O5    O     O_R   0.551740 0.908370 0.000030 -0.632658
O6    O     O_R   0.000030 0.908370 0.448260 -0.640401
O7    O     O_R   0.448260 0.908370 0.999970 -0.623980
O8    O     O_R   0.999970 0.908370 0.551740 -0.645753
O9    O     O_R   0.908370 0.000030 0.551740 -0.645547
O10   O     O_R   0.908370 0.448260 0.000030 -0.585847
O11   O     O_R   0.908370 0.999970 0.448260 -0.636300
O12   O     O_R   0.908370 0.551740 0.999970 -0.619880
O13   O     O_R   0.091630 0.999970 0.551740 -0.622040
O14   O     O_R   0.091630 0.551740 0.000030 -0.636167
O15   O     O_R   0.091630 0.000030 0.448260 -0.614645
O16   O     O_R   0.091630 0.448260 0.999970 -0.640315
O17   O     O_R   0.999970 0.448260 0.908370 -0.618895
O18   O     O_R   0.551740 0.999970 0.908370 -0.622657
O19   O     O_R   0.000030 0.551740 0.908370 -0.605259
O20   O     O_R   0.448260 0.000030 0.908370 -0.634572
O21   O     O_R   0.000030 0.448260 0.091630 -0.648538
O22   O     O_R   0.448260 0.999970 0.091630 -0.641195
O23   O     O_R   0.999970 0.551740 0.091630 -0.609007
O24   O     O_R   0.551740 0.000030 0.091630 -0.646520
O25   O     O_R   0.051740 0.591630 0.499970 -0.633698
O26   O     O_R   0.500030 0.591630 0.051740 -0.631940
O27   O     O_R   0.948260 0.591630 0.500030 -0.606626
O28   O     O_R   0.499970 0.591630 0.948260 -0.636999
O29   O     O_R   0.051740 0.408370 0.500030 -0.620533
O30   O     O_R   0.500030 0.408370 0.948260 -0.625938
O31   O     O_R   0.948260 0.408370 0.499970 -0.627201
O32   O     O_R   0.499970 0.408370 0.051740 -0.641165
O33   O     O_R   0.408370 0.500030 0.051740 -0.606193
O34   O     O_R   0.408370 0.948260 0.500030 -0.661346
O35   O     O_R   0.408370 0.499970 0.948260 -0.615777
O36   O     O_R   0.408370 0.051740 0.499970 -0.640859
O37   O     O_R   0.591630 0.499970 0.051740 -0.648209
O38   O     O_R   0.591630 0.051740 0.500030 -0.567175
O39   O     O_R   0.591630 0.500030 0.948260 -0.635938
O40   O     O_R   0.591630 0.948260 0.499970 -0.639056
O41   O     O_R   0.499970 0.948260 0.408370 -0.620719
O42   O     O_R   0.051740 0.499970 0.408370 -0.634301
O43   O     O_R   0.500030 0.051740 0.408370 -0.611982
O44   O     O_R   0.948260 0.500030 0.408370 -0.635604
O45   O     O_R   0.500030 0.948260 0.591630 -0.632798
O46   O     O_R   0.948260 0.499970 0.591630 -0.637571
O47   O     O_R   0.499970 0.051740 0.591630 -0.636182
O48   O     O_R   0.051740 0.500030 0.591630 -0.635292
C1    C     C_R   0.500014 0.119956 0.004149 0.829130
C2    C     C_R   0.998099 0.120162 0.500156 0.889996
C3    C     C_R   0.500553 0.880231 0.001368 0.833427
C4    C     C_R   0.001580 0.880131 0.499614 0.866236
C5    C     C_R   0.880274 0.993608 0.499947 0.836321
C6    C     C_R   0.879903 0.500210 0.003205 0.832051
C7    C     C_R   0.120140 0.999933 0.500041 0.838125
C8    C     C_R   0.119860 0.499536 0.001200 0.860973
C9    C     C_R   0.998695 0.499545 0.880111 0.847951
C10   C     C_R   0.499666 0.997242 0.880404 0.870988
C11   C     C_R   0.002966 0.499589 0.119916 0.824127
C12   C     C_R   0.500167 0.996298 0.119460 0.845049
C13   C     C_R   0.000402 0.619877 0.495580 0.814971
C14   C     C_R   0.497654 0.620210 0.999440 0.843808
C15   C     C_R   0.000113 0.380160 0.504694 0.825927
C16   C     C_R   0.502891 0.379959 0.999977 0.877001
C17   C     C_R   0.380075 0.496269 0.999395 0.840487
C18   C     C_R   0.380322 0.000240 0.500118 0.858433
C19   C     C_R   0.619717 0.505414 0.000216 0.853324
C20   C     C_R   0.620052 0.999725 0.502992 0.859500
C21   C     C_R   0.500092 0.999626 0.379922 0.838078
C22   C     C_R   0.000005 0.503074 0.380360 0.852419
C23   C     C_R   0.493173 0.999558 0.619634 0.836414
C24   C     C_R   0.000784 0.499976 0.619955 0.837886
Zn1   Zn    Zn3+2 0.569090 0.000000 0.000000 0.931724
Zn2   Zn    Zn3+2 0.000000 0.000000 0.569090 0.929131
Zn3   Zn    Zn3+2 0.430910 0.000000 0.000000 0.993126
Zn4   Zn    Zn3+2 0.000000 1.000000 0.430910 0.962778
Zn5   Zn    Zn3+2 1.000000 0.430910 0.000000 0.985167
Zn6   Zn    Zn3+2 0.000000 0.569090 0.000000 1.051701
Zn7   Zn    Zn3+2 0.069090 0.500000 0.500000 0.942220
Zn8   Zn    Zn3+2 0.500000 0.500000 0.069090 0.944452
Zn9   Zn    Zn3+2 0.930910 0.500000 0.500000 0.955494
Zn10  Zn    Zn3+2 0.500000 0.500000 0.930910 0.932796
Zn11  Zn    Zn3+2 0.500000 0.930910 0.500000 0.909899
Zn12  Zn    Zn3+2 0.500000 0.069090 0.500000 0.992755
C25   C     C_R   0.433789 0.902030 0.816834 -0.034990
C26   C     C_R   0.188577 0.960108 0.394055 0.088984
C27   C     C_R   0.553178 0.891737 0.190616 -0.062264
C28   C     C_R   0.811076 0.905372 0.584351 -0.003151
C29   C     C_R   0.445042 0.098226 0.186073 -0.074611
C30   C     C_R   0.187884 0.042377 0.604925 0.076720
C31   C     C_R   0.588161 0.065283 0.807811 0.062661
C32   C     C_R   0.810651 0.070370 0.420053 0.012241
C33   C     C_R   0.097807 0.187912 0.451938 -0.054881
C34   C     C_R   0.060162 0.594833 0.186342 0.080995
C35   C     C_R   0.109854 0.809800 0.538475 -0.060063
C36   C     C_R   0.050581 0.397513 0.813019 0.064799
C37   C     C_R   0.896920 0.812837 0.448680 -0.061395
C38   C     C_R   0.923347 0.419045 0.187230 -0.019443
C39   C     C_R   0.888173 0.192184 0.553829 0.005396
C40   C     C_R   0.932906 0.588268 0.811565 0.082467
C41   C     C_R   0.807840 0.558083 0.111369 0.007777
C42   C     C_R   0.405849 0.815766 0.062860 0.013230
C43   C     C_R   0.191820 0.446913 0.105666 -0.028743
C44   C     C_R   0.584834 0.189054 0.093519 0.013695
C45   C     C_R   0.187817 0.541029 0.892561 -0.059308
C46   C     C_R   0.600410 0.809670 0.948540 0.057880
C47   C     C_R   0.809743 0.409406 0.940480 0.121797
C48   C     C_R   0.399233 0.192613 0.961675 0.147258
C49   C     C_R   0.916441 0.423855 0.310247 0.011141
C50   C     C_R   0.688343 0.419738 0.927860 -0.021226
C51   C     C_R   0.052149 0.394341 0.689594 -0.121699
C52   C     C_R   0.314408 0.437976 0.097085 0.053651
C53   C     C_R   0.970368 0.616052 0.697339 -0.047695
C54   C     C_R   0.689528 0.594041 0.083977 0.000857
C55   C     C_R   0.060337 0.601598 0.309699 -0.069720
C56   C     C_R   0.309351 0.525288 0.888722 0.126241
C57   C     C_R   0.597624 0.686870 0.944610 -0.051420
C58   C     C_R   0.567341 0.081098 0.687474 0.018089
C59   C     C_R   0.609723 0.308613 0.061358 0.007466
C60   C     C_R   0.540773 0.891867 0.313289 0.123277
C61   C     C_R   0.409529 0.312018 0.939736 -0.057794
C62   C     C_R   0.436888 0.893018 0.692035 -0.057581
C63   C     C_R   0.381939 0.699391 0.027436 -0.044125
C64   C     C_R   0.446638 0.098585 0.309577 0.060401
C65   C     C_R   0.310312 0.049899 0.605833 -0.037135
C66   C     C_R   0.911874 0.311297 0.589477 0.040660
C67   C     C_R   0.691546 0.938549 0.609584 0.006942
C68   C     C_R   0.112631 0.688153 0.523162 0.105670
C69   C     C_R   0.690701 0.087759 0.435980 0.123444
C70   C     C_R   0.104008 0.308390 0.468922 0.128724
C71   C     C_R   0.310916 0.950871 0.394264 -0.068966
C72   C     C_R   0.899277 0.689626 0.444858 0.037122
C73   C     C_R   0.436600 0.843920 0.791424 0.186467
C74   C     C_R   0.218036 0.971904 0.338990 0.222269
C75   C     C_R   0.543857 0.835535 0.220676 0.186760
C76   C     C_R   0.778659 0.877642 0.631724 0.222918
C77   C     C_R   0.452389 0.154657 0.215622 0.178472
C78   C     C_R   0.217311 0.031869 0.660607 0.210811
C79   C     C_R   0.639109 0.072396 0.769380 0.245815
C80   C     C_R   0.789348 0.130759 0.419930 0.127196
C81   C     C_R   0.155294 0.213459 0.465437 0.174175
C82   C     C_R   0.054608 0.652871 0.212380 0.180194
C83   C     C_R   0.165829 0.781447 0.523304 0.193848
C84   C     C_R   0.044067 0.340563 0.785137 0.209045
C85   C     C_R   0.841535 0.782362 0.456708 0.197811
C86   C     C_R   0.865319 0.417350 0.212920 0.154108
C87   C     C_R   0.844453 0.227211 0.585050 0.228578
C88   C     C_R   0.943349 0.649254 0.799635 0.235601
C89   C     C_R   0.772766 0.590361 0.153744 0.252088
C90   C     C_R   0.345712 0.800638 0.052670 0.223715
C91   C     C_R   0.225784 0.449096 0.160526 0.184003
C92   C     C_R   0.632032 0.221200 0.121692 0.232984
C93   C     C_R   0.215339 0.526257 0.835803 0.169909
C94   C     C_R   0.656106 0.778070 0.952758 0.231185
C95   C     C_R   0.776445 0.355231 0.937641 0.277421
C96   C     C_R   0.347109 0.228275 0.970056 0.235979
C97   C     C_R   0.862150 0.415348 0.276874 0.245533
C98   C     C_R   0.713249 0.360493 0.930948 0.142056
C99   C     C_R   0.046859 0.338782 0.721355 0.220061
C100  C     C_R   0.288919 0.441138 0.155777 0.213560
C101  C     C_R   0.962149 0.663886 0.740686 0.232249
C102  C     C_R   0.722067 0.619668 0.133061 0.209567
C103  C     C_R   0.058969 0.656469 0.276137 0.209918
C104  C     C_R   0.276472 0.508027 0.836994 0.263808
C105  C     C_R   0.654654 0.714405 0.952372 0.172774
C106  C     C_R   0.628072 0.079859 0.706510 0.118733
C107  C     C_R   0.651057 0.273915 0.096301 0.231868
C108  C     C_R   0.529226 0.837340 0.282856 0.205557
C109  C     C_R   0.350703 0.288274 0.949144 0.148260
C110  C     C_R   0.434970 0.839384 0.728108 0.218661
C111  C     C_R   0.333696 0.742475 0.031785 0.260700
C112  C     C_R   0.451504 0.154929 0.279679 0.205719
C113  C     C_R   0.279828 0.042810 0.662235 0.206030
C114  C     C_R   0.862195 0.279485 0.612863 0.236225
C115  C     C_R   0.726155 0.903950 0.651132 0.246637
C116  C     C_R   0.164558 0.720024 0.506331 0.230258
C117  C     C_R   0.726756 0.139949 0.428350 0.265357
C118  C     C_R   0.156243 0.274799 0.482906 0.222974
C119  C     C_R   0.280563 0.959629 0.337625 0.179203
C120  C     C_R   0.842646 0.718859 0.452329 0.224348
C121  C     C_R   0.462632 0.947699 0.719049 0.027540
C122  C     C_R   0.282902 0.976696 0.448170 0.026506
C123  C     C_R   0.522104 0.945697 0.282018 -0.035303
C124  C     C_R   0.718584 0.962733 0.554076 0.051400
C125  C     C_R   0.473915 0.047620 0.280157 -0.020532
C126  C     C_R   0.282582 0.023840 0.552046 0.003678
C127  C     C_R   0.528548 0.039591 0.718198 -0.005948
C128  C     C_R   0.718564 0.037823 0.468402 -0.049014
C129  C     C_R   0.048825 0.280506 0.486471 -0.069455
C130  C     C_R   0.032254 0.548808 0.282303 0.018028
C131  C     C_R   0.056251 0.718063 0.510131 -0.020536
C132  C     C_R   0.026570 0.448595 0.717556 0.023035
C133  C     C_R   0.950852 0.719079 0.470758 0.002035
C134  C     C_R   0.963013 0.459661 0.282387 -0.032533
C135  C     C_R   0.951631 0.283008 0.543922 0.034537
C136  C     C_R   0.981664 0.554434 0.719326 0.026076
C137  C     C_R   0.717266 0.545898 0.046510 0.040610
C138  C     C_R   0.443277 0.721085 0.019036 0.042939
C139  C     C_R   0.282841 0.468904 0.048986 -0.018343
C140  C     C_R   0.554943 0.281454 0.035652 0.045200
C141  C     C_R   0.280701 0.513055 0.945477 -0.018109
C142  C     C_R   0.546781 0.717102 0.972795 0.005201
C143  C     C_R   0.717831 0.465020 0.965026 -0.021911
C144  C     C_R   0.459147 0.282637 0.972394 -0.018176
C145  C     C_R   0.966071 0.456965 0.218165 0.006318
C146  C     C_R   0.781049 0.459623 0.970738 -0.053601
C147  C     C_R   0.024691 0.448199 0.781803 -0.017816
C148  C     C_R   0.218884 0.471573 0.051409 -0.013673
C149  C     C_R   0.971863 0.546599 0.781876 -0.052396
C150  C     C_R   0.781229 0.535736 0.054795 0.058902
C151  C     C_R   0.031740 0.546937 0.218124 -0.021361
C152  C     C_R   0.216888 0.518007 0.947306 -0.008762
C153  C     C_R   0.549338 0.780950 0.975550 0.023310
C154  C     C_R   0.536950 0.034490 0.781409 -0.067053
C155  C     C_R   0.547491 0.217367 0.045769 0.042428
C156  C     C_R   0.526113 0.945581 0.217808 -0.022771
C157  C     C_R   0.453952 0.219958 0.981618 -0.045704
C158  C     C_R   0.462489 0.950582 0.784048 0.025167
C159  C     C_R   0.451535 0.783743 0.029707 0.051467
C160  C     C_R   0.472068 0.046141 0.216047 0.016939
C161  C     C_R   0.218652 0.021288 0.552102 0.006040
C162  C     C_R   0.944619 0.219038 0.532690 0.046787
C163  C     C_R   0.782709 0.952765 0.546377 0.053260
C164  C     C_R   0.055056 0.781901 0.515909 -0.011621
C165  C     C_R   0.781369 0.030130 0.461959 -0.023449
C166  C     C_R   0.045307 0.217430 0.478843 -0.021766
C167  C     C_R   0.218949 0.980073 0.447551 0.028566
C168  C     C_R   0.950386 0.783140 0.472481 0.006104
C169  C     C_R   0.491014 0.997345 0.686458 -0.076385
C170  C     C_R   0.314615 0.000435 0.500108 -0.081735
C171  C     C_R   0.499140 0.997888 0.313101 -0.101608
C172  C     C_R   0.686470 0.999539 0.509072 -0.052062
C173  C     C_R   0.000263 0.313797 0.513136 -0.138003
C174  C     C_R   0.000595 0.502138 0.314423 -0.104732
C175  C     C_R   0.002518 0.686517 0.492132 -0.105979
C176  C     C_R   0.003762 0.501885 0.685979 -0.074202
C177  C     C_R   0.685939 0.508802 0.001465 -0.063186
C178  C     C_R   0.494968 0.686633 0.997040 -0.080753
C179  C     C_R   0.313590 0.492895 0.997861 -0.090547
C180  C     C_R   0.508594 0.313693 0.999949 -0.077407
C181  C     C_R   0.002879 0.498984 0.186546 -0.090570
C182  C     C_R   0.813331 0.499802 0.009635 -0.057537
C183  C     C_R   0.998242 0.497765 0.813539 -0.099948
C184  C     C_R   0.185937 0.497826 0.000769 -0.108141
C185  C     C_R   0.501681 0.813933 0.003949 -0.035051
C186  C     C_R   0.498063 0.995652 0.814414 -0.112411
C187  C     C_R   0.500507 0.186515 0.011740 -0.081714
C188  C     C_R   0.500239 0.996083 0.185170 -0.085569
C189  C     C_R   0.186859 0.000283 0.499953 -0.035096
C190  C     C_R   0.993407 0.186559 0.500983 -0.083421
C191  C     C_R   0.813776 0.988725 0.500631 -0.079193
C192  C     C_R   0.001565 0.814216 0.497851 -0.094698
N1    N     N_R   0.699022 0.078098 0.794539 0.249260
O49   O     O_R   0.717600 0.040946 0.837050 -0.320507
O50   O     O_R   0.733307 0.123176 0.778839 -0.254639
N2    N     N_R   0.183854 0.010791 0.712831 0.236975
O51   O     O_R   0.211038 0.999689 0.764544 -0.324355
O52   O     O_R   0.129095 0.990475 0.705312 -0.385937
N3    N     N_R   0.456768 0.210212 0.181275 0.219625
O53   O     O_R   0.432859 0.214728 0.127055 -0.469888
O54   O     O_R   0.492924 0.252855 0.199850 -0.322231
N4    N     N_R   0.830033 0.180024 0.407649 0.231453
O55   O     O_R   0.820757 0.233105 0.432313 -0.327726
O56   O     O_R   0.882150 0.169275 0.382053 -0.447302
N5    N     N_R   0.556271 0.778466 0.191013 0.228311
O57   O     O_R   0.583781 0.734949 0.220681 -0.287480
O58   O     O_R   0.544135 0.771090 0.133316 -0.463261
N6    N     N_R   0.184941 0.996838 0.287620 0.241753
O59   O     O_R   0.213648 0.018849 0.241022 -0.328864
O60   O     O_R   0.127470 0.009839 0.292949 -0.388341
N7    N     N_R   0.426141 0.791651 0.829465 0.204455
O61   O     O_R   0.387629 0.750197 0.813313 -0.334217
O62   O     O_R   0.446166 0.791428 0.885287 -0.478888
N8    N     N_R   0.800024 0.822948 0.661579 0.236605
O63   O     O_R   0.797539 0.771419 0.632554 -0.341176
O64   O     O_R   0.812822 0.822837 0.719706 -0.242650
N9    N     N_R   0.784729 0.204520 0.597448 0.232767
O65   O     O_R   0.743766 0.205643 0.554570 -0.295314
O66   O     O_R   0.769479 0.188436 0.652377 -0.244066
N10   N     N_R   0.812409 0.412628 0.174451 0.250370
O67   O     O_R   0.818372 0.400433 0.116625 -0.378131
O68   O     O_R   0.760256 0.433136 0.193513 -0.310484
N11   N     N_R   0.785050 0.815049 0.464325 0.222754
O69   O     O_R   0.744067 0.794291 0.501154 -0.325840
O70   O     O_R   0.776464 0.868317 0.440097 -0.473671
N12   N     N_R   0.926130 0.695023 0.843295 0.238842
O71   O     O_R   0.935252 0.685541 0.901286 -0.337599
O72   O     O_R   0.898173 0.744542 0.826066 -0.222257
N13   N     N_R   0.222610 0.810779 0.535381 0.203182
O73   O     O_R   0.226924 0.869320 0.529597 -0.491760
O74   O     O_R   0.267002 0.780767 0.561233 -0.337325
N14   N     N_R   0.040649 0.705238 0.174845 0.235961
O75   O     O_R   0.031009 0.698457 0.116580 -0.368346
O76   O     O_R   0.024312 0.756574 0.199642 -0.299662
N15   N     N_R   0.210500 0.182519 0.449102 0.206905
O77   O     O_R   0.214180 0.123686 0.452586 -0.489317
O78   O     O_R   0.252770 0.211761 0.420623 -0.360352
N16   N     N_R   0.038046 0.286484 0.821651 0.236048
O79   O     O_R   0.012906 0.289847 0.875159 -0.375542
O80   O     O_R   0.057214 0.233777 0.802426 -0.253101
N17   N     N_R   0.807118 0.297401 0.934777 0.252049
O81   O     O_R   0.793599 0.258296 0.892316 -0.273053
O82   O     O_R   0.853115 0.286344 0.970739 -0.305335
N18   N     N_R   0.712450 0.809961 0.950901 0.243550
O83   O     O_R   0.754481 0.794130 0.912322 -0.257259
O84   O     O_R   0.720566 0.857163 0.985696 -0.347472
N19   N     N_R   0.186235 0.540757 0.778662 0.204205
O85   O     O_R   0.127716 0.536716 0.772863 -0.469024
O86   O     O_R   0.216738 0.567584 0.735944 -0.363706
N20   N     N_R   0.291972 0.201735 0.992177 0.235050
O87   O     O_R   0.244482 0.235417 0.003300 -0.351756
O88   O     O_R   0.292432 0.145802 0.011437 -0.372113
N21   N     N_R   0.195841 0.450733 0.219197 0.197849
O89   O     O_R   0.226449 0.460953 0.268995 -0.357908
O90   O     O_R   0.136928 0.450954 0.222551 -0.486174
N22   N     N_R   0.297378 0.842377 0.067820 0.243384
O91   O     O_R   0.251174 0.824586 0.099621 -0.250824
O92   O     O_R   0.299283 0.898481 0.049328 -0.358915
N23   N     N_R   0.792959 0.599726 0.215706 0.219972
O93   O     O_R   0.789145 0.555527 0.254805 -0.362973
O94   O     O_R   0.815736 0.651320 0.232989 -0.364183
N24   N     N_R   0.660556 0.200499 0.177523 0.221573
O95   O     O_R   0.631634 0.206663 0.228800 -0.341370
O96   O     O_R   0.717821 0.185340 0.178795 -0.319406
N25   N     N_R   0.071791 0.713233 0.305630 0.218858
O97   O     O_R   0.113924 0.748032 0.284071 -0.342838
O98   O     O_R   0.050240 0.724318 0.359713 -0.476687
N26   N     N_R   0.704051 0.676020 0.161844 0.232363
O99   O     O_R   0.706048 0.726389 0.130897 -0.332986
O100  O     O_R   0.696056 0.678767 0.220645 -0.259707
N27   N     N_R   0.969621 0.726432 0.724404 0.210518
O101  O     O_R   0.928329 0.754067 0.691746 -0.362653
O102  O     O_R   0.009369 0.758661 0.753808 -0.352465
N28   N     N_R   0.306190 0.478221 0.786494 0.240444
O103  O     O_R   0.274979 0.457989 0.740398 -0.345803
O104  O     O_R   0.362501 0.460556 0.791884 -0.404091
N29   N     N_R   0.052291 0.281916 0.689843 0.215066
O105  O     O_R   0.104839 0.254533 0.687084 -0.379084
O106  O     O_R   0.003604 0.251544 0.677029 -0.383552
N30   N     N_R   0.675443 0.307874 0.924103 0.230562
O107  O     O_R   0.689112 0.257797 0.952793 -0.348843
O108  O     O_R   0.622251 0.312586 0.898588 -0.458494
N31   N     N_R   0.807524 0.397643 0.307223 0.253245
O109  O     O_R   0.789813 0.426309 0.356074 -0.317338
O110  O     O_R   0.776842 0.351169 0.287946 -0.231666
N32   N     N_R   0.326108 0.431533 0.208877 0.244927
O111  O     O_R   0.316540 0.385641 0.244906 -0.287664
O112  O     O_R   0.371266 0.467531 0.219998 -0.351450
N33   N     N_R   0.272232 0.726709 0.019171 0.204742
O113  O     O_R   0.242750 0.757204 0.977442 -0.340964
O114  O     O_R   0.241671 0.698948 0.060966 -0.418797
N34   N     N_R   0.424216 0.781053 0.701212 0.232192
O115  O     O_R   0.468026 0.741010 0.699483 -0.365956
O116  O     O_R   0.368887 0.764079 0.689869 -0.305569
N35   N     N_R   0.297695 0.318919 0.925733 0.217466
O117  O     O_R   0.293897 0.377801 0.927778 -0.459283
O118  O     O_R   0.259032 0.289253 0.892289 -0.349657
N36   N     N_R   0.449929 0.210768 0.313615 0.247202
O119  O     O_R   0.480364 0.215348 0.364460 -0.349015
O120  O     O_R   0.414875 0.255617 0.296376 -0.279552
N37   N     N_R   0.710517 0.295779 0.111964 0.232010
O121  O     O_R   0.753048 0.294519 0.071083 -0.299360
O122  O     O_R   0.724436 0.308782 0.168259 -0.238788
N38   N     N_R   0.675850 0.088386 0.662907 0.249779
O123  O     O_R   0.663237 0.110293 0.609083 -0.347248
O124  O     O_R   0.728730 0.062903 0.671642 -0.334984
N39   N     N_R   0.709555 0.678454 0.955385 0.225663
O125  O     O_R   0.754866 0.696134 0.989107 -0.296936
O126  O     O_R   0.710715 0.623489 0.933857 -0.490115
N40   N     N_R   0.501796 0.787159 0.314413 0.234938
O127  O     O_R   0.485525 0.793509 0.371129 -0.397593
O128  O     O_R   0.480961 0.740841 0.284149 -0.316947
N41   N     N_R   0.310544 0.946739 0.280824 0.203113
O129  O     O_R   0.368386 0.956179 0.275527 -0.490733
O130  O     O_R   0.282578 0.916900 0.237942 -0.317778
N42   N     N_R   0.208812 0.304036 0.508432 0.240562
O131  O     O_R   0.254720 0.272088 0.528346 -0.341601
O132  O     O_R   0.206094 0.361373 0.522857 -0.394019
N43   N     N_R   0.699109 0.198987 0.421495 0.252844
O133  O     O_R   0.713579 0.233881 0.376000 -0.245779
O134  O     O_R   0.654178 0.214988 0.456509 -0.288541
N44   N     N_R   0.787323 0.685248 0.450043 0.240294
O135  O     O_R   0.743254 0.701928 0.413729 -0.288671
O136  O     O_R   0.780842 0.637693 0.484523 -0.362357
N45   N     N_R   0.705106 0.891232 0.711952 0.216289
O137  O     O_R   0.707202 0.933682 0.753210 -0.356743
O138  O     O_R   0.688727 0.836792 0.727548 -0.347322
N46   N     N_R   0.831775 0.297937 0.668220 0.216713
O139  O     O_R   0.859414 0.291133 0.720473 -0.343673
O140  O     O_R   0.773988 0.310950 0.667726 -0.317575
N47   N     N_R   0.308457 0.059807 0.718557 0.204822
O141  O     O_R   0.365852 0.048289 0.727027 -0.489227
O142  O     O_R   0.281158 0.098359 0.754480 -0.357047
N48   N     N_R   0.215056 0.689552 0.477473 0.240456
O143  O     O_R   0.257940 0.720770 0.452310 -0.335675
O144  O     O_R   0.212062 0.631920 0.464819 -0.408282
C193  C     C_3   0.378167 0.911045 0.857765 -0.338085
C194  C     C_3   0.335947 0.961371 0.835480 -0.632139
H1    H     H_    0.360452 0.004497 0.834074 0.279853
H2    H     H_    0.319043 0.950222 0.788981 0.284414
H3    H     H_    0.296789 0.966348 0.866838 0.266702
H4    H     H_    0.349319 0.869874 0.858000 0.244965
H5    H     H_    0.390126 0.916145 0.906231 0.265630
C195  C     C_3   0.158093 0.898583 0.398801 -0.405469
C196  C     C_3   0.111580 0.886401 0.348700 -0.607761
H6    H     H_    0.074352 0.920725 0.349887 0.272890
H7    H     H_    0.133196 0.885836 0.303051 0.291720
H8    H     H_    0.092331 0.840936 0.356576 0.268483
H9    H     H_    0.193544 0.862387 0.396674 0.224274
H10   H     H_    0.135319 0.893309 0.443443 0.218787
C197  C     C_3   0.607571 0.893787 0.148120 -0.284807
C198  C     C_3   0.659851 0.929303 0.176549 -0.802411
H11   H     H_    0.643556 0.971094 0.199727 0.244521
H12   H     H_    0.683568 0.900765 0.211232 0.263784
H13   H     H_    0.692905 0.941625 0.140676 0.271693
H14   H     H_    0.626438 0.847749 0.139063 0.267246
H15   H     H_    0.596011 0.909552 0.102283 0.247736
C199  C     C_3   0.874939 0.881201 0.580712 -0.338195
C200  C     C_3   0.911948 0.897975 0.638865 -0.562348
H16   H     H_    0.884779 0.898205 0.681082 0.260376
H17   H     H_    0.948773 0.864456 0.645863 0.255531
H18   H     H_    0.932174 0.943482 0.637084 0.254476
H19   H     H_    0.874495 0.830963 0.576902 0.224472
H20   H     H_    0.895694 0.893338 0.537946 0.189388
C201  C     C_3   0.387596 0.094347 0.146697 -0.335940
C202  C     C_3   0.344470 0.043623 0.164866 -0.564553
H21   H     H_    0.366893 0.998428 0.165150 0.288867
H22   H     H_    0.326044 0.053101 0.210860 0.261877
H23   H     H_    0.305918 0.042191 0.132049 0.272575
H24   H     H_    0.359813 0.136556 0.151506 0.246493
H25   H     H_    0.398448 0.092676 0.097781 0.269685
C203  C     C_3   0.152792 0.102299 0.599157 -0.415826
C204  C     C_3   0.102185 0.110582 0.645908 -0.533267
H26   H     H_    0.121457 0.116995 0.692392 0.284278
H27   H     H_    0.074943 0.151617 0.634022 0.268251
H28   H     H_    0.071361 0.071148 0.645710 0.273698
H29   H     H_    0.185019 0.140384 0.604667 0.219740
H30   H     H_    0.132783 0.107577 0.552871 0.215021
C205  C     C_3   0.576478 0.116619 0.853179 -0.453531
C206  C     C_3   0.628395 0.129772 0.897722 -0.520947
H31   H     H_    0.666327 0.152574 0.874440 0.293210
H32   H     H_    0.612257 0.162120 0.933113 0.247493
H33   H     H_    0.644510 0.087437 0.920380 0.266542
H34   H     H_    0.566465 0.158907 0.827184 0.204467
H35   H     H_    0.535827 0.107710 0.880130 0.200525
C207  C     C_3   0.833250 0.047981 0.357810 -0.263720
C208  C     C_3   0.807660 0.986683 0.338290 -0.839381
H36   H     H_    0.819223 0.951615 0.372376 0.291189
H37   H     H_    0.757589 0.989479 0.333513 0.253026
H38   H     H_    0.827244 0.972934 0.293695 0.257299
H39   H     H_    0.819338 0.080765 0.321504 0.227140
H40   H     H_    0.883468 0.046764 0.356071 0.251653
C209  C     C_3   0.094151 0.151840 0.392262 -0.269913
C210  C     C_3   0.043648 0.173715 0.348885 -0.763864
H41   H     H_    0.998589 0.173136 0.370715 0.305719
H42   H     H_    0.052527 0.220702 0.333384 0.227030
H43   H     H_    0.042257 0.143701 0.308123 0.271260
H44   H     H_    0.136602 0.156980 0.365703 0.241539
H45   H     H_    0.092018 0.102606 0.400813 0.263695
C211  C     C_3   0.119816 0.577715 0.156503 -0.411236
C212  C     C_3   0.145965 0.625207 0.114334 -0.629156
H46   H     H_    0.156887 0.667202 0.140092 0.300480
H47   H     H_    0.188411 0.606228 0.094616 0.235040
H48   H     H_    0.114165 0.635745 0.076432 0.299339
H49   H     H_    0.153827 0.568592 0.193069 0.232767
H50   H     H_    0.114674 0.535431 0.129904 0.213190
C213  C     C_3   0.110281 0.850767 0.594603 -0.349869
C214  C     C_3   0.073222 0.824592 0.646831 -0.679411
H51   H     H_    0.029266 0.806876 0.630500 0.260371
H52   H     H_    0.098706 0.786479 0.668537 0.260804
H53   H     H_    0.064866 0.860226 0.681817 0.286847
H54   H     H_    0.156523 0.856045 0.613932 0.259216
H55   H     H_    0.096844 0.897261 0.583494 0.258958
C215  C     C_3   0.110252 0.409394 0.845815 -0.381770
C216  C     C_3   0.130539 0.360753 0.891001 -0.612452
H56   H     H_    0.140805 0.317302 0.867360 0.298600
H57   H     H_    0.173052 0.376210 0.912836 0.262464
H58   H     H_    0.095737 0.353948 0.926642 0.278546
H59   H     H_    0.146335 0.413777 0.810961 0.226188
H60   H     H_    0.108186 0.453125 0.870570 0.216494
C217  C     C_3   0.899391 0.852024 0.391416 -0.379828
C218  C     C_3   0.946487 0.830401 0.345083 -0.667495
H61   H     H_    0.992224 0.829144 0.365612 0.286014
H62   H     H_    0.935199 0.784279 0.328334 0.267577
H63   H     H_    0.946887 0.861934 0.305542 0.247771
H64   H     H_    0.855660 0.850389 0.366052 0.242283
H65   H     H_    0.905638 0.899984 0.403117 0.249438
C219  C     C_3   0.942556 0.359488 0.156297 -0.228699
C220  C     C_3   0.004770 0.335436 0.176860 -0.821834
H66   H     H_    0.040117 0.369924 0.170491 0.276307
H67   H     H_    0.003797 0.323036 0.225838 0.251210
H68   H     H_    0.017110 0.294420 0.149902 0.258686
H69   H     H_    0.909717 0.323028 0.167248 0.230778
H70   H     H_    0.940252 0.363495 0.105900 0.259815
C221  C     C_3   0.872371 0.126257 0.554154 -0.367258
C222  C     C_3   0.879809 0.099425 0.619302 -0.553943
H71   H     H_    0.867754 0.132397 0.655598 0.271974
H72   H     H_    0.849371 0.060015 0.625078 0.259676
H73   H     H_    0.926951 0.084897 0.629260 0.255281
H74   H     H_    0.824433 0.120208 0.540348 0.211851
H75   H     H_    0.895002 0.102224 0.517696 0.205540
C223  C     C_3   0.866748 0.570422 0.812626 -0.538616
C224  C     C_3   0.832723 0.593451 0.868469 -0.607187
H76   H     H_    0.817592 0.641248 0.861620 0.310676
H77   H     H_    0.792302 0.565046 0.875903 0.246671
H78   H     H_    0.861691 0.590911 0.909497 0.288319
H79   H     H_    0.843553 0.588280 0.770971 0.231661
H80   H     H_    0.862784 0.520539 0.809277 0.202525
C225  C     C_3   0.873066 0.556286 0.129552 -0.400106
C226  C     C_3   0.900965 0.620126 0.122628 -0.535571
H81   H     H_    0.916573 0.628829 0.075621 0.288156
H82   H     H_    0.868504 0.657378 0.133282 0.261176
H83   H     H_    0.939415 0.624997 0.154884 0.234393
H84   H     H_    0.878126 0.542293 0.177929 0.207747
H85   H     H_    0.896353 0.519564 0.106897 0.198418
C227  C     C_3   0.420492 0.858984 0.114407 -0.359318
C228  C     C_3   0.402245 0.832310 0.175966 -0.704315
H86   H     H_    0.352359 0.827080 0.178702 0.299210
H87   H     H_    0.424152 0.787150 0.182698 0.280734
H88   H     H_    0.416529 0.863131 0.213308 0.268000
H89   H     H_    0.469468 0.867835 0.115484 0.199286
H90   H     H_    0.396403 0.902831 0.107970 0.269131
C229  C     C_3   0.147337 0.394653 0.103223 -0.388155
C230  C     C_3   0.166709 0.344946 0.058642 -0.672055
H91   H     H_    0.175917 0.363722 0.013062 0.275676
H92   H     H_    0.208701 0.322420 0.075895 0.270825
H93   H     H_    0.130430 0.310550 0.054599 0.256363
H94   H     H_    0.144947 0.370911 0.147852 0.239901
H95   H     H_    0.101059 0.410835 0.095278 0.250944
C231  C     C_3   0.578874 0.126158 0.119425 -0.310289
C232  C     C_3   0.636330 0.087111 0.105528 -0.643594
H96   H     H_    0.634822 0.064585 0.060567 0.273659
H97   H     H_    0.678747 0.113246 0.104489 0.254921
H98   H     H_    0.642150 0.052332 0.141298 0.230111
H99   H     H_    0.573870 0.128979 0.169738 0.206923
H100  H     H_    0.536243 0.105403 0.106602 0.198498
C233  C     C_3   0.146744 0.597089 0.893030 -0.368937
C234  C     C_3   0.169579 0.646131 0.936305 -0.641086
H101  H     H_    0.174096 0.629117 0.983598 0.268011
H102  H     H_    0.214631 0.661437 0.920663 0.262991
H103  H     H_    0.137585 0.685459 0.936031 0.282708
H104  H     H_    0.145053 0.619423 0.847645 0.256080
H105  H     H_    0.099667 0.585370 0.901776 0.259487
C235  C     C_3   0.589303 0.847580 0.891011 -0.433260
C236  C     C_3   0.635590 0.897442 0.879657 -0.519387
H106  H     H_    0.679113 0.877786 0.863513 0.302204
H107  H     H_    0.618566 0.927751 0.842730 0.237573
H108  H     H_    0.643329 0.924833 0.921478 0.277110
H109  H     H_    0.589910 0.816646 0.850926 0.216839
H110  H     H_    0.543402 0.868579 0.891048 0.215850
C237  C     C_3   0.847915 0.423681 0.884808 -0.524722
C238  C     C_3   0.892368 0.373783 0.865455 -0.546017
H111  H     H_    0.868301 0.334758 0.845051 0.294343
H112  H     H_    0.922168 0.391529 0.829261 0.207764
H113  H     H_    0.920555 0.358891 0.904887 0.306102
H114  H     H_    0.816729 0.432711 0.845789 0.205171
H115  H     H_    0.874121 0.465407 0.892454 0.215454
C239  C     C_3   0.402275 0.162162 0.899457 -0.482377
C240  C     C_3   0.348501 0.121811 0.885227 -0.584537
H116  H     H_    0.345577 0.084230 0.918829 0.270224
H117  H     H_    0.305399 0.148313 0.883940 0.291050
H118  H     H_    0.355685 0.102867 0.839184 0.272857
H119  H     H_    0.404608 0.197533 0.863433 0.209488
H120  H     H_    0.443604 0.134133 0.895127 0.204604
C241  C     C_3   0.926702 0.384922 0.366465 -0.336683
C242  C     C_3   0.926465 0.316876 0.352275 -0.753844
H121  H     H_    0.963581 0.305075 0.320359 0.227166
H122  H     H_    0.934084 0.290900 0.395127 0.277854
H123  H     H_    0.882529 0.302679 0.332285 0.319712
H124  H     H_    0.971321 0.393800 0.386298 0.193890
H125  H     H_    0.891512 0.395193 0.401052 0.282085
C243  C     C_3   0.658543 0.434985 0.866263 -0.255811
C244  C     C_3   0.678399 0.495315 0.838628 -0.826581
H126  H     H_    0.669289 0.533739 0.869872 0.293798
H127  H     H_    0.727515 0.493494 0.828118 0.246025
H128  H     H_    0.653074 0.503652 0.795414 0.254008
H129  H     H_    0.671094 0.399727 0.831932 0.227227
H130  H     H_    0.608436 0.432642 0.868888 0.247995
C245  C     C_3   0.102390 0.395175 0.642487 -0.383382
C246  C     C_3   0.153256 0.438134 0.660288 -0.557683
H131  H     H_    0.136205 0.485183 0.665893 0.278555
H132  H     H_    0.173605 0.422698 0.704031 0.273636
H133  H     H_    0.188805 0.437768 0.624591 0.269754
H134  H     H_    0.124555 0.350157 0.636970 0.256424
H135  H     H_    0.084813 0.403774 0.597266 0.252525
C247  C     C_3   0.351450 0.381388 0.079976 -0.423454
C248  C     C_3   0.400789 0.361849 0.125373 -0.547246
H136  H     H_    0.380997 0.337431 0.164554 0.294868
H137  H     H_    0.432069 0.329208 0.102921 0.256354
H138  H     H_    0.427349 0.401340 0.141358 0.281766
H139  H     H_    0.319612 0.342974 0.074461 0.218462
H140  H     H_    0.372968 0.386891 0.034934 0.210400
C249  C     C_3   0.956731 0.633041 0.632682 -0.420125
C250  C     C_3   0.888377 0.630693 0.620241 -0.597741
H141  H     H_    0.871781 0.583452 0.624119 0.242972
H142  H     H_    0.863230 0.659520 0.653381 0.283581
H143  H     H_    0.878075 0.648074 0.573798 0.265228
H144  H     H_    0.973636 0.678908 0.621377 0.216349
H145  H     H_    0.981555 0.603737 0.602767 0.213012
C251  C     C_3   0.627025 0.621590 0.077230 -0.336518
C252  C     C_3   0.587681 0.610249 0.134663 -0.559882
H146  H     H_    0.612101 0.616397 0.178267 0.266146
H147  H     H_    0.548970 0.642905 0.135583 0.274792
H148  H     H_    0.570428 0.563356 0.136437 0.250498
H149  H     H_    0.630641 0.671368 0.071189 0.238850
H150  H     H_    0.605738 0.607805 0.034786 0.190617
C253  C     C_3   0.109587 0.598422 0.358553 -0.339365
C254  C     C_3   0.157579 0.550140 0.344684 -0.597302
H151  H     H_    0.136613 0.505926 0.334297 0.282695
H152  H     H_    0.184582 0.564736 0.304762 0.265690
H153  H     H_    0.188466 0.544238 0.384467 0.270817
H154  H     H_    0.135164 0.641462 0.362068 0.260052
H155  H     H_    0.090442 0.594095 0.403803 0.256902
C255  C     C_3   0.340296 0.586536 0.882181 -0.443006
C256  C     C_3   0.387472 0.588341 0.831404 -0.587510
H156  H     H_    0.423408 0.553388 0.838995 0.262124
H157  H     H_    0.365902 0.581964 0.785986 0.280497
H158  H     H_    0.408797 0.633552 0.831086 0.257963
H159  H     H_    0.305358 0.622141 0.872766 0.221367
H160  H     H_    0.362872 0.600075 0.924837 0.207733
C257  C     C_3   0.590985 0.650816 0.885296 -0.343794
C258  C     C_3   0.539118 0.673519 0.844208 -0.689068
H161  H     H_    0.495478 0.674621 0.868794 0.286902
H162  H     H_    0.548720 0.719997 0.827604 0.264026
H163  H     H_    0.534588 0.642992 0.804078 0.247651
H164  H     H_    0.632502 0.655141 0.857036 0.235744
H165  H     H_    0.587873 0.601720 0.894166 0.249627
C259  C     C_3   0.543947 0.143863 0.667616 -0.256063
C260  C     C_3   0.484297 0.163018 0.697734 -0.842708
H166  H     H_    0.448794 0.129245 0.688241 0.287766
H167  H     H_    0.490344 0.167050 0.747915 0.250605
H168  H     H_    0.469055 0.207719 0.679473 0.262629
H169  H     H_    0.577626 0.179239 0.679924 0.229189
H170  H     H_    0.539339 0.146684 0.617291 0.255421
C261  C     C_3   0.626896 0.374197 0.060471 -0.366975
C262  C     C_3   0.618100 0.403495 0.124324 -0.556686
H171  H     H_    0.629896 0.372144 0.162159 0.272462
H172  H     H_    0.648131 0.443360 0.129477 0.257028
H173  H     H_    0.570662 0.417979 0.132320 0.257016
H174  H     H_    0.675374 0.378786 0.048641 0.218224
H175  H     H_    0.605660 0.397390 0.022467 0.202011
C263  C     C_3   0.600972 0.893869 0.347719 -0.450841
C264  C     C_3   0.607989 0.845707 0.397561 -0.541488
H176  H     H_    0.610035 0.799492 0.377275 0.277500
H177  H     H_    0.651002 0.853224 0.422929 0.272415
H178  H     H_    0.570043 0.848810 0.430520 0.269441
H179  H     H_    0.638619 0.887920 0.314640 0.210049
H180  H     H_    0.607477 0.938585 0.369081 0.195890
C265  C     C_3   0.418150 0.345173 0.878984 -0.240420
C266  C     C_3   0.473718 0.323803 0.842875 -0.779001
H181  H     H_    0.516262 0.334098 0.867267 0.309172
H182  H     H_    0.471955 0.274156 0.834379 0.235943
H183  H     H_    0.474551 0.347473 0.798133 0.262768
H184  H     H_    0.379067 0.336248 0.848049 0.249376
H185  H     H_    0.417228 0.395048 0.885128 0.269282
C267  C     C_3   0.402204 0.889820 0.631739 -0.282388
C268  C     C_3   0.428869 0.841241 0.587709 -0.597842
H186  H     H_    0.475227 0.826600 0.601605 0.233731
H187  H     H_    0.399411 0.800765 0.585943 0.279729
H188  H     H_    0.432217 0.856554 0.540341 0.247157
H189  H     H_    0.354699 0.877019 0.642078 0.226273
H190  H     H_    0.396329 0.934889 0.610531 0.198252
C269  C     C_3   0.365449 0.635329 0.042859 -0.427165
C270  C     C_3   0.368477 0.625120 0.111855 -0.639595
H191  H     H_    0.415413 0.631778 0.129092 0.266920
H192  H     H_    0.337574 0.657381 0.135718 0.264539
H193  H     H_    0.354063 0.578273 0.122894 0.254062
H194  H     H_    0.319446 0.623716 0.026082 0.216771
H195  H     H_    0.394561 0.603974 0.019449 0.206443
C271  C     C_3   0.388149 0.085977 0.343583 -0.392678
C272  C     C_3   0.369180 0.133772 0.389856 -0.620270
H196  H     H_    0.354966 0.176458 0.366904 0.301631
H197  H     H_    0.328988 0.116270 0.413802 0.258699
H198  H     H_    0.406102 0.142483 0.423263 0.281645
H199  H     H_    0.350866 0.081909 0.309630 0.218909
H200  H     H_    0.390762 0.041779 0.367489 0.218258
C273  C     C_3   0.352284 0.104360 0.602706 -0.404187
C274  C     C_3   0.330029 0.152324 0.557600 -0.633309
H201  H     H_    0.325018 0.133088 0.511575 0.280270
H202  H     H_    0.285233 0.170061 0.572484 0.276592
H203  H     H_    0.362672 0.190339 0.555860 0.258800
H204  H     H_    0.353717 0.129181 0.646711 0.245835
H205  H     H_    0.399441 0.090787 0.595210 0.251208
C275  C     C_3   0.920337 0.372103 0.620136 -0.330943
C276  C     C_3   0.864982 0.415206 0.609547 -0.642156
H206  H     H_    0.864401 0.434758 0.563099 0.278730
H207  H     H_    0.820599 0.393301 0.613540 0.257866
H208  H     H_    0.865211 0.452165 0.644116 0.226753
H209  H     H_    0.925687 0.365293 0.670049 0.218329
H210  H     H_    0.963314 0.392305 0.607969 0.185359
C277  C     C_3   0.626349 0.941880 0.628220 -0.335138
C278  C     C_3   0.596920 0.878559 0.621477 -0.635943
H211  H     H_    0.580198 0.870315 0.574543 0.268404
H212  H     H_    0.628697 0.840489 0.631348 0.265864
H213  H     H_    0.559116 0.874295 0.654286 0.234464
H214  H     H_    0.622651 0.955826 0.676717 0.201431
H215  H     H_    0.602576 0.979258 0.606502 0.200932
C279  C     C_3   0.118193 0.657432 0.585374 -0.427582
C280  C     C_3   0.164984 0.605846 0.587863 -0.569122
H216  H     H_    0.156600 0.571909 0.551362 0.269212
H217  H     H_    0.211639 0.623845 0.584095 0.279951
H218  H     H_    0.161519 0.582669 0.632497 0.258170
H219  H     H_    0.130575 0.691842 0.620329 0.212645
H220  H     H_    0.074464 0.639083 0.600051 0.206598
C281  C     C_3   0.649329 0.072755 0.382138 -0.511326
C282  C     C_3   0.605163 0.123265 0.362984 -0.536713
H221  H     H_    0.629120 0.161056 0.340775 0.298573
H222  H     H_    0.573597 0.105447 0.328051 0.207121
H223  H     H_    0.578805 0.140075 0.402692 0.298900
H224  H     H_    0.677953 0.061296 0.342094 0.204048
H225  H     H_    0.622627 0.032159 0.391582 0.195511
C283  C     C_3   0.104725 0.336888 0.405545 -0.441043
C284  C     C_3   0.154994 0.383040 0.396257 -0.589304
H226  H     H_    0.151399 0.420494 0.430066 0.274028
H227  H     H_    0.200363 0.360889 0.399508 0.286264
H228  H     H_    0.150501 0.402345 0.349708 0.259825
H229  H     H_    0.110307 0.300561 0.370752 0.204427
H230  H     H_    0.061225 0.359584 0.395279 0.208835
C285  C     C_3   0.355447 0.897363 0.396292 -0.348857
C286  C     C_3   0.337628 0.848589 0.442014 -0.610303
H231  H     H_    0.334435 0.866906 0.488921 0.291590
H232  H     H_    0.293127 0.829679 0.428627 0.280006
H233  H     H_    0.371940 0.811273 0.441836 0.269266
H234  H     H_    0.357083 0.873059 0.351867 0.254565
H235  H     H_    0.401926 0.912424 0.402748 0.263776
C287  C     C_3   0.908867 0.650916 0.387624 -0.411118
C288  C     C_3   0.863269 0.599973 0.377921 -0.522002
H236  H     H_    0.857244 0.573224 0.420295 0.278946
H237  H     H_    0.818936 0.618490 0.362199 0.302712
H238  H     H_    0.879838 0.569303 0.341205 0.237262
H239  H     H_    0.906157 0.681296 0.347228 0.225178
H240  H     H_    0.955184 0.630908 0.386645 0.201805

loop_
_geom_bond_atom_site_label_1
_geom_bond_atom_site_label_2
_geom_bond_distance
_ccdc_geom_bond_type
N24   O96   1.302116 A    
C155  C187  1.447209 A    
C67   C124  1.460369 A    
C201  C202  1.528829 S    
C63   C138  1.451614 A    
C282  H222  1.105547 S    
C232  H96   1.102288 S    
C99   N29   1.432706 S    
C62   C267  1.523722 S    
C264  H178  1.109331 S    
C71   C285  1.525158 S    
N29   O105  1.301360 A    
C86   C97   1.403253 A    
C223  H80   1.104665 S    
N17   O81   1.301811 A    
C197  H15   1.090191 S    
C283  H229  1.110106 S    
C259  H170  1.107748 S    
C6    C182  1.475047 S    
O21   C11   1.289847 A    
O11   Zn4   2.057271 S    
C260  H167  1.109636 S    
O22   C12   1.294933 A    
C145  C181  1.420401 A    
C122  C167  1.410747 A    
C73   N7    1.442463 S    
C282  H223  1.109377 S    
C260  H166  1.104046 S    
N7    O61   1.300488 A    
C54   C251  1.505549 S    
C273  H204  1.107584 S    
C140  C155  1.439438 A    
C103  N25   1.435907 S    
N8    O63   1.300987 A    
C5    C191  1.471035 S    
C61   C265  1.531774 S    
C279  H219  1.111207 S    
C258  H161  1.105034 S    
C39   C87   1.407187 A    
C223  C224  1.521602 S    
C137  C177  1.455715 A    
C66   C135  1.465305 A    
C26   C74   1.398672 A    
C238  H113  1.108500 S    
C221  C222  1.551624 S    
C51   C245  1.518004 S    
C246  H131  1.104636 S    
C62   C110  1.422246 A    
C54   C137  1.469365 A    
O3    C1    1.308713 A    
C75   C108  1.401417 A    
C7    C189  1.470717 S    
O44   C22   1.300538 A    
C74   C119  1.401965 A    
C141  C152  1.410324 A    
O46   C24   1.310220 A    
C249  H144  1.108719 S    
C66   C114  1.405684 A    
C77   N3    1.440695 S    
C160  C188  1.429843 A    
C39   C162  1.461241 A    
C165  C191  1.427550 A    
C88   N12   1.437448 S    
C95   C98   1.403309 A    
O40   Zn11  2.059657 S    
C195  H10   1.108232 S    
C134  C174  1.435756 A    
C114  N46   1.444279 S    
C70   C283  1.523780 S    
C268  H187  1.108745 S    
C278  H212  1.106759 S    
C141  C179  1.422112 A    
C63   C269  1.499385 S    
C224  H77   1.107017 S    
C90   N22   1.438945 S    
N20   O88   1.301650 A    
C59   C140  1.462729 A    
N43   O133  1.301836 A    
C200  H18   1.101682 S    
N30   O107  1.300826 A    
C150  C182  1.448387 A    
O44   Zn9   2.044655 S    
C82   C103  1.400999 A    
C228  H87   1.109770 S    
C253  H154  1.110130 S    
C267  C268  1.551887 S    
C89   N23   1.440747 S    
C222  H73   1.104346 S    
O26   Zn8   2.052648 S    
C24   C176  1.447373 S    
N22   O91   1.301176 A    
O30   Zn10  2.052634 S    
C244  H128  1.110223 S    
C65   C273  1.524160 S    
C73   C110  1.390148 A    
C208  H37   1.109016 S    
C213  H55   1.089518 S    
C31   C205  1.524374 S    
C36   C84   1.402075 A    
C229  H94   1.110458 S    
C69   C281  1.524448 S    
C272  H196  1.107271 S    
C64   C112  1.408401 A    
C230  H93   1.110367 S    
C204  H28   1.108164 S    
N34   O115  1.300773 A    
O8    Zn2   2.051814 S    
C272  H198  1.109247 S    
C4    C192  1.451242 S    
N10   O67   1.301118 A    
O47   C23   1.313013 A    
C193  H4    1.112845 S    
C262  H173  1.104608 S    
C277  H215  1.079769 S    
C48   C157  1.420233 A    
C203  C204  1.527640 S    
C126  C161  1.410881 A    
N6    O60   1.301448 A    
C32   C165  1.436803 A    
C218  H62   1.109344 S    
C247  H139  1.110828 S    
C72   C287  1.528961 S    
N16   O79   1.300644 A    
C264  H176  1.110045 S    
C59   C107  1.405841 A    
C237  C238  1.524964 S    
C92   C107  1.358734 A    
C60   C108  1.397210 A    
O41   C21   1.291445 A    
C233  H104  1.109431 S    
C206  H32   1.109162 S    
C120  N44   1.433926 S    
C239  C240  1.519651 S    
C229  H95   1.089763 S    
C71   C119  1.418047 A    
C52   C100  1.406910 A    
C200  H17   1.100926 S    
C37   C85   1.411445 A    
C157  C187  1.416404 A    
C227  C228  1.528597 S    
N3    O54   1.301356 A    
C45   C233  1.522242 S    
C241  H124  1.092298 S    
O33   Zn8   2.052932 S    
C126  C170  1.434240 A    
C156  C188  1.433293 A    
C218  H63   1.110371 S    
C221  H75   1.078728 S    
C67   C277  1.497116 S    
C235  C236  1.528298 S    
C44   C92   1.404082 A    
N14   O76   1.301129 A    
C263  C264  1.528279 S    
C39   C221  1.496076 S    
C287  H240  1.107622 S    
C257  C258  1.530480 S    
N12   O72   1.301216 A    
C215  C216  1.520376 S    
C225  C226  1.547999 S    
C286  H233  1.110276 S    
C219  C220  1.529889 S    
C83   N13   1.437682 S    
O36   C18   1.297196 A    
C55   C103  1.414373 A    
C16   C180  1.462509 S    
C105  N39   1.439651 S    
C266  H181  1.102114 S    
C53   C101  1.427438 A    
C277  C278  1.550338 S    
C127  C169  1.428668 A    
C42   C159  1.424511 A    
C37   C168  1.436685 A    
C251  C252  1.553703 S    
C250  H141  1.109584 S    
C211  H50   1.103908 S    
N18   O84   1.300994 A    
O5    C3    1.293600 A    
C89   C102  1.359648 A    
C43   C229  1.520424 S    
O6    C4    1.285497 A    
C252  H146  1.102278 S    
C196  H6    1.109537 S    
C47   C95   1.408244 A    
C281  H224  1.110336 S    
N45   O138  1.301790 A    
C263  H179  1.111154 S    
C45   C93   1.421838 A    
C265  H184  1.111853 S    
N23   O94   1.301664 A    
N33   O113  1.300911 A    
O45   C23   1.292023 A    
C200  H16   1.104305 S    
C49   C97   1.412665 A    
C236  H108  1.109219 S    
N40   O127  1.301556 A    
C87   C114  1.361356 A    
N15   O78   1.300837 A    
C241  C242  1.529286 S    
C203  H30   1.108646 S    
C217  H65   1.095963 S    
C45   C152  1.445521 A    
C198  H11   1.107386 S    
C232  H97   1.103537 S    
C58   C259  1.531718 S    
C231  C232  1.553890 S    
C288  H237  1.107699 S    
N1    O49   1.301000 A    
C71   C122  1.447987 A    
N21   O90   1.301003 A    
C133  C168  1.410342 A    
C239  H120  1.098962 S    
C40   C149  1.410149 A    
O42   C22   1.292834 A    
O12   Zn6   2.059651 S    
C259  C260  1.529170 S    
C245  H134  1.106640 S    
N25   O98   1.300309 A    
C267  H190  1.101747 S    
O2    C2    1.293197 A    
N47   O141  1.299736 A    
C122  C170  1.432681 A    
C213  C214  1.526352 S    
N46   O139  1.301106 A    
C280  H218  1.106372 S    
N2    O52   1.301342 A    
C201  H24   1.112196 S    
C94   C105  1.401986 A    
C255  H160  1.098215 S    
C210  H41   1.104932 S    
C235  H110  1.107597 S    
O3    Zn3   2.056883 S    
O8    C4    1.299492 A    
C2    C190  1.463976 S    
C207  H40   1.107787 S    
C167  C189  1.419840 A    
C238  H112  1.106595 S    
C8    C184  1.456603 S    
O42   Zn7   2.040302 S    
O23   Zn6   2.042796 S    
C80   N4    1.441318 S    
N9    O65   1.298870 A    
C261  H175  1.078540 S    
C274  H202  1.108313 S    
C26   C167  1.417643 A    
C284  H227  1.109569 S    
O45   Zn11  2.041951 S    
O48   C24   1.286163 A    
N36   O119  1.300870 A    
C86   N10   1.439279 S    
C225  H84   1.108138 S    
C30   C78   1.396007 A    
O35   Zn10  2.057271 S    
N42   O132  1.301376 A    
N13   O73   1.299417 A    
C240  H118  1.102153 S    
C276  H207  1.099431 S    
C82   N14   1.445640 S    
O37   Zn8   2.057254 S    
C251  H150  1.083249 S    
O28   Zn10  2.051799 S    
C231  H99   1.109426 S    
C34   C82   1.402660 A    
C208  H36   1.101094 S    
O31   C15   1.298244 A    
C255  H159  1.111167 S    
C195  C196  1.522798 S    
O32   C16   1.295430 A    
C30   C161  1.419155 A    
N48   O143  1.300206 A    
C196  H8    1.105357 S    
C49   C241  1.515116 S    
C130  C151  1.405799 A    
N4    O56   1.300308 A    
N28   O103  1.299253 A    
C286  H231  1.105295 S    
C46   C94   1.406818 A    
C101  N27   1.433922 S    
C199  H19   1.108925 S    
O20   Zn3   2.044655 S    
O15   C7    1.293115 A    
O19   Zn6   2.041958 S    
N36   O120  1.301658 A    
C25   C158  1.442061 A    
O16   C8    1.294996 A    
N5    O58   1.300208 A    
N32   O112  1.300835 A    
C254  H151  1.104815 S    
C95   N17   1.436027 S    
C210  H43   1.110310 S    
C222  H72   1.110289 S    
C217  C218  1.527554 S    
C23   C169  1.465118 S    
C256  H157  1.109256 S    
C211  C212  1.516298 S    
C252  H148  1.104710 S    
C153  C185  1.416552 A    
C220  H67   1.107284 S    
C72   C120  1.408191 A    
C209  H44   1.111464 S    
C162  C190  1.462797 A    
N35   O118  1.301139 A    
C230  H92   1.109650 S    
C281  C282  1.526971 S    
O18   Zn1   2.040302 S    
N19   O85   1.299409 A    
N31   O110  1.301155 A    
C72   C133  1.429120 A    
C13   C175  1.470044 S    
C53   C136  1.457940 A    
C194  H2    1.110310 S    
O9    Zn2   2.052932 S    
O20   C10   1.291897 A    
C57   C142  1.438712 A    
C85   N11   1.441403 S    
C123  C171  1.424160 A    
C256  H156  1.109968 S    
C275  C276  1.553631 S    
C209  C210  1.532924 S    
C262  H172  1.110262 S    
C212  H48   1.106309 S    
N47   O142  1.301256 A    
C134  C145  1.409384 A    
C112  N36   1.435646 S    
C242  H121  1.107530 S    
C238  H111  1.106948 S    
O38   Zn12  2.051265 S    
C197  H14   1.109087 S    
C198  H13   1.110362 S    
C135  C173  1.445096 A    
O39   Zn10  2.052944 S    
C270  H192  1.110693 S    
N26   O99   1.301231 A    
C264  H177  1.109946 S    
C139  C179  1.417544 A    
C142  C178  1.435537 A    
C210  H42   1.108645 S    
C229  C230  1.524513 S    
O6    Zn4   2.052634 S    
N4    O55   1.301115 A    
C59   C261  1.496538 S    
C193  C194  1.517878 S    
O14   C8    1.300752 A    
C261  H174  1.106687 S    
C285  H234  1.110166 S    
O37   C19   1.296320 A    
C139  C148  1.411607 A    
C132  C147  1.407667 A    
C209  H45   1.101468 S    
N8    O64   1.302042 A    
O5    Zn1   2.056888 S    
C248  H138  1.108623 S    
C63   C111  1.420364 A    
C143  C177  1.431427 A    
C66   C275  1.509530 S    
C164  C192  1.424370 A    
C102  N26   1.443389 S    
C214  H51   1.105786 S    
C111  N33   1.427612 S    
C286  H232  1.107605 S    
O17   C9    1.287807 A    
N11   O69   1.301356 A    
C91   N21   1.447908 S    
C246  H133  1.109918 S    
O24   C12   1.296355 A    
O13   C7    1.297915 A    
C227  H89   1.099200 S    
C20   C172  1.469193 S    
C242  H123  1.108425 S    
O28   C14   1.285518 A    
C275  H209  1.108729 S    
C124  C163  1.438764 A    
C41   C225  1.489690 S    
O29   C15   1.306953 A    
C35   C83   1.417427 A    
N44   O135  1.301654 A    
C125  C160  1.404486 A    
O30   C16   1.295088 A    
C61   C109  1.419604 A    
C138  C159  1.412090 A    
C282  H221  1.104930 S    
C144  C180  1.423800 A    
C149  C183  1.398942 A    
C56   C141  1.424526 A    
C57   C257  1.528397 S    
C215  H59   1.110483 S    
O19   C9    1.304765 A    
N37   O122  1.300869 A    
C135  C162  1.438890 A    
C234  H101  1.105125 S    
C273  C274  1.521724 S    
C138  C178  1.446159 A    
O4    Zn4   2.051799 S    
C60   C263  1.523325 S    
C269  H195  1.069522 S    
O48   Zn7   2.044648 S    
C119  N41   1.438252 S    
N30   O108  1.298963 A    
C199  C200  1.554591 S    
C21   C171  1.463636 S    
C106  N38   1.439532 S    
C228  H86   1.108842 S    
C110  N34   1.433454 S    
O24   Zn1   2.044648 S    
C54   C102  1.409395 A    
C202  H21   1.105806 S    
O35   C17   1.287897 A    
C131  C175  1.432663 A    
O32   Zn8   2.051814 S    
C254  H153  1.109325 S    
C206  H31   1.107095 S    
N22   O92   1.301148 A    
O16   Zn5   2.059657 S    
C244  H127  1.108376 S    
C51   C99   1.413719 A    
C77   C112  1.402856 A    
C137  C150  1.435510 A    
C70   C118  1.394037 A    
C87   N9    1.440557 S    
C62   C121  1.459481 A    
C253  C254  1.522626 S    
C57   C105  1.410900 A    
C204  H27   1.109326 S    
N34   O116  1.301912 A    
C283  H230  1.098386 S    
C269  C270  1.528598 S    
C272  H197  1.105261 S    
C245  H135  1.077345 S    
C50   C98   1.410701 A    
C43   C91   1.412776 A    
N24   O95   1.300532 A    
C127  C154  1.399834 A    
C243  H130  1.108049 S    
C51   C132  1.451201 A    
C247  H140  1.104223 S    
C213  H54   1.108631 S    
O34   C18   1.294339 A    
N16   O80   1.300574 A    
C83   C116  1.402201 A    
C36   C215  1.519945 S    
C205  H35   1.095387 S    
C55   C253  1.520738 S    
N29   O106  1.299747 A    
C42   C227  1.511011 S    
C132  C176  1.446066 A    
C223  H79   1.112970 S    
N17   O82   1.301094 A    
C67   C115  1.403568 A    
C143  C146  1.402059 A    
C68   C116  1.400468 A    
C259  H169  1.113596 S    
C245  C246  1.523403 S    
C117  N43   1.436692 S    
C27   C75   1.419373 A    
C10   C186  1.445556 S    
C28   C76   1.406683 A    
C260  H168  1.110246 S    
N15   O77   1.298824 A    
C36   C147  1.421393 A    
C136  C176  1.448359 A    
N27   O102  1.300631 A    
C281  H225  1.095938 S    
C69   C117  1.414678 A    
C19   C177  1.462486 S    
C81   C118  1.403166 A    
O4    C2    1.298345 A    
C50   C143  1.443785 A    
C48   C239  1.519118 S    
O23   C11   1.305712 A    
C248  H136  1.107135 S    
C140  C180  1.460855 A    
C225  H85   1.074955 S    
C90   C111  1.386696 A    
C48   C96   1.397036 A    
C214  H53   1.110382 S    
C94   N18   1.434169 S    
C224  H76   1.110125 S    
C78   N2    1.444032 S    
C78   C113  1.401761 A    
O17   Zn5   2.042788 S    
C80   C117  1.405309 A    
N39   O126  1.297908 A    
O25   C13   1.288161 A    
C269  H194  1.108930 S    
C84   C99   1.398778 A    
C1    C187  1.474313 S    
C266  H182  1.109317 S    
C42   C90   1.387070 A    
C199  H20   1.079715 S    
C136  C149  1.398939 A    
C81   N15   1.434685 S    
O38   C20   1.300391 A    
C29   C77   1.410304 A    
C271  C272  1.516802 S    
C38   C219  1.531418 S    
O9    C5    1.297340 A    
C195  H9    1.110802 S    
C32   C80   1.404692 A    
C30   C203  1.526469 S    
C268  H188  1.094071 S    
C33   C81   1.421372 A    
C278  H211  1.105253 S    
N45   O137  1.299903 A    
N37   O121  1.299978 A    
C224  H78   1.100242 S    
C163  C191  1.456192 A    
C123  C156  1.409250 A    
C166  C190  1.424744 A    
N20   O87   1.299929 A    
C226  H81   1.104758 S    
C3    C185  1.460295 S    
C219  H69   1.113925 S    
C76   N8    1.443536 S    
C148  C184  1.439945 A    
C44   C155  1.462538 A    
C266  H183  1.110442 S    
C228  H88   1.108319 S    
N40   O128  1.301802 A    
C250  H143  1.108280 S    
C217  H64   1.110570 S    
C14   C178  1.463479 S    
C206  H33   1.110000 S    
O1    Zn1   2.048489 S    
C198  H12   1.110699 S    
C208  H38   1.110268 S    
O7    C3    1.302596 A    
C280  H216  1.109446 S    
C9    C183  1.458145 S    
N27   O101  1.300291 A    
C205  H34   1.110903 S    
C29   C160  1.442795 A    
C50   C243  1.532654 S    
N21   O89   1.299641 A    
C64   C125  1.422171 A    
C31   C79   1.417356 A    
C85   C120  1.400808 A    
N38   O124  1.301064 A    
C142  C153  1.408229 A    
N25   O97   1.301430 A    
C100  N32   1.433218 S    
C97   N31   1.436508 S    
C193  H5    1.097917 S    
N23   O93   1.300358 A    
N6    O59   1.300595 A    
N46   O140  1.302405 A    
C218  H61   1.101497 S    
O40   C20   1.301972 A    
C69   C128  1.439003 A    
C25   C193  1.533818 S    
C197  C198  1.528783 S    
C243  C244  1.529292 S    
O15   Zn4   2.052944 S    
C56   C255  1.524831 S    
C279  C280  1.526132 S    
C128  C172  1.423279 A    
C131  C164  1.410562 A    
C133  C175  1.416295 A    
O12   C6    1.304469 A    
C216  H57   1.106341 S    
C25   C73   1.395094 A    
O13   Zn2   2.057254 S    
C168  C192  1.434616 A    
C233  H105  1.090096 S    
C33   C209  1.530401 S    
N31   O109  1.300928 A    
C207  C208  1.527739 S    
N11   O70   1.298873 A    
C284  H226  1.109838 S    
C151  C181  1.415977 A    
C37   C217  1.524249 S    
N39   O125  1.301382 A    
C205  C206  1.529189 S    
C65   C113  1.418954 A    
C109  N35   1.434962 S    
C249  C250  1.530942 S    
C241  H125  1.108510 S    
O33   C17   1.304674 A    
C261  C262  1.551295 S    
C240  H117  1.109485 S    
C288  H236  1.108830 S    
C104  N28   1.441982 S    
C276  H206  1.104726 S    
N38   O123  1.301232 A    
C68   C279  1.525164 S    
C88   C101  1.397017 A    
C158  C186  1.432084 A    
N14   O75   1.300862 A    
C79   N1    1.434675 S    
N43   O134  1.301150 A    
N10   O68   1.301135 A    
C31   C154  1.440943 A    
C287  H239  1.110350 S    
C196  H7    1.109783 S    
C98   N30   1.441478 S    
N12   O71   1.301162 A    
N28   O104  1.301259 A    
C113  N47   1.433287 S    
C34   C211  1.515263 S    
C216  H58   1.108892 S    
O41   Zn11  2.042788 S    
C44   C231  1.503997 S    
C96   C109  1.401409 A    
C285  H235  1.088675 S    
C115  N45   1.441542 S    
C22   C174  1.444028 S    
C47   C146  1.431150 A    
O27   C13   1.316929 A    
C236  H107  1.109816 S    
C27   C197  1.522990 S    
C33   C166  1.448618 A    
N35   O117  1.298484 A    
C121  C169  1.454929 A    
C283  C284  1.526136 S    
C129  C166  1.401070 A    
O29   Zn7   2.056888 S    
C211  H49   1.110586 S    
C226  H82   1.107708 S    
C270  H193  1.109633 S    
C38   C145  1.432181 A    
C130  C174  1.435288 A    
C92   N24   1.443367 S    
C252  H147  1.109727 S    
C220  H66   1.103347 S    
C52   C139  1.428014 A    
O2    Zn2   2.052648 S    
C70   C129  1.423502 A    
C237  H115  1.102499 S    
C35   C213  1.523506 S    
C265  H185  1.105777 S    
C76   C115  1.358432 A    
C29   C201  1.530874 S    
C34   C151  1.417561 A    
N33   O114  1.296994 A    
C279  H220  1.099073 S    
O43   Zn12  2.041958 S    
C55   C130  1.450248 A    
C194  H3    1.110399 S    
C244  H126  1.104546 S    
O22   Zn3   2.040298 S    
C28   C199  1.501765 S    
C220  H68   1.110217 S    
O10   Zn5   2.051275 S    
C258  H162  1.109064 S    
C212  H47   1.109845 S    
C203  H29   1.110809 S    
C125  C171  1.418127 A    
C250  H142  1.110020 S    
C242  H122  1.110276 S    
C40   C223  1.514761 S    
C247  C248  1.527643 S    
C271  H199  1.109274 S    
C93   C104  1.401746 A    
O27   Zn9   2.056883 S    
C232  H98   1.101739 S    
C254  H152  1.110184 S    
C43   C148  1.441787 A    
C124  C172  1.452326 A    
N26   O100  1.301789 A    
C128  C165  1.400696 A    
C288  H238  1.109997 S    
C216  H56   1.108671 S    
C219  H70   1.107952 S    
C257  H165  1.101094 S    
C287  C288  1.527957 S    
O7    Zn3   2.048491 S    
C38   C86   1.401147 A    
C226  H83   1.106115 S    
C233  C234  1.523374 S    
O47   Zn12  2.042796 S    
C239  H119  1.110677 S    
C58   C106  1.399703 A    
C108  N40   1.443715 S    
C146  C182  1.420938 A    
C64   C271  1.520850 S    
C65   C126  1.444841 A    
N19   O86   1.301135 A    
C74   N6    1.442722 S    
C79   C106  1.406057 A    
C212  H46   1.110231 S    
C267  H189  1.111981 S    
C147  C183  1.414790 A    
C15   C173  1.472456 S    
O46   Zn9   2.040298 S    
N1    O50   1.301602 A    
C240  H116  1.110304 S    
C116  N48   1.441717 S    
C27   C156  1.449683 A    
N2    O51   1.300150 A    
C159  C185  1.416252 A    
C236  H106  1.107594 S    
C201  H25   1.099292 S    
C28   C163  1.466878 A    
C53   C249  1.492726 S    
C49   C134  1.439930 A    
C154  C186  1.418650 A    
C249  H145  1.067589 S    
C235  H109  1.110271 S    
C230  H91   1.101444 S    
C248  H137  1.106897 S    
C258  H163  1.110270 S    
C221  H74   1.106779 S    
N48   O144  1.300369 A    
C257  H164  1.112663 S    
C234  H103  1.110375 S    
C246  H132  1.107403 S    
N18   O83   1.301706 A    
C214  H52   1.110101 S    
C12   C188  1.438811 S    
N9    O66   1.301215 A    
C274  H201  1.098099 S    
C284  H228  1.108179 S    
C46   C235  1.528759 S    
O34   Zn11  2.051275 S    
C227  H90   1.105047 S    
N3    O53   1.299590 A    
C58   C127  1.429615 A    
C129  C173  1.418532 A    
N42   O131  1.299294 A    
C107  N37   1.440614 S    
C277  H214  1.108244 S    
N5    O57   1.300347 A    
C276  H208  1.110572 S    
C275  H210  1.085643 S    
N7    O62   1.297144 A    
C46   C153  1.428647 A    
C96   N20   1.440877 S    
C251  H149  1.107499 S    
N44   O136  1.300870 A    
C273  H205  1.091562 S    
O25   Zn7   2.048489 S    
O39   C19   1.297979 A    
C56   C104  1.395759 A    
C263  H180  1.099680 S    
O36   Zn12  2.059651 S    
C61   C144  1.449758 A    
C161  C189  1.416159 A    
O18   C10   1.299747 A    
O11   C5    1.301680 A    
C231  H100  1.084780 S    
C285  C286  1.524924 S    
C278  H213  1.108190 S    
C215  H60   1.104737 S    
C237  H114  1.110161 S    
C271  H200  1.105979 S    
C41   C150  1.455044 A    
C118  N42   1.441337 S    
C265  C266  1.531024 S    
C18   C170  1.448260 S    
C234  H102  1.108405 S    
C35   C164  1.445357 A    
O31   Zn9   2.048491 S    
C52   C247  1.529036 S    
C144  C157  1.400541 A    
C11   C181  1.459052 S    
C68   C131  1.427286 A    
C91   C100  1.405076 A    
O26   C14   1.307679 A    
C152  C184  1.431874 A    
N41   O129  1.299907 A    
N32   O111  1.302126 A    
C26   C195  1.522308 S    
C202  H22   1.106847 S    
C40   C88   1.389714 A    
C41   C89   1.399240 A    
C222  H71   1.107137 S    
N13   O74   1.301609 A    
N41   O130  1.301497 A    
C32   C207  1.532739 S    
C256  H158  1.105301 S    
C47   C237  1.520287 S    
O14   Zn6   2.051265 S    
C255  C256  1.527547 S    
O10   C6    1.300087 A    
C60   C123  1.424622 A    
C280  H217  1.109688 S    
C243  H129  1.113609 S    
C84   N16   1.442373 S    
C93   N19   1.437301 S    
C270  H191  1.110375 S    
C274  H203  1.110436 S    
O43   C21   1.304612 A    
C204  H26   1.110104 S    
O21   Zn5   2.041951 S    
C121  C158  1.424601 A    
C75   N5    1.437722 S    
C194  H1    1.097890 S    
C17   C179  1.468334 S    
C207  H39   1.113633 S    
O1    C1    1.296974 A    
C253  H155  1.083879 S    
C268  H186  1.108936 S    
C262  H171  1.106726 S    
C202  H23   1.110364 S    
