data_mof_unit_43264.cif
_audit_creation_date              2012-12-10T17:51:23-0500
_audit_creation_method            fapswitch 2.2
_symmetry_space_group_name_H-M    P1
_symmetry_Int_Tables_number       1
_space_group_crystal_system       triclinic
_cell_length_a                    9.974833
_cell_length_b                    10.757027
_cell_length_c                    16.299489
_cell_angle_alpha                 91.395391
_cell_angle_beta                  85.499059
_cell_angle_gamma                 90.210353
_cell_volume                      1743.01442548

loop_
_atom_site_label
_atom_site_type_symbol
_atom_type_description
_atom_site_fract_x
_atom_site_fract_y
_atom_site_fract_z
_atom_type_partial_charge
Br1   Br    Br    0.769193 0.178862 0.132391 -0.393118
Br2   Br    Br    0.298764 0.737786 0.337855 -0.475298
Br3   Br    Br    0.991027 0.859586 0.386483 -0.423205
Br4   Br    Br    0.753617 0.729777 0.644640 -0.453761
Br5   Br    Br    0.798957 0.580888 0.822332 -0.363792
Br6   Br    Br    0.205073 0.729714 0.642932 -0.479472
Br7   Br    Br    0.732768 0.322708 0.952877 -0.340556
C1    C     C_R   0.500382 0.739160 0.492142 0.962951
C2    C     C_R   0.532367 0.450648 0.259855 -0.087878
C3    C     C_R   0.275128 0.872916 0.415189 0.268781
C4    C     C_R   0.481420 0.496420 0.653876 0.896459
C5    C     C_R   0.157590 0.940491 0.406626 0.291527
C6    C     C_R   0.168341 0.067482 0.395660 -0.220478
C7    C     C_R   0.292383 0.125520 0.401030 0.087884
C8    C     C_R   0.394649 0.064552 0.441073 0.039112
C9    C     C_R   0.389489 0.933735 0.444882 -0.027851
C10   C     C_R   0.501245 0.870809 0.474731 -0.090692
C11   C     C_R   0.616686 0.936549 0.492713 -0.122404
C12   C     C_R   0.470708 0.317818 0.743156 -0.198847
C13   C     C_R   0.616797 0.063535 0.494465 -0.179496
C14   C     C_R   0.503703 0.128165 0.474272 -0.099323
C15   C     C_R   0.847102 0.574495 0.644715 0.218229
C16   C     C_R   0.500725 0.260412 0.492763 0.826839
C17   C     C_R   0.903538 0.556059 0.719456 0.274369
C18   C     C_R   0.043036 0.550349 0.718987 -0.031613
C19   C     C_R   0.118622 0.570033 0.644317 0.218189
C20   C     C_R   0.063018 0.531767 0.571085 0.072304
C21   C     C_R   0.919560 0.533526 0.570997 0.034466
C22   C     C_R   0.937189 0.474652 0.430703 -0.045289
C23   C     C_R   0.443735 0.428999 0.127057 -0.205767
C24   C     C_R   0.079528 0.477484 0.430346 -0.057622
C25   C     C_R   0.518917 0.493061 0.345949 0.884803
C26   C     C_R   0.469672 0.447726 0.736380 -0.083516
C27   C     C_R   0.454320 0.524742 0.807414 0.066988
C28   C     C_R   0.441725 0.470022 0.884258 -0.053753
C29   C     C_R   0.446108 0.340182 0.890645 0.128363
C30   C     C_R   0.459224 0.264012 0.820132 -0.065057
C31   C     C_R   0.435144 0.479412 0.206407 -0.123548
C32   C     C_R   0.634170 0.364974 0.234441 -0.241522
C33   C     C_R   0.639629 0.308945 0.156236 0.345355
C34   C     C_R   0.545702 0.343216 0.100742 0.022644
C35   C     C_2   0.448717 0.287754 0.972250 -0.303709
C36   C     C_2   0.559688 0.303457 0.013097 0.328690
H1    H     H_    0.705234 0.890539 0.511245 0.226866
H2    H     H_    0.481733 0.258074 0.688526 0.148310
H3    H     H_    0.351670 0.275214 0.006247 0.165395
H4    H     H_    0.432712 0.528891 0.939313 0.160577
H5    H     H_    0.376762 0.683764 0.768095 0.205478
H6    H     H_    0.544349 0.685818 0.773019 0.259841
H7    H     H_    0.271312 0.304998 0.373942 0.216454
H8    H     H_    0.424624 0.244877 0.340796 0.182272
H9    H     H_    0.151921 0.634860 0.804592 0.237152
H10   H     H_    0.178000 0.479627 0.790839 0.198168
H11   H     H_    0.085949 0.117195 0.371961 0.187142
H12   H     H_    0.703971 0.110875 0.516012 0.185336
H13   H     H_    0.891498 0.453274 0.374025 0.147756
H14   H     H_    0.352759 0.540970 0.225390 0.203436
H15   H     H_    0.138037 0.463173 0.372456 0.148795
H16   H     H_    0.705599 0.336294 0.277029 0.171149
H17   H     H_    0.463624 0.163855 0.824787 0.171380
H18   H     H_    0.370881 0.459017 0.085875 0.155911
N1    N     N_R   0.857140 0.501200 0.500750 -0.094579
N2    N     N_R   0.142740 0.501280 0.500770 -0.091903
N3    N     N_3   0.453960 0.657509 0.803434 -0.418574
N4    N     N_3   0.321467 0.227718 0.348000 -0.421517
N5    N     N_3   0.105015 0.549367 0.795271 -0.360723
O1    O     O_R   0.385310 0.683220 0.500000 -0.548123
O2    O     O_R   0.614640 0.683250 0.500010 -0.572624
O3    O     O_R   0.371780 0.500010 0.615800 -0.599616
O4    O     O_R   0.601110 0.500030 0.615800 -0.582451
O5    O     O_R   0.385360 0.316750 0.499990 -0.625763
O6    O     O_R   0.614690 0.316780 0.500000 -0.626465
O7    O     O_R   0.398890 0.499970 0.384200 -0.612765
O8    O     O_R   0.628220 0.499990 0.384200 -0.615662
Zn1   Zn    Zn3+2 0.346870 0.499980 0.499990 0.995520
Zn2   Zn    Zn3+2 0.653130 0.500020 0.500010 1.003442

loop_
_geom_bond_atom_site_label_1
_geom_bond_atom_site_label_2
_ccdc_geom_bond_type
O7    Zn1   S    
C29   C35   S    
C28   C29   A    
O6    Zn2   S    
C28   H4    S    
C4    O4    A    
C19   C20   A    
O8    Zn2   S    
C24   H15   S    
C29   C30   A    
C25   O8    A    
H5    N3    S    
C8    C9    A    
C2    C32   A    
C23   C31   A    
C27   C28   A    
H8    N4    S    
Br3   C5    S    
C12   C30   A    
C2    C25   S    
C9    C10   A    
C23   C34   A    
Br7   C36   S    
Br1   C33   S    
H6    N3    S    
C15   C21   A    
C6    C7    A    
C34   C36   S    
N1    Zn2   S    
C35   H3    S    
C13   H12   S    
C26   C27   A    
C24   N2    A    
C4    C26   S    
C17   C18   A    
C12   C26   A    
C32   C33   A    
C18   C19   A    
C11   H1    S    
C31   H14   S    
Br4   C15   S    
C32   H16   S    
C27   N3    S    
C10   C11   A    
C5    C6    A    
H10   N5    S    
C3    C5    A    
C33   C34   A    
C1    O2    A    
C14   C16   S    
O4    Zn2   S    
C4    O3    A    
C15   C17   A    
O1    Zn1   S    
C35   C36   D    
Br2   C3    S    
C25   O7    A    
H9    N5    S    
C6    H11   S    
C22   N1    A    
C16   O5    A    
C16   O6    A    
C18   N5    S    
C12   H2    S    
C22   H13   S    
O2    Zn2   S    
C1    C10   S    
C22   C24   A    
C3    C9    A    
O5    Zn1   S    
Br6   C19   S    
Br5   C17   S    
N2    Zn1   S    
C2    C31   A    
C7    N4    S    
O3    Zn1   S    
C11   C13   A    
H7    N4    S    
C30   H17   S    
C8    C14   A    
C13   C14   A    
C1    O1    A    
C23   H18   S    
C20   C21   A    
C7    C8    A    
C20   N2    A    
C21   N1    A    
