data_mof_unit_23868.cif
_audit_creation_date              2012-12-10T17:33:13-0500
_audit_creation_method            fapswitch 2.2
_symmetry_space_group_name_H-M    P1
_symmetry_Int_Tables_number       1
_space_group_crystal_system       triclinic
_cell_length_a                    12.158881
_cell_length_b                    12.655065
_cell_length_c                    13.591118
_cell_angle_alpha                 93.805432
_cell_angle_beta                  78.466195
_cell_angle_gamma                 96.181315
_cell_volume                      2034.9829574

loop_
_atom_site_label
_atom_site_type_symbol
_atom_type_description
_atom_site_fract_x
_atom_site_fract_y
_atom_site_fract_z
_atom_type_partial_charge
C1    C     C_R   0.526987 0.700383 0.487575 0.877884
C2    C     C_R   0.142750 0.451301 0.464176 0.426545
C3    C     C_R   0.973459 0.544250 0.530723 -0.160069
C4    C     C_R   0.023021 0.454794 0.478411 -0.125773
C5    C     C_R   0.479456 0.502676 0.686892 0.911246
C6    C     C_R   0.520793 0.498770 0.313126 0.909312
C7    C     C_1   0.539043 0.505620 0.208368 -0.205986
C8    C     C_1   0.463372 0.508743 0.792237 -0.202930
C9    C     C_2   0.552906 0.524815 0.016164 0.100283
C10   C     C_2   0.452790 0.522851 0.986317 0.098207
C11   C     C_1   0.454060 0.515140 0.881077 0.004950
C12   C     C_R   0.473884 0.299439 0.511235 0.867588
C13   C     C_1   0.550224 0.513993 0.120281 0.002827
C14   C     C_R   0.451424 0.185885 0.530447 -0.129542
C15   C     C_R   0.553383 0.813042 0.463570 -0.184613
C16   C     C_R   0.647543 0.980211 0.510448 -0.232756
C17   C     C_R   0.362664 0.021796 0.471596 -0.225423
C18   C     C_R   0.653900 0.873532 0.480248 0.163425
C19   C     C_R   0.353569 0.125796 0.509661 0.136988
C20   C     C_R   0.468242 0.865987 0.437446 0.082702
C21   C     C_R   0.538012 0.132645 0.554124 0.099695
C22   C     C_3   0.339884 0.514559 0.060139 -0.361668
C23   C     C_R   0.460375 0.972588 0.471348 0.068133
C24   C     C_3   0.241785 0.546529 0.017292 -0.865734
C25   C     C_3   0.665272 0.526932 0.941691 -0.371345
C26   C     C_3   0.768873 0.552998 0.990135 -0.855714
C27   C     C_3   0.609751 0.183910 0.628684 -0.405781
C28   C     C_3   0.536541 0.224280 0.725985 -0.829889
C29   C     C_3   0.399701 0.813061 0.361823 -0.363859
C30   C     C_3   0.278438 0.773436 0.408866 -0.824936
C31   C     C_3   0.236298 0.161113 0.544643 -0.342869
C32   C     C_3   0.168790 0.090130 0.627432 -0.924790
C33   C     C_3   0.768897 0.831197 0.464574 -0.347372
C34   C     C_R   0.547973 0.027851 0.515122 0.039458
C35   C     C_3   0.857805 0.894752 0.389107 -0.942238
C36   C     C_3   0.208702 0.650207 0.666692 -0.326092
C37   C     C_3   0.164280 0.593952 0.764813 -0.871355
C38   C     C_3   0.786156 0.326109 0.354560 -0.368401
C39   C     C_3   0.861110 0.319725 0.249898 -0.917024
C40   C     C_3   0.970328 0.255246 0.446849 -0.378894
C41   C     C_3   0.956668 0.225686 0.555805 -0.927312
C42   C     C_3   0.013616 0.734604 0.604934 -0.348647
C43   C     C_3   0.965638 0.756373 0.717129 -0.752147
C44   C     C_R   0.950826 0.372186 0.442202 0.172107
C45   C     C_R   0.043965 0.620629 0.577605 0.109961
C46   C     C_R   0.843778 0.395996 0.428498 0.176459
C47   C     C_R   0.154360 0.596317 0.582575 0.177732
C48   C     C_R   0.854317 0.549768 0.537668 0.437709
Cl1   Cl    Cl    0.215683 0.370354 0.368188 -0.670222
Cl2   Cl    Cl    0.775276 0.633921 0.625885 -0.675836
H1    H     H_    0.722237 0.026182 0.527274 0.150517
H2    H     H_    0.846302 0.557954 0.930627 0.247211
H3    H     H_    0.671288 0.448213 0.900568 0.209385
H4    H     H_    0.668352 0.588128 0.885890 0.236980
H5    H     H_    0.483872 0.285346 0.711291 0.239502
H6    H     H_    0.480446 0.157174 0.762997 0.256312
H7    H     H_    0.591232 0.260454 0.778123 0.243142
H8    H     H_    0.660481 0.126519 0.652854 0.199542
H9    H     H_    0.670680 0.249279 0.594998 0.234123
H10   H     H_    0.260815 0.688009 0.387452 0.269696
H11   H     H_    0.264522 0.783456 0.491814 0.253337
H12   H     H_    0.289771 0.978368 0.449114 0.175837
H13   H     H_    0.217520 0.817954 0.381435 0.220235
H14   H     H_    0.399141 0.869989 0.303075 0.193213
H15   H     H_    0.442394 0.744889 0.321101 0.195050
H16   H     H_    0.143333 0.010326 0.595399 0.257179
H17   H     H_    0.219821 0.080918 0.685119 0.272574
H18   H     H_    0.091645 0.126377 0.665833 0.256045
H19   H     H_    0.237321 0.243137 0.578031 0.241468
H20   H     H_    0.192342 0.157001 0.480157 0.232942
H21   H     H_    0.827696 0.898972 0.317615 0.274679
H22   H     H_    0.878204 0.976517 0.419428 0.259424
H23   H     H_    0.260871 0.629000 0.991144 0.256844
H24   H     H_    0.936878 0.854754 0.372901 0.251045
H25   H     H_    0.796504 0.835600 0.537840 0.233858
H26   H     H_    0.768812 0.748503 0.433437 0.252291
H27   H     H_    0.185676 0.510290 0.756490 0.270287
H28   H     H_    0.203379 0.635810 0.825464 0.245522
H29   H     H_    0.071456 0.593665 0.787125 0.258953
H30   H     H_    0.299828 0.653130 0.651571 0.260759
H31   H     H_    0.196006 0.735504 0.677987 0.172801
H32   H     H_    0.938027 0.280293 0.250921 0.273344
H33   H     H_    0.813690 0.272820 0.197162 0.254373
H34   H     H_    0.225417 0.490942 0.953946 0.264106
H35   H     H_    0.886336 0.400863 0.221498 0.268391
H36   H     H_    0.757981 0.245422 0.382613 0.188461
H37   H     H_    0.709966 0.356789 0.343479 0.273969
H38   H     H_    0.023277 0.270631 0.591239 0.275991
H39   H     H_    0.872894 0.244139 0.599179 0.257339
H40   H     H_    0.962514 0.139013 0.558332 0.257464
H41   H     H_    0.909630 0.199827 0.413863 0.198426
H42   H     H_    0.051934 0.234135 0.403615 0.252424
H43   H     H_    0.921212 0.683535 0.753408 0.284341
H44   H     H_    0.032821 0.787904 0.758553 0.226014
H45   H     H_    0.164279 0.543347 0.076694 0.256499
H46   H     H_    0.905205 0.817718 0.725436 0.253335
H47   H     H_    0.087915 0.792504 0.581916 0.159962
H48   H     H_    0.955523 0.755884 0.557967 0.221724
H49   H     H_    0.319820 0.431394 0.084453 0.228538
H50   H     H_    0.345915 0.567560 0.127839 0.218523
H51   H     H_    0.764243 0.630752 0.033045 0.261152
H52   H     H_    0.774952 0.489743 0.041166 0.263403
N1    N     N_R   0.206090 0.519450 0.517820 -0.151004
N2    N     N_R   0.793910 0.480550 0.482180 -0.156267
O1    O     O_R   0.421240 0.658850 0.504760 -0.624180
O2    O     O_R   0.578760 0.341150 0.495240 -0.642608
O3    O     O_R   0.609960 0.646370 0.493320 -0.583590
O4    O     O_R   0.390040 0.353630 0.506680 -0.582889
O5    O     O_R   0.392060 0.507120 0.646890 -0.637675
O6    O     O_R   0.607940 0.492880 0.353110 -0.643735
O7    O     O_R   0.580780 0.494630 0.635450 -0.536454
O8    O     O_R   0.419220 0.505370 0.364550 -0.546620
Zn1   Zn    Zn3+2 0.373990 0.508340 0.507630 0.960487
Zn2   Zn    Zn3+2 0.626010 0.491660 0.492370 0.962005

loop_
_geom_bond_atom_site_label_1
_geom_bond_atom_site_label_2
_ccdc_geom_bond_type
C15   C18   A    
C41   H39   S    
C35   H24   S    
C16   H1    S    
C19   C31   S    
C28   H6    S    
C9    C25   S    
C28   H7    S    
C10   C22   S    
C37   H29   S    
C17   C23   A    
C5    O5    A    
O2    Zn2   S    
C14   C21   A    
O1    Zn1   S    
C36   C37   S    
N1    Zn1   S    
C25   H3    S    
C42   H48   S    
C26   H51   S    
C38   C39   S    
C24   H23   S    
C48   N2    A    
C3    C48   A    
C43   H44   S    
C36   C47   S    
C9    C13   S    
C16   C34   A    
C33   H25   S    
C31   H20   S    
C30   H10   S    
C1    C15   S    
C38   H36   S    
C9    C10   D    
O6    Zn2   S    
O5    Zn1   S    
C32   H18   S    
C48   Cl2   S    
C41   H40   S    
C21   C27   S    
C29   H14   S    
C35   H21   S    
C30   H13   S    
C6    O6    A    
O8    Zn1   S    
C28   H5    S    
C44   C46   A    
C20   C29   S    
C45   C47   A    
C15   C20   A    
C47   N1    A    
C22   H50   S    
C25   H4    S    
C36   H30   S    
C42   H47   S    
C12   O4    A    
C17   C19   A    
C21   C34   A    
C5    O7    A    
C25   C26   S    
C37   H27   S    
C3    C45   A    
C42   C45   S    
O4    Zn1   S    
C2    C4    A    
O3    Zn2   S    
C29   C30   S    
C2    Cl1   S    
C26   H2    S    
C17   H12   S    
C33   H26   S    
C31   C32   S    
C20   C23   A    
C40   C44   S    
C36   H31   S    
C23   C34   A    
C43   H46   S    
C40   H42   S    
C1    O3    A    
C32   H17   S    
N2    Zn2   S    
C40   C41   S    
C12   C14   S    
C35   H22   S    
C31   H19   S    
C22   C24   S    
C24   H45   S    
C42   C43   S    
C39   H35   S    
C3    C4    A    
C32   H16   S    
C41   H38   S    
C22   H49   S    
C6    O8    A    
C14   C19   A    
C39   H32   S    
C27   H8    S    
C5    C8    S    
C29   H15   S    
C6    C7    S    
C4    C44   A    
C37   H28   S    
C38   H37   S    
C43   H43   S    
C24   H34   S    
C39   H33   S    
C27   H9    S    
C26   H52   S    
C12   O2    A    
C46   N2    A    
C2    N1    A    
C8    C11   T    
C33   C35   S    
O7    Zn2   S    
C40   H41   S    
C18   C33   S    
C38   C46   S    
C10   C11   S    
C7    C13   T    
C16   C18   A    
C30   H11   S    
C27   C28   S    
C1    O1    A    
