data_mof_unit_37620.cif
_audit_creation_date              2012-12-10T17:03:45-0500
_audit_creation_method            fapswitch 2.2
_symmetry_space_group_name_H-M    P1
_symmetry_Int_Tables_number       1
_space_group_crystal_system       triclinic
_cell_length_a                    10.095576
_cell_length_b                    10.72399
_cell_length_c                    13.114407
_cell_angle_alpha                 89.84612
_cell_angle_beta                  69.605278
_cell_angle_gamma                 89.191292
_cell_volume                      1330.68975736

loop_
_atom_site_label
_atom_site_type_symbol
_atom_type_description
_atom_site_fract_x
_atom_site_fract_y
_atom_site_fract_z
_atom_type_partial_charge
C1    C     C_R   0.499187 0.737263 0.500185 0.928846
C2    C     C_R   0.368767 0.495146 0.823561 -0.114101
C3    C     C_2   0.593095 0.060996 0.545461 0.047358
C4    C     C_R   0.420709 0.496829 0.704468 0.840043
C5    C     C_2   0.487808 0.132415 0.534125 -0.378709
C6    C     C_2   0.577344 0.927041 0.550079 -0.240775
C7    C     C_2   0.498201 0.869653 0.501991 -0.327771
C8    C     C_2   0.081560 0.401071 0.488976 -0.139199
C9    C     C_2   0.947936 0.409387 0.463460 0.057574
C10   C     C_R   0.497660 0.262958 0.508387 0.942539
C11   C     C_R   0.579090 0.500698 0.295865 0.852485
C12   C     C_R   0.435362 0.493700 0.984344 0.109198
C13   C     C_R   0.753255 0.354198 0.025438 -0.190242
C14   C     C_R   0.629072 0.486530 0.178367 -0.147780
C15   C     C_R   0.239790 0.553763 0.882571 -0.173122
C16   C     C_R   0.204077 0.574269 0.993817 -0.134591
C17   C     C_R   0.301761 0.546534 0.044381 -0.096890
C18   C     C_2   0.934629 0.311391 0.388963 0.446461
C19   C     C_2   0.852529 0.574773 0.588144 0.561846
C20   C     C_2   0.487268 0.666427 0.151526 0.358122
C21   C     C_2   0.729599 0.105163 0.549771 0.449383
C22   C     C_R   0.457735 0.451026 0.878262 0.043101
C23   C     C_R   0.544576 0.475015 0.027811 0.076234
C24   C     C_R   0.654918 0.387379 0.976628 0.123652
C25   C     C_R   0.663611 0.331429 0.878807 -0.150270
C26   C     C_R   0.567347 0.364374 0.829494 -0.138105
C27   C     C_R   0.548024 0.538489 0.120973 -0.065306
C28   C     C_R   0.736215 0.399219 0.128338 -0.178840
H1    H     H_    0.802208 0.361127 0.170420 0.215753
H2    H     H_    0.270708 0.564465 0.130696 0.131912
H3    H     H_    0.103001 0.616577 0.040055 0.152794
H4    H     H_    0.575364 0.318170 0.754714 0.212801
H5    H     H_    0.999731 0.227447 0.376643 0.011905
H6    H     H_    0.820381 0.671926 0.590677 0.020268
H7    H     H_    0.463072 0.701321 0.233676 0.068540
H8    H     H_    0.826274 0.054798 0.504734 0.028274
H9    H     H_    0.386054 0.092368 0.543665 0.149161
H10   H     H_    0.639950 0.873539 0.588132 0.165397
H11   H     H_    0.436540 0.917975 0.460590 0.144918
H12   H     H_    0.130074 0.310253 0.489381 0.152506
H13   H     H_    0.111583 0.583100 0.481241 0.152055
H14   H     H_    0.745751 0.263132 0.839764 0.176774
H15   H     H_    0.836666 0.286504 0.987732 0.151288
H16   H     H_    0.168408 0.586045 0.842404 0.176035
N1    N     N_2   0.148270 0.498670 0.498870 -0.169660
N2    N     N_2   0.852610 0.498640 0.498840 -0.167970
O1    O     O_R   0.386950 0.680940 0.500020 -0.620669
O2    O     O_2   0.876542 0.530405 0.666033 -0.574243
O3    O     O_2   0.472381 0.737438 0.083236 -0.552709
O4    O     O_2   0.734841 0.190010 0.609797 -0.597437
O5    O     O_R   0.613110 0.680900 0.499980 -0.642092
O6    O     O_R   0.330780 0.500000 0.653640 -0.593918
O7    O     O_R   0.556930 0.499960 0.653610 -0.604045
O8    O     O_R   0.386890 0.319100 0.500020 -0.627025
O9    O     O_R   0.613050 0.319060 0.499980 -0.527026
O10   O     O_R   0.443070 0.500040 0.346390 -0.627390
O11   O     O_R   0.669220 0.500000 0.346360 -0.557624
O12   O     O_2   0.856834 0.324337 0.336782 -0.575749
Zn1   Zn    Zn3+2 0.349000 0.500030 0.500020 0.954481
Zn2   Zn    Zn3+2 0.651000 0.499970 0.499980 1.011554

loop_
_geom_bond_atom_site_label_1
_geom_bond_atom_site_label_2
_ccdc_geom_bond_type
C25   H14   S    
C2    C22   A    
C2    C4    S    
C23   C24   A    
C6    H10   S    
C13   C28   A    
C26   H4    S    
C6    C7    D    
C10   O9    A    
C20   C27   S    
C5    H9    S    
C14   C27   A    
O10   Zn1   S    
C13   H15   S    
C3    C5    D    
C3    C6    S    
C14   C28   A    
C19   N2    S    
C9    N2    D    
C21   H8    S    
C1    C7    S    
O9    Zn2   S    
C12   C17   A    
C2    C15   A    
C1    O5    A    
C12   C23   A    
C20   O3    D    
C17   H2    S    
C4    O6    A    
C1    O1    A    
C28   H1    S    
O6    Zn1   S    
O7    Zn2   S    
C15   H16   S    
C23   C27   A    
O8    Zn1   S    
C10   O8    A    
C18   H5    S    
C3    C21   S    
C4    O7    A    
C16   C17   A    
O1    Zn1   S    
C15   C16   A    
C12   C22   A    
C9    C18   S    
C5    C10   S    
C24   C25   A    
C22   C26   A    
C11   C14   S    
C7    H11   S    
C8    N1    D    
C21   O4    D    
O11   Zn2   S    
H13   N1    S    
O5    Zn2   S    
C8    H12   S    
N2    Zn2   S    
C25   C26   A    
C11   O11   A    
C20   H7    S    
C18   O12   D    
N1    Zn1   S    
C11   O10   A    
C13   C24   A    
C19   O2    D    
C8    C9    S    
C16   H3    S    
C19   H6    S    
