data_mof_unit_35848.cif
_audit_creation_date              2012-12-10T16:48:44-0500
_audit_creation_method            fapswitch 2.2
_symmetry_space_group_name_H-M    P1
_symmetry_Int_Tables_number       1
_space_group_crystal_system       triclinic
_cell_length_a                    7.985673
_cell_length_b                    8.534146
_cell_length_c                    11.037927
_cell_angle_alpha                 89.613152
_cell_angle_beta                  96.536318
_cell_angle_gamma                 92.830195
_cell_volume                      746.442918312

loop_
_atom_site_label
_atom_site_type_symbol
_atom_type_description
_atom_site_fract_x
_atom_site_fract_y
_atom_site_fract_z
_atom_type_partial_charge
C1    C     C_R   0.541623 0.793365 0.494576 0.928708
C2    C     C_2   0.452476 0.045908 0.530878 0.099405
C3    C     C_R   0.458283 0.206628 0.505155 0.923148
C4    C     C_R   0.568381 0.490046 0.732725 0.870428
C5    C     C_R   0.430920 0.504318 0.267076 0.853809
C6    C     C_2   0.606214 0.479186 0.862188 0.216045
C7    C     C_2   0.391666 0.496556 0.137334 0.227305
C8    C     C_2   0.482609 0.477737 0.933064 -0.139872
C9    C     C_2   0.514509 0.486285 0.066592 -0.123004
C10   C     C_2   0.547203 0.954061 0.468596 0.058596
H1    H     H_    0.642391 0.488132 0.110205 0.234340
H2    H     H_    0.354831 0.475302 0.889135 0.239099
H3    H     H_    0.985154 0.378009 0.411754 0.219667
H4    H     H_    0.014935 0.619718 0.590329 0.251517
H5    H     H_    0.026471 0.390265 0.206482 0.375756
H6    H     H_    0.950584 0.356290 0.795232 0.381382
H7    H     H_    0.759920 0.812518 0.263494 0.395719
H8    H     H_    0.301528 0.113839 0.827320 0.416203
N1    N     N_2   0.940600 0.458860 0.467170 -0.152200
N2    N     N_2   0.059400 0.541140 0.532830 -0.141038
O1    O     O_R   0.391630 0.738350 0.508060 -0.572289
O2    O     O_2   0.153070 0.339925 0.006547 -0.269868
O3    O     O_3   0.046250 0.500402 0.180820 -0.472576
O4    O     O_2   0.847138 0.625528 0.995338 -0.174209
O5    O     O_2   0.828518 0.334948 0.005391 -0.246523
O6    O     O_3   0.951964 0.468301 0.818635 -0.467174
O7    O     O_2   0.522103 0.121656 0.257809 -0.269744
O8    O     O_2   0.806080 0.083405 0.359227 -0.280219
O9    O     O_3   0.643952 0.848273 0.242939 -0.510347
O10   O     O_2   0.192489 0.916803 0.638371 -0.253445
O11   O     O_2   0.476520 0.879263 0.741963 -0.286197
O12   O     O_R   0.608370 0.261650 0.491940 -0.586089
O13   O     O_3   0.351691 0.152695 0.754071 -0.557682
O14   O     O_R   0.674540 0.711990 0.487010 -0.611003
O15   O     O_R   0.325460 0.288010 0.512990 -0.589035
O16   O     O_R   0.411370 0.508250 0.688780 -0.590479
O17   O     O_R   0.588630 0.491750 0.311220 -0.614818
O18   O     O_R   0.694270 0.481880 0.667740 -0.597877
O19   O     O_R   0.305730 0.518120 0.332260 -0.591590
O20   O     O_2   0.166345 0.630114 0.991646 -0.163505
S1    S     S_3+6 0.183406 0.491480 0.076226 0.125581
S2    S     S_3+6 0.814328 0.476173 0.923219 0.125045
S3    S     S_3+6 0.632128 0.007949 0.329809 0.077809
S4    S     S_3+6 0.366192 0.992053 0.669098 0.067713
Zn1   Zn    Zn3+2 0.311100 0.517600 0.514050 1.100107
Zn2   Zn    Zn3+2 0.688900 0.482400 0.485950 1.073401

loop_
_geom_bond_atom_site_label_1
_geom_bond_atom_site_label_2
_ccdc_geom_bond_type
O5    S2    D    
C4    O16   A    
C1    O1    A    
O19   Zn1   S    
O14   Zn2   S    
C5    O17   A    
O4    S2    D    
O8    S3    D    
N2    Zn1   S    
O3    S1    S    
C3    O15   A    
C8    H2    S    
H5    O3    S    
C2    C3    S    
C10   S3    S    
N1    Zn2   S    
C5    C7    S    
O16   Zn1   S    
O9    S3    S    
C9    H1    S    
O10   S4    D    
O20   S1    D    
C4    O18   A    
C1    O14   A    
O1    Zn1   S    
C7    S1    S    
H6    O6    S    
C3    O12   A    
H8    O13   S    
O18   Zn2   S    
O2    S1    D    
O11   S4    D    
H3    N1    S    
C2    C10   D    
H4    N2    S    
H7    O9    S    
O6    S2    S    
C4    C6    S    
C6    S2    S    
C7    C9    D    
C5    O19   A    
C6    C8    D    
O17   Zn2   S    
O13   S4    S    
O12   Zn2   S    
C1    C10   S    
N1    N2    D    
C2    S4    S    
C8    C9    S    
O7    S3    D    
O15   Zn1   S    
