data_mof_unit_42275.cif
_audit_creation_date              2012-12-10T17:03:37-0500
_audit_creation_method            fapswitch 2.2
_symmetry_space_group_name_H-M    P1
_symmetry_Int_Tables_number       1
_space_group_crystal_system       triclinic
_cell_length_a                    10.02941
_cell_length_b                    10.748434
_cell_length_c                    13.219399
_cell_angle_alpha                 90.031357
_cell_angle_beta                  70.176245
_cell_angle_gamma                 89.952544
_cell_volume                      1340.60766326

loop_
_atom_site_label
_atom_site_type_symbol
_atom_type_description
_atom_site_fract_x
_atom_site_fract_y
_atom_site_fract_z
_atom_type_partial_charge
C1    C     C_R   0.498950 0.737308 0.502588 0.928684
C2    C     C_R   0.373727 0.495469 0.820980 -0.117459
C3    C     C_2   0.609843 0.066927 0.505527 -0.151112
C4    C     C_R   0.421546 0.504330 0.703943 0.863140
C5    C     C_2   0.505626 0.131136 0.488268 -0.321416
C6    C     C_2   0.612914 0.933035 0.499288 -0.154406
C7    C     C_2   0.494185 0.868797 0.513218 -0.327800
C8    C     C_2   0.104670 0.434288 0.433533 -0.106887
C9    C     C_2   0.956424 0.439998 0.429607 -0.128494
C10   C     C_R   0.501093 0.262692 0.497828 0.944843
C11   C     C_R   0.578557 0.499622 0.296274 0.883666
C12   C     C_R   0.456055 0.465504 0.972741 0.032787
C13   C     C_R   0.785925 0.584682 0.012441 -0.194420
C14   C     C_R   0.626960 0.504343 0.179863 -0.061907
C15   C     C_R   0.252148 0.425778 0.872882 -0.233477
C16   C     C_R   0.238371 0.366383 0.968940 -0.152064
C17   C     C_R   0.344681 0.376488 0.014509 0.131432
C18   C     C_R   0.468676 0.526139 0.875077 0.072545
C19   C     C_R   0.557529 0.494960 0.021847 0.091916
C20   C     C_R   0.681495 0.563488 0.965657 0.174069
C21   C     C_R   0.691854 0.621106 0.869345 -0.245826
C22   C     C_R   0.581310 0.610646 0.829420 -0.176133
C23   C     C_R   0.529033 0.474238 0.130347 -0.210176
C24   C     C_R   0.759580 0.552748 0.119571 -0.191523
H1    H     H_    0.836694 0.576327 0.157309 0.163213
H2    H     H_    0.883111 0.633158 0.968716 0.143401
H3    H     H_    0.423475 0.447613 0.179551 0.183677
H4    H     H_    0.177014 0.403838 0.832860 0.172385
H5    H     H_    0.152020 0.301374 0.001626 0.173492
H6    H     H_    0.586800 0.667079 0.760314 0.159583
H7    H     H_    0.695999 0.112722 0.523213 0.178252
H8    H     H_    0.423205 0.088395 0.464178 0.159527
H9    H     H_    0.714599 0.887337 0.483892 0.176302
H10   H     H_    0.390272 0.911518 0.535366 0.153033
H11   H     H_    0.179788 0.373587 0.376381 0.180961
H12   H     H_    0.080020 0.561114 0.549249 0.158008
H13   H     H_    0.935633 0.389793 0.365320 0.168242
H14   H     H_    0.869513 0.540773 0.563080 0.166125
H15   H     H_    0.780799 0.680991 0.828683 0.144029
I1    I     I_    0.343143 0.225974 0.120926 -0.445392
N1    N     N_2   0.148270 0.498670 0.498870 -0.193161
N2    N     N_2   0.852610 0.498640 0.498840 -0.193780
O1    O     O_R   0.386950 0.680940 0.500020 -0.612364
O2    O     O_R   0.613110 0.680900 0.499980 -0.618957
O3    O     O_R   0.330780 0.500000 0.653640 -0.614639
O4    O     O_R   0.556930 0.499960 0.653610 -0.608894
O5    O     O_R   0.386890 0.319100 0.500020 -0.608376
O6    O     O_R   0.613050 0.319060 0.499980 -0.605857
O7    O     O_R   0.443070 0.500040 0.346390 -0.610247
O8    O     O_R   0.669220 0.500000 0.346360 -0.615441
Zn1   Zn    Zn3+2 0.349000 0.500030 0.500020 0.951287
Zn2   Zn    Zn3+2 0.651000 0.499970 0.499980 0.945611

loop_
_geom_bond_atom_site_label_1
_geom_bond_atom_site_label_2
_ccdc_geom_bond_type
C12   C17   A    
C14   C23   A    
C2    C4    S    
C6    C7    D    
C11   O7    A    
C23   H3    S    
C2    C18   A    
C18   C22   A    
C17   I1    S    
C1    O2    A    
C19   C23   A    
C19   C20   A    
C21   H15   S    
C6    H9    S    
C5    H8    S    
O2    Zn2   S    
C9    H13   S    
C15   H4    S    
C5    C10   S    
C11   O8    A    
C4    O4    A    
C21   C22   A    
C8    N1    D    
C3    H7    S    
C2    C15   A    
O1    Zn1   S    
C9    N2    D    
C14   C24   A    
C12   C19   A    
C11   C14   S    
N1    Zn1   S    
H14   N2    S    
C4    O3    A    
C10   O6    A    
C7    H10   S    
C13   H2    S    
C10   O5    A    
O3    Zn1   S    
C12   C18   A    
C15   C16   A    
O4    Zn2   S    
O6    Zn2   S    
C24   H1    S    
C16   H5    S    
C3    C6    S    
H12   N1    S    
O8    Zn2   S    
C16   C17   A    
O5    Zn1   S    
C22   H6    S    
C13   C20   A    
O7    Zn1   S    
C20   C21   A    
C1    C7    S    
C1    O1    A    
C13   C24   A    
N2    Zn2   S    
C8    C9    S    
C3    C5    D    
C8    H11   S    
