data_mof_unit_27744.cif
_audit_creation_date              2012-12-10T17:13:20-0500
_audit_creation_method            fapswitch 2.2
_symmetry_space_group_name_H-M    P1
_symmetry_Int_Tables_number       1
_space_group_crystal_system       triclinic
_cell_length_a                    18.196589
_cell_length_b                    18.112421
_cell_length_c                    18.350096
_cell_angle_alpha                 119.434998
_cell_angle_beta                  90.54237
_cell_angle_gamma                 119.642862
_cell_volume                      4315.58547103

loop_
_atom_site_label
_atom_site_type_symbol
_atom_type_description
_atom_site_fract_x
_atom_site_fract_y
_atom_site_fract_z
_atom_type_partial_charge
C1    C     C_R   0.639868 0.779950 0.641603 0.785908
C2    C     C_3   0.806091 0.597609 0.824057 -0.003775
C3    C     C_3   0.703137 0.534192 0.795365 -0.008901
C4    C     C_3   0.698245 0.437803 0.774555 -0.207311
C5    C     C_3   0.694102 0.404833 0.678144 -0.167528
C6    C     C_3   0.699148 0.501103 0.699906 0.003597
C7    C     C_R   0.352559 0.089003 0.426430 -0.245846
C8    C     C_R   0.360652 0.029364 0.449587 0.003613
C9    C     C_R   0.340285 0.932858 0.381956 -0.308246
C10   C     C_R   0.300071 0.889508 0.292916 0.486444
C11   C     C_R   0.273821 0.941593 0.273406 0.007739
C12   C     C_R   0.360899 0.219432 0.361031 0.790921
C13   C     C_R   0.313084 0.047942 0.336942 0.018249
C14   C     C_R   0.307550 0.105909 0.307530 -0.048570
C15   C     C_R   0.252975 0.054048 0.221293 -0.215590
C16   C     C_R   0.201326 0.947475 0.165829 -0.238506
C17   C     C_R   0.209154 0.890806 0.192381 -0.063973
C18   C     C_R   0.842690 0.660470 0.436034 -0.126730
C19   C     C_R   0.932670 0.705010 0.474310 -0.157138
C20   C     C_R   0.976425 0.665926 0.423714 -0.157044
C21   C     C_R   0.932924 0.589650 0.332992 -0.114052
C22   C     C_R   0.844558 0.551773 0.291080 0.031379
C23   C     C_R   0.361551 0.501666 0.641687 0.794465
C24   C     C_R   0.794921 0.575435 0.345659 0.087605
C25   C     C_R   0.699951 0.511799 0.307524 -0.167234
C26   C     C_R   0.659566 0.443943 0.215504 -0.327586
C27   C     C_R   0.710738 0.438897 0.159852 0.471096
C28   C     C_R   0.804085 0.491949 0.197234 -0.203765
C29   C     C_R   0.774312 0.888809 0.811011 -0.192301
C30   C     C_R   0.839696 0.941304 0.890756 -0.151976
C31   C     C_R   0.894143 0.048858 0.944296 -0.137624
C32   C     C_R   0.883315 0.104622 0.918588 -0.175263
C33   C     C_R   0.818159 0.053101 0.837363 0.096718
C34   C     C_R   0.640930 0.504495 0.361022 0.830013
C35   C     C_R   0.762919 0.943496 0.782700 0.100115
C36   C     C_R   0.695528 0.891881 0.702942 -0.075194
C37   C     C_R   0.680017 0.947670 0.680846 -0.216046
C38   C     C_R   0.733807 0.054582 0.734183 -0.206933
C39   C     C_R   0.804058 0.107657 0.810606 -0.068533
C40   C     C_R   0.251780 0.595490 0.431339 0.510932
C41   C     C_R   0.173387 0.587153 0.449097 -0.273658
C42   C     C_R   0.096075 0.533753 0.380441 -0.224916
C43   C     C_R   0.098563 0.498655 0.294818 -0.160823
C44   C     C_R   0.176340 0.507742 0.275835 0.037200
C45   C     C_R   0.360201 0.503385 0.360288 0.809639
C46   C     C_R   0.246647 0.539204 0.340652 0.006810
C47   C     C_R   0.307300 0.511981 0.309720 -0.062055
C48   C     C_R   0.309260 0.479217 0.223589 -0.234906
C49   C     C_R   0.252108 0.472133 0.167342 -0.221588
C50   C     C_R   0.186602 0.487508 0.193718 -0.048111
C51   C     C_R   0.419924 0.695864 0.810409 -0.200208
C52   C     C_R   0.446304 0.787926 0.889849 -0.162029
C53   C     C_R   0.392390 0.788185 0.943016 -0.133253
C54   C     C_R   0.311871 0.696297 0.917327 -0.188513
C55   C     C_R   0.283165 0.601872 0.836734 0.096033
C56   C     C_R   0.641657 0.499785 0.641548 0.789600
C57   C     C_R   0.337954 0.601761 0.782204 0.103504
C58   C     C_R   0.310746 0.506789 0.702789 -0.074075
C59   C     C_R   0.233833 0.413857 0.681082 -0.211736
C60   C     C_R   0.180594 0.413875 0.734471 -0.208505
C61   C     C_R   0.203022 0.506847 0.810593 -0.076171
C62   C     C_R   0.859825 0.496010 0.139926 0.805231
C63   C     C_R   0.141832 0.501695 0.861586 0.783839
C64   C     C_R   0.142976 0.779472 0.138931 0.868444
C65   C     C_R   0.860072 0.219885 0.861619 0.779263
C66   C     C_R   0.137535 0.495661 0.140143 0.785888
C67   C     C_3   0.802379 0.565406 0.728168 -0.199036
C68   C     C_R   0.858402 0.500393 0.858607 0.782288
C69   C     C_3   0.797813 0.468840 0.707076 -0.165753
C70   C     C_3   0.801336 0.501775 0.802550 0.008075
H1    H     H_    0.837613 0.441815 0.671740 0.135154
H2    H     H_    0.352618 0.889547 0.398729 0.142468
H3    H     H_    0.153771 0.909073 0.102490 0.179711
H4    H     H_    0.587363 0.394803 0.186038 0.186567
H5    H     H_    0.813185 0.696489 0.477712 0.169499
H6    H     H_    0.967784 0.768299 0.543815 0.139412
H7    H     H_    0.044867 0.696444 0.454277 0.140141
H8    H     H_    0.968778 0.559481 0.297333 0.159012
H9    H     H_    0.627290 0.908132 0.620686 0.161409
H10   H     H_    0.843417 0.615938 0.706791 0.147144
H11   H     H_    0.731815 0.805414 0.773153 0.139406
H12   H     H_    0.847238 0.898311 0.911681 0.150532
H13   H     H_    0.944133 0.089310 0.006701 0.136273
H14   H     H_    0.925108 0.187971 0.964016 0.142417
H15   H     H_    0.721876 0.096302 0.714592 0.156549
H16   H     H_    0.356739 0.461562 0.200490 0.169673
H17   H     H_    0.172080 0.625686 0.515864 0.139442
H18   H     H_    0.036192 0.526519 0.394685 0.157886
H19   H     H_    0.039193 0.463320 0.243331 0.129616
H20   H     H_    0.259283 0.455033 0.103408 0.175799
H21   H     H_    0.213750 0.340892 0.621198 0.155329
H22   H     H_    0.465513 0.699332 0.772893 0.145544
H23   H     H_    0.509355 0.859253 0.910653 0.140717
H24   H     H_    0.413598 0.859732 0.005090 0.140654
H25   H     H_    0.273822 0.700207 0.962276 0.146838
H26   H     H_    0.120166 0.340918 0.715069 0.156750
H27   H     H_    0.659044 0.385711 0.794988 0.142630
H28   H     H_    0.647407 0.325626 0.617083 0.133934
H29   H     H_    0.246688 0.095920 0.197990 0.165237
H30   H     H_    0.369234 0.162514 0.480406 0.197761
O1    O     O_3   0.500000 0.500000 0.500000 -0.474919
O2    O     O_R   0.384570 0.439270 0.616180 -0.627739
O3    O     O_R   0.676930 0.560710 0.445310 -0.659339
O4    O     O_R   0.554710 0.731610 0.615410 -0.661840
O5    O     O_R   0.383800 0.268410 0.323100 -0.635855
O6    O     O_3   0.999970 0.499940 0.999970 -0.489569
O7    O     O_R   0.823040 0.439240 0.054670 -0.589989
O8    O     O_R   0.115410 0.560680 0.883790 -0.644911
O9    O     O_R   0.116170 0.731530 0.176870 -0.598299
O10   O     O_R   0.945270 0.268330 0.884560 -0.647358
O11   O     O_R   0.117250 0.560610 0.177960 -0.621204
O12   O     O_R   0.676930 0.731590 0.616180 -0.649639
O13   O     O_R   0.821970 0.439270 0.882700 -0.651432
O14   O     O_R   0.117250 0.439170 0.056520 -0.660328
O15   O     O_R   0.943420 0.560710 0.882700 -0.633583
O16   O     O_R   0.115410 0.731560 0.054670 -0.657071
O17   O     O_R   0.823040 0.268350 0.883790 -0.631368
O18   O     O_R   0.945270 0.560650 0.176870 -0.668000
O19   O     O_R   0.116170 0.439210 0.884560 -0.635906
O20   O     O_R   0.384570 0.268390 0.445310 -0.666907
O21   O     O_R   0.383800 0.560730 0.615410 -0.686864
O22   O     O_R   0.554710 0.439290 0.323100 -0.642649
O23   O     O_R   0.382720 0.560770 0.443450 -0.621153
O24   O     O_R   0.678010 0.560670 0.617270 -0.651200
O25   O     O_R   0.382720 0.439330 0.322010 -0.649747
O26   O     O_R   0.556550 0.439230 0.617270 -0.643839
Zn1   Zn    Zn3+2 0.457160 0.413230 0.543930 0.959297
Zn2   Zn    Zn3+2 0.456070 0.586770 0.542830 0.938269
Zn3   Zn    Zn3+2 0.456070 0.413260 0.369320 0.960919
Zn4   Zn    Zn3+2 0.630700 0.586740 0.543930 0.948084
Zn5   Zn    Zn3+2 0.042810 0.586720 0.956040 0.973458
Zn6   Zn    Zn3+2 0.043900 0.586680 0.130650 0.979793
Zn7   Zn    Zn3+2 0.043900 0.413170 0.957150 0.955274
Zn8   Zn    Zn3+2 0.869280 0.413210 0.956040 0.974839
O27   O     O_3   0.281410 0.794674 0.224222 -0.645274
C71   C     C_3   0.354040 0.786821 0.233366 0.059290
H31   H     H_    0.349364 0.757497 0.275233 0.163953
H32   H     H_    0.420250 0.862444 0.263098 0.130250
C72   C     C_3   0.347952 0.709693 0.141437 -0.316245
H33   H     H_    0.281352 0.634567 0.108947 0.223897
H34   H     H_    0.354917 0.739749 0.099945 0.208809
C73   C     C_3   0.421141 0.692218 0.146744 -0.980591
H35   H     H_    0.488462 0.765942 0.176688 0.265032
H36   H     H_    0.414294 0.635508 0.078921 0.261887
H37   H     H_    0.415095 0.661214 0.187333 0.271097
O28   O     O_3   0.668625 0.373040 0.068416 -0.611901
C74   C     C_3   0.619289 0.400248 0.039580 0.101286
H38   H     H_    0.644078 0.413572 0.989202 0.160771
H39   H     H_    0.627699 0.473060 0.092858 0.110408
C75   C     C_3   0.519805 0.310489 0.995688 -0.344133
H40   H     H_    0.511984 0.240127 0.939574 0.225526
H41   H     H_    0.493804 0.293454 0.043818 0.219587
C76   C     C_3   0.463980 0.335100 0.961708 -0.994517
H42   H     H_    0.470917 0.405272 0.017136 0.266395
H43   H     H_    0.392210 0.269097 0.931614 0.272455
H44   H     H_    0.485733 0.347821 0.910332 0.256583
O29   O     O_3   0.336182 0.677776 0.495778 -0.635230
C77   C     C_3   0.340452 0.699961 0.581951 0.163427
H45   H     H_    0.402485 0.711645 0.609851 0.222621
H46   H     H_    0.284616 0.635610 0.583024 0.111808
C78   C     C_3   0.348859 0.801425 0.642238 -0.429924
H47   H     H_    0.408066 0.864268 0.642573 0.243110
H48   H     H_    0.288534 0.794269 0.616777 0.213603
C79   C     C_3   0.360316 0.831110 0.737157 -0.924451
H49   H     H_    0.302198 0.769214 0.738674 0.272590
H50   H     H_    0.364728 0.903909 0.778852 0.262352
H51   H     H_    0.422915 0.843720 0.765403 0.271497
C80   C     C_R   0.868343 0.703554 0.908751 0.123696
C81   C     C_R   0.931110 0.788353 0.907217 -0.149438
C82   C     C_R   0.989045 0.885970 0.986658 -0.155619
C83   C     C_R   0.984741 0.899547 0.067953 -0.126868
C84   C     C_R   0.922343 0.815551 0.069962 -0.134214
C85   C     C_R   0.864154 0.717921 0.990699 -0.142286
H52   H     H_    0.935503 0.779497 0.845015 0.122445
H53   H     H_    0.037304 0.951133 0.985183 0.133827
H54   H     H_    0.029848 0.975084 0.129357 0.127252
H55   H     H_    0.919094 0.826068 0.132940 0.126342
H56   H     H_    0.816067 0.653392 0.993108 0.109136
C86   C     C_R   0.650720 0.574232 0.842568 0.123167
C87   C     C_R   0.593416 0.528227 0.879964 -0.149806
C88   C     C_R   0.543255 0.564564 0.921278 -0.131686
C89   C     C_R   0.550384 0.647354 0.925893 -0.097441
C90   C     C_R   0.608435 0.694610 0.890032 -0.144409
C91   C     C_R   0.658702 0.658490 0.848870 -0.152699
H57   H     H_    0.587722 0.464776 0.877550 0.101009
H58   H     H_    0.498848 0.528529 0.949707 0.132862
H59   H     H_    0.511251 0.675126 0.957538 0.139177
H60   H     H_    0.614428 0.759104 0.894000 0.128873
H61   H     H_    0.703452 0.695521 0.821302 0.108427
C92   C     C_R   0.384722 0.064570 0.543950 0.140600
C93   C     C_R   0.445049 0.170168 0.613146 -0.161588
C94   C     C_R   0.461114 0.202391 0.701630 -0.120284
C95   C     C_R   0.419020 0.130015 0.722205 -0.107407
C96   C     C_R   0.359974 0.025190 0.654496 -0.149210
C97   C     C_R   0.342462 0.992439 0.565950 -0.145177
H62   H     H_    0.479369 0.227967 0.599201 0.135403
H63   H     H_    0.505321 0.283632 0.754364 0.120099
H64   H     H_    0.431331 0.155014 0.790556 0.137015
H65   H     H_    0.326467 0.969469 0.670753 0.132096
H66   H     H_    0.293859 0.910931 0.514978 0.134402

loop_
_geom_bond_atom_site_label_1
_geom_bond_atom_site_label_2
_ccdc_geom_bond_type
C84   H55   S    
C23   C58   S    
C83   C84   A    
C40   C41   A    
C92   C93   A    
C64   O16   A    
C11   C13   A    
C41   C42   A    
C54   C55   A    
C74   H38   S    
C9    H2    S    
C49   H20   S    
C90   C91   A    
C3    C6    S    
C78   C79   S    
C4    C70   S    
C78   H47   S    
C64   O9    A    
O20   Zn1   S    
C7    C8    A    
C23   O21   A    
O15   Zn5   S    
C88   C89   A    
C45   O23   A    
C40   C46   A    
C37   H9    S    
C26   C27   A    
C18   H5    S    
C20   H7    S    
C18   C24   A    
C5    C6    S    
C56   O24   A    
C21   C22   A    
C19   H6    S    
C74   H39   S    
O28   C74   S    
O7    Zn8   S    
C27   O28   S    
C17   C64   S    
C28   C62   S    
C12   O5    A    
C72   C73   S    
C5    H28   S    
C23   O2    A    
C82   C83   A    
C15   C16   A    
O1    Zn2   S    
C31   H13   S    
C69   H1    S    
C18   C19   A    
C81   C82   A    
C61   C63   S    
C3    C86   S    
C89   C90   A    
O8    Zn5   S    
C5    C69   S    
C77   C78   S    
C33   C35   A    
C12   O20   A    
C33   C39   A    
O29   C77   S    
C11   C17   A    
C19   C20   A    
C8    C92   S    
C8    C9    A    
C75   C76   S    
C21   H8    S    
C81   H52   S    
C51   C57   A    
C94   C95   A    
C56   O26   A    
C66   O11   A    
C76   H43   S    
C29   C30   A    
C9    C10   A    
O22   Zn3   S    
C95   C96   A    
C68   O13   A    
O1    Zn4   S    
C96   C97   A    
C59   C60   A    
C34   O22   A    
C22   C28   A    
C13   C14   A    
C77   H46   S    
C39   C65   S    
C73   H37   S    
C79   H49   S    
O6    Zn5   S    
C71   C72   S    
C41   H17   S    
O17   Zn8   S    
C79   H51   S    
C78   H48   S    
C44   C46   A    
C57   C58   A    
C82   H53   S    
C45   C47   S    
C80   C85   A    
C32   H14   S    
C7    H30   S    
C38   H15   S    
C16   H3    S    
C40   O29   S    
O27   C71   S    
C74   C75   S    
C24   C25   A    
O21   Zn2   S    
C71   H32   S    
O2    Zn1   S    
C10   C11   A    
C45   O25   A    
C16   C17   A    
C48   H16   S    
O5    Zn3   S    
C62   O7    A    
C25   C26   A    
C53   C54   A    
C51   C52   A    
C60   C61   A    
C67   C69   S    
C35   C36   A    
C30   H12   S    
O6    Zn6   S    
C43   C44   A    
C29   H11   S    
C37   C38   A    
O1    Zn1   S    
C51   H22   S    
C63   O19   A    
C47   C48   A    
O4    Zn2   S    
O6    Zn8   S    
C30   C31   A    
C72   H33   S    
O9    Zn6   S    
O24   Zn4   S    
C52   H23   S    
O19   Zn7   S    
C94   H63   S    
C10   O27   S    
C76   H44   S    
C50   C66   S    
C1    O4    A    
C54   H25   S    
C92   C97   A    
C60   H26   S    
C80   C81   A    
C12   C14   S    
C2    C67   S    
O13   Zn8   S    
C55   C57   A    
C77   H45   S    
C22   C24   A    
C59   H21   S    
C42   H18   S    
C42   C43   A    
C3    C4    S    
C2    C80   S    
C73   H36   S    
C84   C85   A    
C97   H66   S    
C86   C91   A    
C44   C50   A    
C93   C94   A    
C46   C47   A    
C36   C37   A    
C66   O14   A    
C53   H24   S    
C75   H40   S    
C31   C32   A    
C67   H10   S    
C93   H62   S    
C15   H29   S    
C71   H31   S    
C88   H58   S    
C83   H54   S    
C29   C35   A    
C34   O3    A    
C32   C33   A    
O6    Zn7   S    
C79   H50   S    
C2    C3    S    
C58   C59   A    
C1    O12   A    
C6    C67   S    
C90   H60   S    
C6    C56   S    
C72   H34   S    
O23   Zn2   S    
C38   C39   A    
O16   Zn5   S    
C2    C70   S    
C85   H56   S    
O26   Zn1   S    
C48   C49   A    
C4    C5    S    
C55   C61   A    
C26   H4    S    
O14   Zn7   S    
C75   H41   S    
C89   H59   S    
C43   H19   S    
C69   C70   S    
O3    Zn4   S    
C65   O10   A    
C62   O18   A    
O18   Zn6   S    
C87   H57   S    
C68   O15   A    
C86   C87   A    
C96   H65   S    
O25   Zn3   S    
O11   Zn6   S    
C7    C13   A    
C20   C21   A    
C68   C70   S    
C49   C50   A    
C27   C28   A    
C73   H35   S    
C65   O17   A    
C14   C15   A    
O10   Zn7   S    
O12   Zn4   S    
C63   O8    A    
C4    H27   S    
C91   H61   S    
C25   C34   S    
C87   C88   A    
C95   H64   S    
C1    C36   S    
C52   C53   A    
C76   H42   S    
O1    Zn3   S    
