data_mof_unit_8392.cif
_audit_creation_date              2012-12-10T16:50:08-0500
_audit_creation_method            fapswitch 2.2
_symmetry_space_group_name_H-M    P1
_symmetry_Int_Tables_number       1
_space_group_crystal_system       triclinic
_cell_length_a                    23.453754
_cell_length_b                    8.736722
_cell_length_c                    7.502122
_cell_angle_alpha                 103.36372
_cell_angle_beta                  93.666844
_cell_angle_gamma                 93.053764
_cell_volume                      1488.89390489

loop_
_atom_site_label
_atom_site_type_symbol
_atom_type_description
_atom_site_fract_x
_atom_site_fract_y
_atom_site_fract_z
_atom_type_partial_charge
C1    C     C_R   0.497527 0.200333 0.454046 0.857988
C2    C     C_R   0.502473 0.799667 0.545954 0.855217
C3    C     C_R   0.238098 0.572329 0.380328 -0.044021
C4    C     C_R   0.761631 0.425497 0.620227 -0.029731
C5    C     C_R   0.297764 0.569088 0.380471 -0.124231
C6    C     C_R   0.702127 0.430889 0.620515 -0.243922
C7    C     C_R   0.328913 0.504145 0.507345 -0.117881
C8    C     C_R   0.671083 0.494786 0.492529 -0.062228
C9    C     C_R   0.300136 0.439875 0.633703 -0.225613
C10   C     C_R   0.699930 0.556454 0.364458 -0.241853
C11   C     C_R   0.240733 0.439444 0.633427 0.362105
C12   C     C_R   0.759268 0.555219 0.364013 0.277921
C13   C     C_R   0.209506 0.505704 0.507336 0.200955
C14   C     C_R   0.790470 0.489771 0.491066 0.282877
C15   C     C_2   0.487124 0.034248 0.436619 -0.177301
C16   C     C_2   0.512877 0.965754 0.563378 -0.166269
C17   C     C_R   0.391214 0.500359 0.502741 0.849943
C18   C     C_R   0.608793 0.499512 0.497249 0.848029
C19   C     C_R   0.883944 0.614621 0.608721 0.638335
C20   C     C_R   0.116019 0.382000 0.387793 0.567067
C21   C     C_R   0.876086 0.375070 0.374374 0.635522
C22   C     C_R   0.123871 0.621434 0.622229 0.570505
C23   C     C_R   0.935835 0.374784 0.374376 -0.016554
C24   C     C_R   0.064119 0.622245 0.621433 -0.024687
C25   C     C_R   0.969872 0.497782 0.496011 -0.012778
C26   C     C_R   0.030081 0.499324 0.499689 -0.012455
C27   C     C_R   0.943848 0.619159 0.614117 -0.018661
C28   C     C_R   0.056110 0.377921 0.381641 -0.020413
C29   C     C_R   0.962229 0.254614 0.256922 -0.128315
C30   C     C_R   0.037726 0.742676 0.738494 -0.146460
C31   C     C_R   0.021787 0.256140 0.260553 -0.147171
C32   C     C_R   0.978170 0.741181 0.734827 -0.143520
Cu1   Cu    Cu3+1 0.506340 0.517380 0.684380 1.006310
Cu2   Cu    Cu3+1 0.493660 0.482620 0.315620 1.005844
H1    H     H_    0.936993 0.158935 0.162132 0.201464
H2    H     H_    0.062963 0.838383 0.833236 0.198571
H3    H     H_    0.040798 0.161667 0.168321 0.189606
H4    H     H_    0.959161 0.835703 0.826990 0.191096
H5    H     H_    0.320193 0.618348 0.282486 0.219711
H6    H     H_    0.679713 0.383340 0.719931 0.185282
H7    H     H_    0.323414 0.385345 0.728549 0.183367
H8    H     H_    0.676778 0.610332 0.268734 0.183551
N1    N     N_R   0.851598 0.493270 0.491150 -0.445328
N2    N     N_R   0.148364 0.502618 0.506469 -0.476711
N3    N     N_2   0.484110 0.456420 0.038520 -0.221099
N4    N     N_2   0.515890 0.543580 0.961480 -0.220484
O1    O     O_R   0.504120 0.286130 0.619770 -0.540131
O2    O     O_R   0.495880 0.713870 0.380230 -0.541370
O3    O     O_R   0.493410 0.256770 0.308360 -0.606446
O4    O     O_R   0.506590 0.743230 0.691640 -0.605843
O5    O     O_R   0.423230 0.514630 0.655730 -0.612999
O6    O     O_R   0.576770 0.485370 0.344270 -0.617371
O7    O     O_R   0.412530 0.485280 0.344320 -0.601309
O8    O     O_R   0.587470 0.514720 0.655680 -0.599584
O9    O     O_2   0.858089 0.729730 0.720383 -0.483086
O10   O     O_2   0.141880 0.266945 0.276069 -0.482528
O11   O     O_2   0.842637 0.258163 0.259669 -0.494852
O12   O     O_2   0.157319 0.738306 0.736989 -0.468064
C33   C     C_2   0.205886 0.645212 0.248237 0.519081
H9    H     H_    0.159660 0.647380 0.246404 0.064697
O13   O     O_2   0.230623 0.704489 0.139655 -0.476498
C34   C     C_2   0.791344 0.351782 0.756697 0.505712
H10   H     H_    0.766949 0.310614 0.856847 0.100324
O14   O     O_2   0.842659 0.334541 0.759523 -0.516702
Br1   Br    Br    0.203023 0.343450 0.803650 -0.397967
Br2   Br    Br    0.796952 0.648373 0.191377 -0.436472
C35   C     C_2   0.439232 0.957224 0.298941 0.403766
H11   H     H_    0.434502 0.988829 0.167353 0.111034
O15   O     O_2   0.402786 0.866591 0.335525 -0.536856
C36   C     C_2   0.560770 0.042782 0.701053 0.390643
H12   H     H_    0.565502 0.011173 0.832638 0.108394
O16   O     O_2   0.597213 0.133427 0.664473 -0.553197
C37   C     C_2   0.429267 0.402337 0.952749 0.738699
H13   H     H_    0.395162 0.482381 0.966041 0.014124
O17   O     O_2   0.419195 0.263771 0.874701 -0.584325
C38   C     C_2   0.570773 0.597340 0.047083 0.742159
H14   H     H_    0.604844 0.517198 0.033083 0.001371
O18   O     O_2   0.580904 0.735731 0.125785 -0.587985

loop_
_geom_bond_atom_site_label_1
_geom_bond_atom_site_label_2
_ccdc_geom_bond_type
C10   H8    S    
C37   H13   S    
C20   O10   S    
C17   O5    A    
N4    C38   S    
C18   O6    A    
N3    N4    D    
C23   C29   A    
C24   C26   A    
C15   C16   D    
C4    C34   S    
N3    C37   S    
C34   O14   D    
C2    O4    A    
C21   N1    A    
C22   N2    A    
C7    C17   S    
C36   H12   S    
C1    C15   S    
C32   H4    S    
C2    C16   S    
C3    C13   A    
C33   H9    S    
Cu1   N4    S    
C37   O17   D    
C26   C28   A    
C20   N2    A    
C19   N1    A    
C33   O13   D    
C35   H11   S    
C16   C36   S    
C38   H14   S    
C4    C6    A    
C5    C7    A    
C1    O1    A    
C6    C8    A    
C20   C28   A    
C2    O2    A    
C25   C26   A    
C12   Br2   S    
C8    C18   S    
Cu1   O5    S    
C31   H3    S    
C35   O15   D    
C21   O11   S    
C34   H10   S    
C15   C35   S    
Cu1   Cu2   S    
Cu2   N3    S    
C9    C11   A    
C10   C12   A    
C12   C14   A    
C5    H5    S    
Cu1   O1    S    
C22   C24   A    
Cu2   O2    S    
C17   O7    A    
C19   C27   A    
C19   O9    S    
Cu1   O8    S    
C7    C9    A    
Cu2   O3    S    
C27   C32   A    
Cu2   O6    S    
C28   C31   A    
C38   O18   D    
C3    C5    A    
C22   O12   S    
C25   C27   A    
C29   H1    S    
C9    H7    S    
C30   H2    S    
C21   C23   A    
Cu1   O4    S    
C29   C31   A    
C30   C32   A    
C11   C13   A    
C6    H6    S    
C23   C25   A    
C4    C14   A    
C24   C30   A    
C18   O8    A    
Cu2   O7    S    
C8    C10   A    
C36   O16   D    
C1    O3    A    
C13   N2    S    
C11   Br1   S    
C14   N1    S    
C3    C33   S    
