data_mof_unit_29384.cif
_audit_creation_date              2012-10-26T20:21:15-0400
_audit_creation_method            fapswitch 2.2
_symmetry_space_group_name_H-M    P1
_symmetry_Int_Tables_number       1
_space_group_crystal_system       triclinic
_cell_length_a                    9.619518
_cell_length_b                    10.831401
_cell_length_c                    15.865943
_cell_angle_alpha                 87.098294
_cell_angle_beta                  72.887273
_cell_angle_gamma                 90.160467
_cell_volume                      1577.63363643

loop_
_atom_site_label
_atom_site_type_symbol
_atom_type_description
_atom_site_fract_x
_atom_site_fract_y
_atom_site_fract_z
_atom_type_partial_charge
C1    C     C_R   0.999940 0.262397 0.499740 0.553482
C2    C     C_R   0.129124 0.064786 0.492819 -0.122151
C3    C     C_R   0.999957 0.871601 0.500557 0.027915
C4    C     C_R   0.000043 0.128399 0.499443 0.027915
C5    C     C_R   0.554915 0.405409 0.541434 0.352152
C6    C     C_R   0.445085 0.594592 0.458567 0.352151
C7    C     C_R   0.404379 0.408770 0.545975 0.150516
C8    C     C_R   0.595621 0.591230 0.454025 0.150516
C9    C     C_R   0.916545 0.496012 0.671894 0.556635
C10   C     C_R   0.083455 0.503990 0.328106 0.556635
C11   C     C_R   0.868533 0.487026 0.770042 0.005051
C12   C     C_R   0.000060 0.737603 0.500260 0.553481
C13   C     C_R   0.131467 0.512989 0.229958 0.005052
C14   C     C_R   0.920097 0.457927 0.910659 -0.075600
C15   C     C_R   0.079905 0.542108 0.089341 -0.075598
C16   C     C_R   0.969370 0.487052 0.820026 0.223437
C17   C     C_R   0.030632 0.512968 0.179974 0.223439
C18   C     C_R   0.719476 0.468348 0.816245 0.032535
C19   C     C_R   0.280522 0.531681 0.183757 0.032535
C20   C     C_R   0.670923 0.482046 0.907704 0.021979
C21   C     C_R   0.329079 0.517995 0.092297 0.021980
C22   C     C_R   0.771570 0.460645 0.955619 -0.018858
C23   C     C_R   0.575058 0.451614 0.091784 -0.082234
C24   C     C_R   0.228432 0.539398 0.044382 -0.018853
C25   C     C_R   0.523791 0.506228 0.953256 0.050300
C26   C     C_R   0.476212 0.493820 0.046745 0.050299
C27   C     C_R   0.424946 0.548437 0.908217 -0.082233
C28   C     C_R   0.721862 0.439837 0.047115 -0.107603
C29   C     C_R   0.278141 0.560213 0.952886 -0.107596
C30   C     C_R   0.871101 0.062967 0.506220 -0.116149
C31   C     C_R   0.128899 0.937033 0.493780 -0.116148
C32   C     C_R   0.870875 0.935214 0.507181 -0.122151
Cu1   Cu    Cu3+1 0.140660 0.500020 0.500000 1.074365
Cu2   Cu    Cu3+1 0.859340 0.499980 0.500000 1.074369
H1    H     H_    0.796179 0.412954 0.084083 0.155587
H2    H     H_    0.230445 0.113355 0.486671 0.148210
H3    H     H_    0.872461 0.415505 0.255869 0.335223
H4    H     H_    0.127550 0.584496 0.744121 0.335228
H5    H     H_    0.552661 0.230979 0.575192 0.311634
H6    H     H_    0.447338 0.769023 0.424814 0.311634
H7    H     H_    0.203824 0.587097 0.915917 0.155576
H8    H     H_    0.998742 0.439696 0.946000 0.130920
H9    H     H_    0.001259 0.560342 0.054000 0.130914
H10   H     H_    0.539958 0.428960 0.162134 0.155427
H11   H     H_    0.460048 0.571095 0.837867 0.155419
H12   H     H_    0.770343 0.109980 0.510921 0.158124
H13   H     H_    0.229657 0.890020 0.489079 0.158126
H14   H     H_    0.769555 0.886645 0.513329 0.148209
I1    I     I_    0.408595 0.657462 0.230550 -0.243664
I2    I     I_    0.591380 0.342582 0.769456 -0.243657
I3    I     I_    0.262218 0.282896 0.641504 -0.245932
I4    I     I_    0.737780 0.717105 0.358497 -0.245932
N1    N     N_R   0.352080 0.500030 0.499980 -0.233774
N2    N     N_R   0.647920 0.499970 0.500020 -0.233773
O1    O     O_R   0.118740 0.319660 0.500000 -0.506265
O2    O     O_3   0.116231 0.508123 0.782801 -0.669701
O3    O     O_3   0.610763 0.305863 0.576707 -0.629789
O4    O     O_3   0.389236 0.694140 0.423297 -0.629791
O5    O     O_R   0.881260 0.680340 0.500000 -0.506266
O6    O     O_R   0.881170 0.319630 0.500010 -0.455412
O7    O     O_R   0.118830 0.680370 0.499990 -0.455410
O8    O     O_R   0.055570 0.500030 0.629830 -0.478410
O9    O     O_R   0.944430 0.499970 0.370170 -0.478404
O10   O     O_R   0.818000 0.500000 0.629840 -0.457950
O11   O     O_R   0.182000 0.500000 0.370160 -0.457956
O12   O     O_3   0.883773 0.491885 0.217197 -0.669710

loop_
_geom_bond_atom_site_label_1
_geom_bond_atom_site_label_2
_ccdc_geom_bond_type
Cu1   O1    S    
C2    C4    A    
C21   C26   A    
C16   O2    S    
C11   C18   A    
C15   C17   A    
C2    H2    S    
C5    O3    S    
C25   C27   A    
C9    O10   A    
C9    C11   S    
C11   C16   A    
C19   I1    S    
C10   O9    A    
Cu2   O6    S    
C13   C17   A    
C14   H8    S    
C1    C4    S    
H3    O12   S    
C27   H11   S    
Cu2   O10   S    
Cu1   Cu2   S    
C1    O1    A    
C15   H9    S    
C22   C28   A    
C23   C28   A    
C3    C31   A    
C30   C32   A    
C12   O7    A    
C32   H14   S    
C14   C22   A    
C17   O12   S    
C3    C32   A    
C6    C8    A    
Cu2   O9    S    
C10   O11   A    
C20   C22   A    
Cu2   N2    S    
C18   C20   A    
C6    O4    S    
Cu1   N1    S    
Cu2   O5    S    
C1    O6    A    
C14   C16   A    
C21   C24   A    
H6    O4    S    
C27   C29   A    
C20   C25   A    
C7    N1    A    
C6    N1    A    
C7    I3    S    
C9    O8    A    
H5    O3    S    
C5    N2    A    
H4    O2    S    
C18   I2    S    
Cu1   O7    S    
C23   C26   A    
C8    N2    A    
C5    C7    A    
C8    I4    S    
C24   C29   A    
C15   C24   A    
C13   C19   A    
C31   H13   S    
C3    C12   S    
C29   H7    S    
C25   C26   A    
C12   O5    A    
Cu1   O8    S    
C30   H12   S    
C4    C30   A    
C23   H10   S    
Cu1   O11   S    
C28   H1    S    
C2    C31   A    
C19   C21   A    
C10   C13   S    
