data_mof_unit_41697.cif
_audit_creation_date              2012-12-10T16:46:42-0500
_audit_creation_method            fapswitch 2.2
_symmetry_space_group_name_H-M    P1
_symmetry_Int_Tables_number       1
_space_group_crystal_system       triclinic
_cell_length_a                    15.866397
_cell_length_b                    8.737903
_cell_length_c                    7.465272
_cell_angle_alpha                 103.106784
_cell_angle_beta                  94.457436
_cell_angle_gamma                 92.681762
_cell_volume                      1002.75354273

loop_
_atom_site_label
_atom_site_type_symbol
_atom_type_description
_atom_site_fract_x
_atom_site_fract_y
_atom_site_fract_z
_atom_type_partial_charge
C1    C     C_R   0.497796 0.200172 0.453753 0.778547
C2    C     C_3   0.948729 0.358250 0.576365 0.629748
C3    C     C_3   0.916994 0.501817 0.499052 -0.293826
C4    C     C_3   0.959010 0.659922 0.627110 0.663082
C5    C     C_3   0.057924 0.659387 0.625667 0.786698
C6    C     C_1   0.824460 0.500972 0.495255 0.290595
C7    C     C_1   0.175585 0.500367 0.505785 0.301129
C8    C     C_1   0.251055 0.500144 0.505603 -0.052500
C9    C     C_2   0.492787 0.032980 0.430339 0.424073
C10   C     C_2   0.517229 0.968508 0.571645 0.114068
C11   C     C_R   0.340408 0.499742 0.501916 0.781448
C12   C     C_R   0.505983 0.800138 0.546497 0.770766
C13   C     C_R   0.659591 0.500314 0.498102 0.759694
C14   C     C_3   0.048725 0.361735 0.582592 -0.052658
C15   C     C_3   0.043093 0.478565 0.301429 0.287005
C16   C     C_3   0.944576 0.485074 0.297350 0.781838
C17   C     C_1   0.748951 0.500435 0.494648 -0.045062
C18   C     C_3   0.083154 0.500671 0.503650 -0.240659
Cu1   Cu    Cu3+1 0.509300 0.517380 0.684380 1.203989
Cu2   Cu    Cu3+1 0.490700 0.482620 0.315620 1.219285
H1    H     H_    0.077840 0.380711 0.727541 0.190186
H2    H     H_    0.058089 0.361260 0.220093 0.213307
N1    N     N_2   0.476670 0.456430 0.038530 0.256788
N2    N     N_2   0.523330 0.543570 0.961470 0.259493
O1    O     O_R   0.506050 0.286130 0.619770 -0.523615
O2    O     O_R   0.490330 0.256780 0.308370 -0.539733
O3    O     O_R   0.387300 0.514690 0.655770 -0.540196
O4    O     O_R   0.371580 0.485340 0.344370 -0.550518
O5    O     O_R   0.509670 0.743220 0.691630 -0.575533
O6    O     O_R   0.493950 0.713870 0.380230 -0.500547
O7    O     O_R   0.628420 0.514660 0.655630 -0.552490
O8    O     O_R   0.612700 0.485310 0.344230 -0.543917
O9    O     O_3   0.913051 0.217116 0.457339 -0.573148
H3    H     H_    0.920424 0.130924 0.522870 0.384816
O10   O     O_3   0.919703 0.364037 0.752600 -0.631378
H4    H     H_    0.962282 0.422291 0.851472 0.394871
O11   O     O_3   0.929709 0.791856 0.568206 -0.723909
H5    H     H_    0.872098 0.808704 0.608916 0.369134
F1    F     F_    0.458982 0.945301 0.262941 -0.607088
O12   O     O_3   0.554952 0.061207 0.737420 -0.679779
H6    H     H_    0.576222 0.993758 0.818895 0.375750
F2    F     F_    0.419767 0.355057 0.925159 -0.511430
F3    F     F_    0.580266 0.644887 0.074818 -0.510941
O13   O     O_3   0.075437 0.218602 0.481310 -0.647264
H7    H     H_    0.074105 0.143065 0.562486 0.366524
F4    F     F_    0.079586 0.587837 0.216558 -0.570093
F5    F     F_    0.908456 0.344923 0.185045 -0.549642
O14   O     O_3   0.913986 0.605577 0.216793 -0.588299
H8    H     H_    0.953135 0.701025 0.255105 0.411387
F6    F     F_    0.094569 0.675145 0.805189 -0.581855
O15   O     O_3   0.090114 0.785753 0.557227 -0.638917
H9    H     H_    0.089231 0.882591 0.656722 0.373916
F7    F     F_    0.937980 0.673808 0.807267 -0.563140

loop_
_geom_bond_atom_site_label_1
_geom_bond_atom_site_label_2
_ccdc_geom_bond_type
C2    O10   S    
C15   C18   S    
N1    N2    D    
O11   H5    S    
C13   C17   S    
C12   O5    A    
Cu1   O3    S    
C9    C10   D    
C14   C18   S    
C13   O8    A    
O10   H4    S    
Cu2   N1    S    
C11   O3    A    
C7    C18   S    
Cu1   O7    S    
C16   O14   S    
Cu1   Cu2   S    
C2    C3    S    
C3    C4    S    
C7    C8    T    
Cu2   O6    S    
O13   H7    S    
C1    O1    A    
N1    F2    S    
C10   C12   S    
C11   O4    A    
C8    C11   S    
C2    C14   S    
C2    O9    S    
C10   O12   S    
O12   H6    S    
O9    H3    S    
C1    O2    A    
Cu1   O1    S    
C5    F6    S    
C4    F7    S    
C15   C16   S    
Cu1   O5    S    
C9    F1    S    
C1    C9    S    
C4    O11   S    
C14   H1    S    
C14   O13   S    
Cu2   O8    S    
C3    C6    S    
C6    C17   T    
N2    F3    S    
C16   F5    S    
O14   H8    S    
C5    C18   S    
Cu2   O4    S    
C15   F4    S    
C12   O6    A    
Cu1   N2    S    
C13   O7    A    
C15   H2    S    
C5    O15   S    
C3    C16   S    
O15   H9    S    
C4    C5    S    
Cu2   O2    S    
