data_mof_unit_19359.cif
_audit_creation_date              2012-12-11T16:07:26-0500
_audit_creation_method            fapswitch 2.2
_symmetry_space_group_name_H-M    P1
_symmetry_Int_Tables_number       1
_space_group_crystal_system       triclinic
_cell_length_a                    6.944422
_cell_length_b                    14.420797
_cell_length_c                    15.91599
_cell_angle_alpha                 90.158825
_cell_angle_beta                  89.967003
_cell_angle_gamma                 90.07593
_cell_volume                      1593.88470889

loop_
_atom_site_label
_atom_site_type_symbol
_atom_type_description
_atom_site_fract_x
_atom_site_fract_y
_atom_site_fract_z
_atom_type_partial_charge
O1    O     O_R   0.494320 0.415010 0.412140 -0.531154
O2    O     O_R   0.824010 0.404260 0.587250 -0.544280
O3    O     O_R   0.994320 0.584990 0.587860 -0.541229
C1    C     C_R   0.654799 0.381913 0.616251 0.673300
O4    O     O_R   0.824040 0.403870 0.412760 -0.533781
O5    O     O_R   0.994350 0.584590 0.412130 -0.542891
C2    C     C_R   0.655060 0.382651 0.382935 0.662306
O6    O     O_R   0.494300 0.415410 0.587870 -0.540910
O7    O     O_3   0.660800 0.559290 0.500000 -0.372555
V1    V     V_3+5 0.935650 0.489000 0.500000 1.423276
O8    O     O_R   0.324060 0.595740 0.412750 -0.546405
C3    C     C_R   0.155267 0.618149 0.383708 0.663102
O9    O     O_R   0.324040 0.596130 0.587240 -0.542898
C4    C     C_R   0.155094 0.618190 0.616331 0.683095
V2    V     V_3+5 0.435660 0.511000 0.500000 1.420135
O10   O     O_3   0.160640 0.440710 0.500000 -0.354359
C5    C     C_3   0.955378 0.717381 0.730866 -0.204298
C6    C     C_3   0.056744 0.707956 0.816590 0.034903
H1    H     H_    0.808482 0.691746 0.715796 0.121631
C7    C     C_3   0.121904 0.809674 0.812475 -0.023430
C8    C     C_3   0.021728 0.820058 0.726427 -0.111620
C9    C     C_3   0.210096 0.789472 0.681809 -0.099087
C10   C     C_3   0.310280 0.779443 0.768420 -0.121461
C11   C     C_3   0.244306 0.676584 0.772913 -0.205889
C12   C     C_3   0.143961 0.687642 0.687137 -0.030483
H2    H     H_    0.927541 0.877983 0.706538 0.162201
H3    H     H_    0.273947 0.823109 0.625645 0.137612
H4    H     H_    0.457131 0.805021 0.783617 0.121571
H5    H     H_    0.335795 0.617204 0.792065 0.106570
C13   C     C_3   0.337072 0.802436 0.221974 -0.082268
H6    H     H_    0.429088 0.778276 0.168894 0.081821
C14   C     C_3   0.348447 0.727324 0.291560 -0.304653
H7    H     H_    0.417053 0.755131 0.349633 0.166219
H8    H     H_    0.442278 0.669646 0.269333 0.132018
H9    H     H_    0.155869 0.689749 0.107120 0.179663
H10   H     H_    0.148296 0.582348 0.213774 0.182673
C15   C     C_3   0.059104 0.714571 0.158166 -0.313937
C16   C     C_3   0.990547 0.839913 0.262378 -0.274951
C17   C     C_3   0.124864 0.812276 0.188254 0.018675
H11   H     H_    0.838137 0.838545 0.240976 0.122651
H12   H     H_    0.019938 0.911801 0.283273 0.173325
C18   C     C_3   0.145166 0.688731 0.312870 0.066562
C19   C     C_3   0.061508 0.643914 0.231871 -0.344095
C20   C     C_3   0.014218 0.771969 0.337314 -0.292378
H13   H     H_    0.077575 0.809423 0.391925 0.166685
H14   H     H_    0.869487 0.746790 0.356900 0.138966
H15   H     H_    0.911050 0.718153 0.131668 0.181210
H16   H     H_    0.912232 0.619144 0.243992 0.141039
C21   C     C_3   0.431190 0.286894 0.708691 -0.300996
H17   H     H_    0.355492 0.350685 0.730251 0.132787
H18   H     H_    0.353719 0.260876 0.652185 0.156554
C22   C     C_3   0.420651 0.213034 0.778535 -0.333410
H19   H     H_    0.346104 0.150609 0.753957 0.180344
H20   H     H_    0.333668 0.240800 0.831714 0.141699
H21   H     H_    0.682193 0.414991 0.785329 0.127582
H22   H     H_    0.629902 0.309285 0.890020 0.145930
C23   C     C_3   0.744472 0.346868 0.766790 -0.338739
C24   C     C_3   0.744314 0.219122 0.658999 -0.326394
C25   C     C_3   0.643722 0.310369 0.686181 0.068296
H23   H     H_    0.895331 0.235253 0.640228 0.120440
H24   H     H_    0.675803 0.194272 0.600355 0.213004
C26   C     C_3   0.624730 0.185380 0.809455 -0.005189
C27   C     C_3   0.720989 0.277177 0.840269 -0.337133
C28   C     C_3   0.739079 0.144222 0.731241 -0.005465
H25   H     H_    0.900431 0.358198 0.754262 0.134105
H26   H     H_    0.862600 0.264110 0.870319 0.127754
C29   C     C_3   0.498680 0.344856 0.240624 -0.097796
H27   H     H_    0.350631 0.345333 0.266912 0.160640
C30   C     C_3   0.502544 0.274803 0.165663 -0.326545
H28   H     H_    0.561313 0.307658 0.107793 0.145472
H29   H     H_    0.352092 0.254158 0.150782 0.178663
H30   H     H_    0.393668 0.130545 0.262578 0.195593
C31   C     C_3   0.582109 0.214741 0.344487 -0.148246
C32   C     C_3   0.843659 0.301323 0.268163 -0.392398
C33   C     C_3   0.643026 0.313131 0.310977 -0.065854
H31   H     H_    0.953755 0.286808 0.316563 0.226096
H32   H     H_    0.889910 0.367253 0.238179 0.127712
C34   C     C_3   0.626447 0.188022 0.186679 -0.028884
C35   C     C_3   0.548784 0.146486 0.269903 -0.332356
C36   C     C_3   0.839133 0.222928 0.201033 -0.100877
H33   H     H_    0.890756 0.253275 0.140704 0.100022
H34   H     H_    0.705088 0.187814 0.381894 0.174113
H35   H     H_    0.620090 0.079304 0.283471 0.172226
O11   O     O_R   0.771990 0.083520 0.910980 -0.540411
O12   O     O_R   0.442180 0.095020 0.086060 -0.516056
O13   O     O_R   0.271950 0.914280 0.086680 -0.548221
C37   C     C_R   0.611973 0.117314 0.115406 0.661337
O14   O     O_R   0.442270 0.094630 0.911580 -0.542192
O15   O     O_R   0.272040 0.913890 0.910940 -0.549495
C38   C     C_R   0.611566 0.116557 0.882142 0.628152
O16   O     O_R   0.771900 0.083910 0.086710 -0.533809
O17   O     O_3   0.605520 0.939610 0.998840 -0.375720
V3    V     V_3+5 0.330640 0.009880 0.998810 1.478316
O18   O     O_R   0.942330 0.902710 0.911540 -0.525975
C39   C     C_R   0.111268 0.880235 0.882701 0.786065
O19   O     O_R   0.942240 0.903100 0.086030 -0.536563
C40   C     C_R   0.111448 0.881764 0.116097 0.701824
V4    V     V_3+5 0.830640 0.987830 0.998780 1.488830
O20   O     O_3   0.105630 0.058150 0.998800 -0.350710
C41   C     C_2   0.968891 0.658395 0.889693 0.313780
H36   H     H_    0.931873 0.585565 0.883892 0.048488
O21   O     O_2   0.937998 0.699139 0.955556 -0.548705
C42   C     C_2   0.643858 0.053427 0.702797 0.440181
H37   H     H_    0.635794 0.995781 0.746435 0.020229
O22   O     O_2   0.575878 0.043087 0.632644 -0.512780
C43   C     C_2   0.946447 0.123722 0.755314 0.314950
H38   H     H_    0.033974 0.179194 0.780156 0.047534
O23   O     O_2   0.018485 0.047082 0.746384 -0.560671
C44   C     C_2   0.535362 0.442748 0.210214 0.323010
H39   H     H_    0.650936 0.484436 0.236408 0.032658
O24   O     O_2   0.432514 0.476672 0.156283 -0.545542
C45   C     C_2   0.412044 0.213759 0.404037 0.768030
O25   O     O_2   0.256656 0.245017 0.382577 -0.570354
O26   O     O_R   0.432471 0.174437 0.483579 -0.651902
H40   H     H_    0.308499 0.175967 0.517223 0.306738
C46   C     C_2   0.978957 0.146455 0.225133 0.737122
O27   O     O_2   0.097858 0.119645 0.174097 -0.561890
O28   O     O_R   0.976538 0.108601 0.305886 -0.663950
H41   H     H_    0.086260 0.063823 0.315823 0.313422
C47   C     C_2   0.423522 0.893335 0.251841 0.334770
H42   H     H_    0.527908 0.928844 0.212628 0.039498
O29   O     O_2   0.376387 0.928194 0.318758 -0.540933

loop_
_geom_bond_atom_site_label_1
_geom_bond_atom_site_label_2
_ccdc_geom_bond_type
C34   C37   S    
C28   C42   S    
C13   C14   S    
C8    H2    S    
C15   C19   S    
C37   O16   A    
O12   V3    S    
C1    O6    A    
C45   O26   S    
O26   H40   S    
O17   V4    S    
C22   H19   S    
O11   C38   A    
C6    C11   S    
H9    C15   S    
H30   C35   S    
C44   O24   D    
O5    C3    A    
C13   H6    S    
C34   C36   S    
C23   C25   S    
C43   H38   S    
O18   V4    S    
C24   H23   S    
V2    O10   S    
C46   O27   D    
C9    C12   S    
C30   H29   S    
O13   C40   A    
O28   H41   S    
O17   V3    S    
C26   C28   S    
C11   H5    S    
O8    V2    S    
C29   C44   S    
C36   C46   S    
C20   H14   S    
C21   H18   S    
C32   H32   S    
O19   V4    S    
C3    C18   S    
C10   C11   S    
O1    V2    S    
C15   H15   S    
C19   H16   S    
V3    O20   S    
C22   H20   S    
C24   H24   S    
C27   H26   S    
O16   V4    S    
C16   H11   S    
C32   C36   S    
C8    C9    S    
C31   C33   S    
C30   C34   S    
C30   H28   S    
C18   C20   S    
C45   O25   D    
C47   O29   D    
C23   C27   S    
O12   C37   A    
C24   C28   S    
C13   C47   S    
C32   C33   S    
C29   H27   S    
C11   C12   S    
C16   H12   S    
O4    C2    A    
C34   C35   S    
C2    C33   S    
C24   C25   S    
C6    C41   S    
C5    C8    S    
C29   C30   S    
C14   H8    S    
O15   C39   A    
O2    C1    A    
C16   C20   S    
C26   C27   S    
O13   V3    S    
C7    C10   S    
C21   C22   S    
O19   C40   A    
C41   O21   D    
C5    C6    S    
C31   C35   S    
H22   C27   S    
C42   O22   D    
C10   H4    S    
O3    C4    A    
C32   H31   S    
C7    C39   S    
O14   C38   A    
V4    O20   S    
O6    V2    S    
C9    H3    S    
H21   C23   S    
C29   C33   S    
C18   C19   S    
O2    V1    S    
C31   H34   S    
C20   H13   S    
C31   C45   S    
O7    V1    S    
O14   V3    S    
O1    C2    A    
C9    C10   S    
C23   H25   S    
C36   H33   S    
O5    V1    S    
O8    C3    A    
C28   C43   S    
C21   C25   S    
C5    C12   S    
C14   H7    S    
O9    V2    S    
O7    V2    S    
O11   V4    S    
O4    V1    S    
C15   C17   S    
O3    V1    S    
V1    O10   S    
C44   H39   S    
C35   H35   S    
C16   C17   S    
C43   O23   D    
C26   C38   S    
C1    C25   S    
C41   H36   S    
C5    H1    S    
C46   O28   S    
C13   C17   S    
C6    C7    S    
C4    C12   S    
O15   V3    S    
O18   C39   A    
C17   C40   S    
C7    C8    S    
C21   H17   S    
C42   H37   S    
C14   C18   S    
C47   H42   S    
H10   C19   S    
C22   C26   S    
O9    C4    A    
