data_mof_unit_24944.cif
_audit_creation_date              2012-10-26T19:23:50-0400
_audit_creation_method            fapswitch 2.2
_symmetry_space_group_name_H-M    P1
_symmetry_Int_Tables_number       1
_space_group_crystal_system       triclinic
_cell_length_a                    27.433785
_cell_length_b                    12.985063
_cell_length_c                    11.976066
_cell_angle_alpha                 99.655577
_cell_angle_beta                  92.348818
_cell_angle_gamma                 95.649399
_cell_volume                      4178.16938174

loop_
_atom_site_label
_atom_site_type_symbol
_atom_type_description
_atom_site_fract_x
_atom_site_fract_y
_atom_site_fract_z
_atom_type_partial_charge
C1    C     C_R   0.500560 0.299783 0.478270 0.526296
C2    C     C_R   0.873465 0.434478 0.531439 0.012293
C3    C     C_3   0.130171 0.670845 0.984534 -0.452496
C4    C     C_R   0.353729 0.493291 0.497554 -0.027397
C5    C     C_R   0.645426 0.505390 0.493601 -0.010888
C6    C     C_R   0.972859 0.398144 0.498751 -0.002306
C7    C     C_R   0.021845 0.469889 0.317997 -0.001463
C8    C     C_R   0.969863 0.468894 0.321604 0.016983
C9    C     C_R   0.021657 0.376512 0.479646 0.015228
C10   C     C_R   0.946267 0.439572 0.416936 0.030007
C11   C     C_R   0.047216 0.421422 0.395962 0.029173
C12   C     C_R   0.950903 0.383093 0.599607 -0.126805
C13   C     C_R   0.497867 0.700203 0.522650 0.528216
C14   C     C_R   0.049186 0.518253 0.239874 -0.124312
C15   C     C_R   0.902284 0.403127 0.619803 -0.005320
C16   C     C_R   0.100818 0.519963 0.237316 -0.007593
C17   C     C_R   0.407587 0.499463 0.500220 0.530774
C18   C     C_R   0.592295 0.504569 0.499092 0.533232
C19   C     C_R   0.045686 0.310413 0.540751 -0.152556
C20   C     C_R   0.940499 0.495657 0.233538 -0.155773
C21   C     C_R   0.492019 0.813921 0.539169 -0.011763
C22   C     C_R   0.501203 0.185524 0.465112 -0.005523
C23   C     C_R   0.505111 0.013055 0.353380 -0.121433
C24   C     C_R   0.098444 0.417461 0.391291 -0.036806
C25   C     C_R   0.483827 0.985871 0.650923 -0.116340
C26   C     C_R   0.512351 0.122618 0.361781 -0.017866
C27   C     C_R   0.486294 0.877459 0.647133 -0.013560
C28   C     C_R   0.490440 0.138667 0.559818 -0.149601
C29   C     C_R   0.492396 0.860069 0.442024 -0.159488
C30   C     C_R   0.489539 0.030905 0.553566 0.025025
C31   C     C_R   0.494834 0.967817 0.448964 0.022586
C32   C     C_R   0.449943 0.405402 0.028092 -0.167410
C33   C     C_R   0.555106 0.575984 0.970882 -0.169646
C34   C     C_R   0.455088 0.410463 0.145837 0.137507
C35   C     C_R   0.895779 0.450710 0.429758 -0.038516
C36   C     C_R   0.549435 0.574912 0.853990 0.137454
C37   C     C_R   0.523089 0.541759 0.153114 0.140580
C38   C     C_R   0.475618 0.460417 0.846665 0.139877
C39   C     C_R   0.519596 0.529245 0.031377 -0.002193
C40   C     C_R   0.480979 0.465829 0.968300 -0.008791
C41   C     C_R   0.172425 0.355160 0.456469 0.387172
C42   C     C_R   0.817322 0.484012 0.349740 0.375272
C43   C     C_R   0.178594 0.473733 0.329904 0.384099
C44   C     C_R   0.823200 0.451641 0.539883 0.355068
C45   C     C_R   0.277904 0.565971 0.450490 0.029643
C46   C     C_R   0.121873 0.355811 0.458336 0.028843
C47   C     C_R   0.711992 0.396375 0.461751 0.042209
C48   C     C_R   0.329670 0.575707 0.466590 -0.149778
C49   C     C_R   0.663315 0.408025 0.483989 -0.153286
C50   C     C_R   0.325477 0.402655 0.517525 -0.031373
C51   C     C_R   0.676796 0.597062 0.484602 -0.033632
C52   C     C_R   0.275151 0.408700 0.531044 0.087692
C53   C     C_R   0.728055 0.588263 0.473538 0.044507
C54   C     C_R   0.251016 0.468099 0.461683 0.199396
C55   C     C_R   0.745158 0.486760 0.460716 0.253442
C56   C     C_3   0.347675 0.298884 0.507128 -0.261472
C57   C     C_R   0.867651 0.477853 0.339934 0.025707
C58   C     C_3   0.310323 0.200621 0.494031 -0.286732
C59   C     C_3   0.336267 0.101602 0.492597 -0.468670
C60   C     C_3   0.654854 0.700033 0.477699 -0.257816
C61   C     C_3   0.664128 0.783302 0.586017 -0.313658
C62   C     C_3   0.646989 0.888148 0.568761 -0.459283
C63   C     C_3   0.482692 0.830342 0.755761 -0.232109
C64   C     C_3   0.471925 0.904397 0.864282 -0.326633
C65   C     C_3   0.467684 0.845600 0.964394 -0.457789
C66   C     C_3   0.533568 0.172740 0.265071 -0.236409
C67   C     C_3   0.556475 0.099963 0.171615 -0.331906
C68   C     C_R   0.094863 0.298068 0.527738 -0.124494
C69   C     C_3   0.578671 0.161543 0.084613 -0.454908
C70   C     C_3   0.436102 0.379154 0.782158 -0.219698
C71   C     C_3   0.383148 0.402792 0.808308 -0.315067
C72   C     C_3   0.349756 0.302406 0.817442 -0.470474
C73   C     C_3   0.562283 0.624669 0.217028 -0.218397
C74   C     C_3   0.556682 0.736931 0.194169 -0.322969
C75   C     C_3   0.591440 0.818566 0.273287 -0.473702
C76   C     C_3   0.592518 0.633144 0.807620 -0.208091
C77   C     C_3   0.638371 0.571654 0.810920 -0.279615
C78   C     C_3   0.686651 0.637889 0.801544 -0.459069
C79   C     C_R   0.890199 0.498017 0.241868 -0.124717
C80   C     C_3   0.416796 0.341011 0.196395 -0.221861
C81   C     C_3   0.407625 0.226818 0.131105 -0.342579
C82   C     C_3   0.387359 0.150352 0.205898 -0.463881
C83   C     C_3   0.258932 0.415185 0.652259 -0.240394
C84   C     C_3   0.269882 0.526857 0.721236 -0.325868
C85   C     C_3   0.257686 0.530844 0.844986 -0.452907
C86   C     C_3   0.764702 0.684894 0.473183 -0.240906
C87   C     C_3   0.796281 0.715493 0.585101 -0.296862
C88   C     C_3   0.824911 0.823661 0.593406 -0.467312
C89   C     C_3   0.726969 0.285640 0.438367 -0.226705
C90   C     C_R   0.126243 0.470503 0.316880 0.011634
C91   C     C_3   0.701727 0.223444 0.327050 -0.308553
C92   C     C_3   0.715272 0.110911 0.305152 -0.460552
C93   C     C_3   0.253359 0.663317 0.435712 -0.227199
C94   C     C_3   0.270566 0.758402 0.528745 -0.332698
C95   C     C_3   0.239596 0.848916 0.522295 -0.454573
C96   C     C_3   0.881468 0.390377 0.734182 -0.221778
C97   C     C_3   0.916321 0.359691 0.824297 -0.338169
C98   C     C_3   0.890696 0.352527 0.933970 -0.446926
C99   C     C_3   0.128575 0.574747 0.151541 -0.225131
C100  C     C_3   0.097764 0.623154 0.067533 -0.330676
Cu1   Cu    Cu3+1 0.503580 0.507730 0.615930 0.881261
Cu2   Cu    Cu3+1 0.496420 0.492270 0.384070 0.884073
H1    H     H_    0.421420 0.350753 0.984100 0.121336
H2    H     H_    0.285502 0.206269 0.565088 0.186974
H3    H     H_    0.868973 0.466681 0.772340 0.191935
H4    H     H_    0.849681 0.328698 0.718177 0.189026
H5    H     H_    0.157698 0.733423 0.031087 0.155523
H6    H     H_    0.149451 0.609328 0.933806 0.151002
H7    H     H_    0.107098 0.705924 0.925669 0.146553
H8    H     H_    0.070582 0.561571 0.017811 0.158577
H9    H     H_    0.078232 0.686445 0.114580 0.161000
H10   H     H_    0.155004 0.639019 0.199327 0.178782
H11   H     H_    0.149012 0.515846 0.099912 0.194286
H12   H     H_    0.973035 0.360952 0.665885 0.106451
H13   H     H_    0.287690 0.193312 0.413382 0.198373
H14   H     H_    0.030461 0.559745 0.183985 0.105238
H15   H     H_    0.026743 0.265243 0.596906 0.104157
H16   H     H_    0.955133 0.511281 0.155089 0.100445
H17   H     H_    0.369439 0.290671 0.430540 0.136858
H18   H     H_    0.373715 0.300799 0.579813 0.139280
H19   H     H_    0.664607 0.916013 0.495808 0.148562
H20   H     H_    0.606470 0.880223 0.554076 0.158077
H21   H     H_    0.657172 0.947807 0.646175 0.144145
H22   H     H_    0.643381 0.756490 0.654870 0.159144
H23   H     H_    0.703435 0.796844 0.614368 0.166705
H24   H     H_    0.668773 0.731520 0.403216 0.134867
H25   H     H_    0.589432 0.612161 0.013628 0.101815
H26   H     H_    0.614656 0.686391 0.460712 0.141275
H27   H     H_    0.437662 0.780118 0.946125 0.158192
H28   H     H_    0.502715 0.813384 0.981692 0.147430
H29   H     H_    0.459387 0.900208 0.041310 0.134638
H30   H     H_    0.502183 0.969199 0.886198 0.156655
H31   H     H_    0.436814 0.937966 0.851059 0.158009
H32   H     H_    0.452747 0.764458 0.740857 0.176447
H33   H     H_    0.518126 0.799633 0.773195 0.163081
H34   H     H_    0.549968 0.200243 0.044197 0.153326
H35   H     H_    0.608271 0.222182 0.125899 0.158147
H36   H     H_    0.638197 0.338982 0.488341 0.107070
H37   H     H_    0.594578 0.107081 0.017634 0.141411
H38   H     H_    0.586032 0.062309 0.209999 0.160466
H39   H     H_    0.528085 0.038815 0.126101 0.157057
H40   H     H_    0.504369 0.208992 0.224427 0.179441
H41   H     H_    0.562941 0.235777 0.302571 0.166081
H42   H     H_    0.509494 0.961985 0.274281 0.101350
H43   H     H_    0.479328 0.037323 0.729801 0.095764
H44   H     H_    0.340002 0.254230 0.733093 0.149196
H45   H     H_    0.367281 0.251280 0.868633 0.134259
H46   H     H_    0.315616 0.323124 0.857928 0.144167
H47   H     H_    0.351367 0.646471 0.453319 0.114801
H48   H     H_    0.382292 0.460286 0.887902 0.161555
H49   H     H_    0.367711 0.440556 0.740607 0.175462
H50   H     H_    0.438738 0.368811 0.691250 0.201389
H51   H     H_    0.443324 0.301306 0.802279 0.098012
H52   H     H_    0.583462 0.816900 0.362698 0.159447
H53   H     H_    0.630034 0.803256 0.259784 0.147520
H54   H     H_    0.587078 0.897864 0.254965 0.137849
H55   H     H_    0.565132 0.748193 0.107554 0.149732
H56   H     H_    0.518146 0.753562 0.201762 0.156877
H57   H     H_    0.561521 0.628034 0.307654 0.215592
H58   H     H_    0.492823 0.812111 0.360291 0.132329
H59   H     H_    0.599334 0.602591 0.195811 0.112592
H60   H     H_    0.692815 0.641439 0.711920 0.163841
H61   H     H_    0.687304 0.718385 0.851150 0.141609
H62   H     H_    0.717581 0.600237 0.834513 0.166461
H63   H     H_    0.641857 0.541799 0.892135 0.150624
H64   H     H_    0.634882 0.501011 0.743741 0.197416
H65   H     H_    0.583730 0.654733 0.724864 0.185768
H66   H     H_    0.600814 0.711052 0.863599 0.085541
H67   H     H_    0.413888 0.149766 0.278205 0.156976
H68   H     H_    0.351955 0.173201 0.238556 0.158838
H69   H     H_    0.483524 0.186274 0.639806 0.113423
H70   H     H_    0.381055 0.069773 0.155502 0.146912
H71   H     H_    0.380246 0.222740 0.059240 0.151237
H72   H     H_    0.441848 0.200037 0.095433 0.155437
H73   H     H_    0.426332 0.336863 0.284211 0.216144
H74   H     H_    0.381589 0.376701 0.196145 0.137952
H75   H     H_    0.218868 0.499528 0.850595 0.152164
H76   H     H_    0.282098 0.484489 0.887795 0.159987
H77   H     H_    0.263137 0.613515 0.889997 0.146165
H78   H     H_    0.309045 0.556648 0.717884 0.163200
H79   H     H_    0.247000 0.580009 0.684246 0.158119
H80   H     H_    0.361789 0.092828 0.423023 0.155984
H81   H     H_    0.219109 0.393123 0.655076 0.181739
H82   H     H_    0.277222 0.359192 0.694667 0.144163
H83   H     H_    0.849009 0.824625 0.521183 0.156949
H84   H     H_    0.799312 0.884786 0.592854 0.148820
H85   H     H_    0.848132 0.842474 0.673814 0.146930
H86   H     H_    0.772908 0.716295 0.658672 0.162232
H87   H     H_    0.823035 0.657890 0.591029 0.192874
H88   H     H_    0.788873 0.671195 0.401632 0.179007
H89   H     H_    0.746487 0.753589 0.457228 0.135652
H90   H     H_    0.112309 0.248003 0.577479 0.150580
H91   H     H_    0.357316 0.104972 0.574607 0.149824
H92   H     H_    0.869121 0.518169 0.171682 0.153571
H93   H     H_    0.755519 0.110587 0.298358 0.156345
H94   H     H_    0.703519 0.069336 0.374998 0.146802
H95   H     H_    0.696425 0.068162 0.224385 0.142461
H96   H     H_    0.661194 0.220450 0.330097 0.155755
H97   H     H_    0.713020 0.262873 0.255219 0.186552
H98   H     H_    0.767123 0.285116 0.432023 0.168100
H99   H     H_    0.716717 0.245285 0.510244 0.144719
H100  H     H_    0.241825 0.873459 0.437984 0.155087
H101  H     H_    0.200654 0.824893 0.536405 0.155235
H102  H     H_    0.308696 0.031623 0.479165 0.148789
H103  H     H_    0.253378 0.916926 0.588951 0.146926
H104  H     H_    0.267701 0.735892 0.613841 0.157815
H105  H     H_    0.309435 0.786895 0.519243 0.157941
H106  H     H_    0.261438 0.684071 0.351551 0.178223
H107  H     H_    0.213104 0.648537 0.440282 0.165397
H108  H     H_    0.878044 0.429386 0.969139 0.155964
H109  H     H_    0.858683 0.291519 0.918041 0.161762
H110  H     H_    0.916706 0.331087 0.997611 0.150822
H111  H     H_    0.928836 0.281825 0.792296 0.158917
H112  H     H_    0.948630 0.419840 0.844327 0.157510
N1    N     N_R   0.199973 0.434255 0.417426 -0.380104
N2    N     N_R   0.796641 0.475139 0.449851 -0.396334
N3    N     N_R   0.508960 0.519350 0.790140 -0.221995
N4    N     N_R   0.491040 0.480650 0.209860 -0.225025
O1    O     O_R   0.502540 0.354460 0.582000 -0.518705
O2    O     O_2   0.789182 0.499679 0.260242 -0.530576
O3    O     O_2   0.800282 0.444907 0.636163 -0.550656
O4    O     O_2   0.207696 0.512422 0.255665 -0.549000
O5    O     O_R   0.497460 0.645540 0.418000 -0.515981
O6    O     O_R   0.496500 0.341410 0.386200 -0.529802
O7    O     O_R   0.503500 0.658590 0.613800 -0.524025
O8    O     O_R   0.433290 0.506540 0.597890 -0.514709
O9    O     O_R   0.566710 0.493460 0.402110 -0.516730
O10   O     O_R   0.427240 0.493490 0.402090 -0.507718
O11   O     O_R   0.572760 0.506510 0.597910 -0.505242
O12   O     O_2   0.193153 0.274198 0.489149 -0.548510

loop_
_geom_bond_atom_site_label_1
_geom_bond_atom_site_label_2
_ccdc_geom_bond_type
C2    C35   A    
C69   H37   S    
C89   H99   S    
C96   H3    S    
C38   C70   S    
C100  H8    S    
C93   C94   S    
C59   H80   S    
C70   H51   S    
C47   C89   S    
C73   C74   S    
C57   C79   A    
C94   H104  S    
C87   C88   S    
C92   H93   S    
C45   C93   S    
C6    C9    A    
C20   H16   S    
C97   C98   S    
Cu2   O6    S    
C7    C8    A    
C47   C49   A    
C77   C78   S    
C59   H91   S    
C95   H100  S    
C7    C11   A    
C98   H108  S    
C86   H89   S    
C8    C20   A    
C79   H92   S    
C1    O6    A    
C16   C90   A    
C84   H79   S    
C38   C40   A    
C3    H7    S    
C42   O2    S    
C13   O7    A    
C30   C31   A    
C41   N1    A    
C17   O10   A    
C14   H14   S    
C82   H68   S    
C71   H48   S    
C68   H90   S    
C77   H63   S    
C78   H62   S    
C11   C24   A    
C33   H25   S    
C33   C36   A    
C76   H65   S    
Cu1   O7    S    
C23   C26   A    
C84   H78   S    
C73   H59   S    
C36   C76   S    
C34   C80   S    
C91   H96   S    
C59   H102  S    
C9    C19   A    
C7    C14   A    
C71   H49   S    
C64   H30   S    
C2    C44   A    
C85   H76   S    
C50   C52   A    
C41   C46   A    
C10   C35   A    
Cu1   O8    S    
C56   C58   S    
C89   C91   S    
C20   C79   A    
C87   H87   S    
C91   H97   S    
C15   C96   S    
C88   H84   S    
C66   C67   S    
C21   C27   A    
C82   H67   S    
C43   N1    A    
C1    C22   S    
C97   H111  S    
C49   H36   S    
C29   C31   A    
C56   H18   S    
C38   N3    A    
C5    C49   A    
C61   C62   S    
C37   N4    A    
C13   O5    A    
C3    C100  S    
C42   C57   A    
C62   H21   S    
C65   H29   S    
C52   C54   A    
Cu2   O5    S    
C81   C82   S    
C29   H58   S    
C12   H12   S    
C53   C55   A    
C69   H35   S    
C54   N1    S    
C82   H70   S    
C86   H88   S    
C43   C90   A    
C74   C75   S    
C74   H56   S    
C83   H81   S    
C26   C66   S    
Cu1   Cu2   S    
C60   H26   S    
C43   O4    S    
C70   H50   S    
C84   C85   S    
C80   H74   S    
C18   O9    A    
C91   C92   S    
C86   C87   S    
C66   H41   S    
C3    H5    S    
C77   H64   S    
C72   H46   S    
C98   H110  S    
C50   C56   S    
C4    C50   A    
C60   C61   S    
C67   C69   S    
C32   C34   A    
C52   C83   S    
C63   H32   S    
C46   C68   A    
C2    C15   A    
Cu1   N3    S    
C17   O8    A    
Cu1   O1    S    
C28   H69   S    
C65   H27   S    
C83   C84   S    
C12   C15   A    
C85   H77   S    
C96   C97   S    
Cu2   O10   S    
C32   H1    S    
C13   C21   S    
C19   C68   A    
C1    O1    A    
C33   C39   A    
C76   C77   S    
C67   H38   S    
C9    C11   A    
C53   C86   S    
C27   C63   S    
C55   N2    S    
C4    C17   S    
C85   H75   S    
C88   H83   S    
C88   H85   S    
C45   C54   A    
C78   H60   S    
C69   H34   S    
C97   H112  S    
C61   H22   S    
C93   H107  S    
C58   H13   S    
C56   H17   S    
C14   C16   A    
C23   H42   S    
C51   C60   S    
C58   H2    S    
C92   H95   S    
C67   H39   S    
C62   H20   S    
C70   C71   S    
C47   C55   A    
C4    C48   A    
C45   C48   A    
C25   C30   A    
C89   H98   S    
C37   C73   S    
C64   H31   S    
C25   H43   S    
C74   H55   S    
C44   N2    A    
C94   H105  S    
C80   H73   S    
C80   C81   S    
C92   H94   S    
C18   O11   A    
C24   C90   A    
C36   N3    A    
C99   H11   S    
C61   H23   S    
C34   N4    A    
C16   C99   S    
C87   H86   S    
C66   H40   S    
C3    H6    S    
C25   C27   A    
C72   H45   S    
C98   H109  S    
C73   H57   S    
C99   C100  S    
C65   H28   S    
C35   C57   A    
C24   C46   A    
C64   C65   S    
C60   H24   S    
C58   C59   S    
C71   C72   S    
C37   C39   A    
C81   H72   S    
C6    C12   A    
C75   H52   S    
C21   C29   A    
C5    C18   S    
C72   H44   S    
C99   H10   S    
C28   C30   A    
Cu2   O9    S    
Cu1   O11   S    
C83   H82   S    
C76   H66   S    
C75   H54   S    
C95   H103  S    
C32   C40   A    
C94   C95   S    
C42   N2    A    
C6    C10   A    
Cu2   N4    S    
C63   C64   S    
C39   C40   A    
C75   H53   S    
C78   H61   S    
C41   O12   S    
C19   H15   S    
C100  H9    S    
C8    C10   A    
C22   C26   A    
C96   H4    S    
C5    C51   A    
C22   C28   A    
C44   O3    S    
C51   C53   A    
C48   H47   S    
C93   H106  S    
C95   H101  S    
C62   H19   S    
C63   H33   S    
C81   H71   S    
C23   C31   A    
