data_mof_unit_17224.cif
_audit_creation_date              2012-12-10T20:34:55-0500
_audit_creation_method            fapswitch 2.2
_symmetry_space_group_name_H-M    P1
_symmetry_Int_Tables_number       1
_space_group_crystal_system       triclinic
_cell_length_a                    10.640201
_cell_length_b                    10.677185
_cell_length_c                    9.859347
_cell_angle_alpha                 89.988047
_cell_angle_beta                  89.819537
_cell_angle_gamma                 90.171726
_cell_volume                      1120.0841108

loop_
_atom_site_label
_atom_site_type_symbol
_atom_type_description
_atom_site_fract_x
_atom_site_fract_y
_atom_site_fract_z
_atom_type_partial_charge
C1    C     C_R   0.503528 0.259985 0.500039 0.878907
C2    C     C_R   0.520758 0.936143 0.623031 0.130536
C3    C     C_3   0.429787 0.928781 0.738696 -0.490139
C4    C     C_R   0.257662 0.499448 0.500361 0.841122
C5    C     C_3   0.429776 0.070762 0.738615 -0.492668
C6    C     C_R   0.437246 0.408790 0.071603 0.221327
C7    C     C_R   0.571230 0.582971 0.071738 -0.139236
C8    C     C_R   0.571242 0.582979 0.927686 -0.141942
C9    C     C_R   0.436974 0.409004 0.928968 0.222576
C10   C     C_3   0.299151 0.384078 0.924642 -0.527756
C11   C     C_3   0.299791 0.382703 0.078457 -0.518152
C12   C     C_3   0.878790 0.501834 0.500673 0.092814
C13   C     C_R   0.503291 0.740058 0.499959 0.898294
C14   C     C_R   0.742296 0.500134 0.500074 0.852328
C15   C     C_3   0.071538 0.382698 0.426077 -0.403350
C16   C     C_3   0.927257 0.382673 0.427459 -0.418385
C17   C     C_3   0.070911 0.499071 0.648947 -0.406782
C18   C     C_3   0.074427 0.620188 0.428904 -0.463663
C19   C     C_3   0.121336 0.500248 0.501026 0.170419
C20   C     C_2   0.877843 0.741393 0.479802 0.357380
C21   C     C_3   0.928353 0.499556 0.649049 -0.401551
C22   C     C_3   0.929559 0.619936 0.424244 -0.133352
C23   C     C_R   0.520890 0.063888 0.623085 0.145345
C24   C     C_R   0.522552 0.128645 0.500560 -0.120317
C25   C     C_R   0.547047 0.064947 0.378992 -0.234154
C26   C     C_R   0.546406 0.935527 0.378866 -0.132897
C27   C     C_R   0.521923 0.871578 0.500424 -0.092020
H1    H     H_    0.106777 0.296156 0.476013 0.159415
H2    H     H_    0.626769 0.651535 0.125956 0.157515
H3    H     H_    0.105430 0.381703 0.319207 0.177430
H4    H     H_    0.626786 0.651544 0.873069 0.145099
H5    H     H_    0.245828 0.464320 0.882481 0.214503
H6    H     H_    0.276831 0.291443 0.879243 0.195092
H7    H     H_    0.245668 0.461197 0.123888 0.215104
H8    H     H_    0.279266 0.288876 0.122239 0.197847
H9    H     H_    0.892225 0.379167 0.321224 0.180354
H10   H     H_    0.892152 0.297059 0.480032 0.173426
H11   H     H_    0.103957 0.413515 0.702470 0.177344
H12   H     H_    0.105694 0.582469 0.705585 0.171483
H13   H     H_    0.893732 0.414110 0.702466 0.188109
H14   H     H_    0.111500 0.704235 0.482802 0.149289
H15   H     H_    0.111673 0.624408 0.323298 0.175559
H16   H     H_    0.900921 0.612846 0.315763 0.170443
H17   H     H_    0.896285 0.768931 0.583756 0.067083
H18   H     H_    0.893933 0.581722 0.707573 0.163488
H19   H     H_    0.558028 0.114011 0.283466 0.168942
H20   H     H_    0.557125 0.886600 0.283283 0.170075
H21   H     H_    0.337905 0.887118 0.709182 0.198436
H22   H     H_    0.473042 0.887862 0.831090 0.206310
H23   H     H_    0.337932 0.111761 0.708794 0.194367
H24   H     H_    0.472798 0.112014 0.831074 0.205056
N1    N     N_R   0.499150 0.499140 0.142800 -0.108700
N2    N     N_R   0.499150 0.499180 0.857150 -0.106203
O1    O     O_R   0.500020 0.316790 0.614690 -0.614945
O2    O     O_R   0.500000 0.316760 0.385350 -0.623853
O3    O     O_R   0.314800 0.500000 0.614670 -0.629971
O4    O     O_R   0.314790 0.499960 0.385330 -0.627416
O5    O     O_R   0.500000 0.683240 0.614650 -0.622387
O6    O     O_R   0.499980 0.683210 0.385310 -0.617977
O7    O     O_R   0.685210 0.500040 0.614670 -0.631559
O8    O     O_R   0.685200 0.500000 0.385330 -0.620753
O9    O     O_2   0.816191 0.810496 0.407466 -0.591288
Zn1   Zn    Zn3+2 0.500010 0.500020 0.653130 0.934765
Zn2   Zn    Zn3+2 0.499990 0.499980 0.346870 0.943835

loop_
_geom_bond_atom_site_label_1
_geom_bond_atom_site_label_2
_ccdc_geom_bond_type
C4    O4    A    
C8    N2    A    
O8    Zn2   S    
C23   C24   A    
C2    C27   A    
C13   O6    A    
C12   C22   S    
C14   O7    A    
C9    C10   S    
C22   H16   S    
C5    C23   S    
C4    O3    A    
C16   H10   S    
C1    O1    A    
O2    Zn2   S    
C6    C9    A    
C11   H8    S    
C2    C3    S    
C1    O2    A    
O3    Zn1   S    
C7    C8    A    
O6    Zn2   S    
C16   H9    S    
C15   C19   S    
C14   O8    A    
N2    Zn1   S    
C6    C11   S    
C15   H3    S    
C26   C27   A    
C21   H13   S    
C26   H20   S    
O4    Zn2   S    
O7    Zn1   S    
C7    H2    S    
C12   C21   S    
C20   H17   S    
C20   C22   S    
C7    N1    A    
C10   H6    S    
C21   H18   S    
N1    Zn2   S    
C18   H15   S    
C20   O9    D    
C5    H23   S    
C9    N2    A    
C10   C11   S    
C15   H1    S    
C15   C16   S    
C3    H22   S    
C17   C19   S    
C10   H5    S    
C3    H21   S    
C2    C23   A    
C24   C25   A    
C1    C24   S    
C18   C19   S    
C17   H12   S    
C18   H14   S    
C17   H11   S    
O5    Zn1   S    
O1    Zn1   S    
C13   C27   S    
C13   O5    A    
C6    N1    A    
C25   C26   A    
C18   C22   S    
C4    C19   S    
C25   H19   S    
C11   H7    S    
C17   C21   S    
C8    H4    S    
C12   C16   S    
C12   C14   S    
C5    H24   S    
C3    C5    S    
