data_mof_unit_10885.cif
_audit_creation_date              2012-12-11T17:41:43-0500
_audit_creation_method            fapswitch 2.2
_symmetry_space_group_name_H-M    P1
_symmetry_Int_Tables_number       1
_space_group_crystal_system       triclinic
_cell_length_a                    15.485764
_cell_length_b                    14.788652
_cell_length_c                    15.107717
_cell_angle_alpha                 109.686077
_cell_angle_beta                  121.55948
_cell_angle_gamma                 59.26867
_cell_volume                      2522.74330062

loop_
_atom_site_label
_atom_site_type_symbol
_atom_type_description
_atom_site_fract_x
_atom_site_fract_y
_atom_site_fract_z
_atom_type_partial_charge
C1    C     C_R   0.757433 0.992162 0.790802 -0.119651
C2    C     C_R   0.290105 0.309071 0.115311 -0.122762
C3    C     C_R   0.639419 0.687541 0.834913 -0.144646
C4    C     C_R   0.365042 0.206716 0.098817 -0.103672
C5    C     C_R   0.664565 0.749926 0.930864 0.119257
C6    C     C_R   0.325643 0.133560 0.022360 0.100463
C7    C     C_R   0.776710 0.721838 0.004997 -0.168782
C8    C     C_R   0.210058 0.164612 0.962397 -0.175251
C9    C     C_R   0.861815 0.633777 0.983004 -0.128321
C10   C     C_R   0.135350 0.266994 0.979272 -0.082666
C11   C     C_R   0.835924 0.572862 0.887125 -0.092591
C12   C     C_R   0.197044 0.062633 0.226807 -0.133189
C13   C     C_R   0.175351 0.339312 0.055293 -0.116104
C14   C     C_R   0.572872 0.861218 0.048785 -0.238963
C15   C     C_R   0.402656 0.007048 0.903339 -0.223806
C16   C     C_R   0.244513 0.291258 0.491540 -0.122830
C17   C     C_R   0.802745 0.726958 0.562460 -0.162801
C18   C     C_R   0.491268 0.952671 0.072736 0.067926
C19   C     C_R   0.489416 0.921675 0.882062 0.056408
C20   C     C_R   0.405214 0.027060 0.999438 0.015830
C21   C     C_R   0.574256 0.845012 0.953240 0.022613
C22   C     C_2   0.154168 0.398484 0.616242 -0.208798
C23   C     C_R   0.213885 0.300590 0.567055 0.140859
C24   C     C_2   0.981675 0.657405 0.544933 -0.228117
C25   C     C_2   0.137310 0.491830 0.602722 -0.095008
C26   C     C_2   0.042124 0.585153 0.612885 -0.101470
C27   C     C_2   0.850756 0.118024 0.898492 -0.205397
C28   C     C_2   0.014539 0.049210 0.155929 -0.216588
C29   C     C_R   0.091274 0.769460 0.178920 -0.121200
C30   C     C_R   0.761840 0.127232 0.311383 -0.107852
C31   C     C_R   0.186262 0.714472 0.262396 -0.147692
C32   C     C_R   0.670980 0.221734 0.314041 -0.138244
C33   C     C_R   0.281196 0.632353 0.249111 0.038111
C34   C     C_R   0.865433 0.728252 0.523420 0.159051
C35   C     C_R   0.680533 0.290930 0.405587 0.058130
C36   C     C_R   0.277050 0.605268 0.147592 -0.035080
C37   C     C_R   0.784011 0.264457 0.496173 -0.004542
C38   C     C_R   0.181000 0.663508 0.064874 -0.084414
C39   C     C_R   0.874941 0.168981 0.491792 -0.110919
C40   C     C_R   0.590700 0.224598 0.496391 -0.127072
C41   C     C_R   0.404813 0.771318 0.438047 -0.139732
C42   C     C_R   0.089012 0.744855 0.080618 -0.144756
C43   C     C_R   0.863703 0.101084 0.399949 -0.170780
C44   C     C_R   0.384944 0.492104 0.372579 0.075591
C45   C     C_R   0.497457 0.311408 0.443189 0.081382
C46   C     C_R   0.578585 0.483708 0.385201 0.054403
C47   C     C_R   0.489388 0.400034 0.408100 -0.034718
C48   C     C_R   0.483187 0.577844 0.375556 -0.032384
C49   C     C_R   0.582456 0.392762 0.402068 -0.075899
C50   C     C_R   0.382099 0.571847 0.338971 -0.063914
C51   C     C_2   0.862825 0.107108 0.989245 -0.104768
C52   C     C_2   0.957079 0.117966 0.084799 -0.108951
C53   C     C_R   0.406412 0.983252 0.710872 -0.145529
C54   C     C_R   0.592223 0.956520 0.268188 -0.134562
C55   C     C_R   0.408696 0.289825 0.412733 -0.158180
C56   C     C_R   0.493621 0.676589 0.437005 0.100042
C57   C     C_R   0.589105 0.693804 0.511232 -0.137238
C58   C     C_R   0.590951 0.913635 0.790396 -0.129476
C59   C     C_R   0.405608 0.024357 0.194838 -0.112184
C60   C     C_R   0.243973 0.199627 0.583247 -0.133811
C61   C     C_R   0.802367 0.816960 0.470050 -0.146338
C62   C     C_R   0.758958 0.084361 0.700670 -0.140964
C63   C     C_R   0.194349 0.972630 0.316171 -0.138754
C64   C     C_R   0.789696 0.068315 0.800532 0.145203
C65   C     C_R   0.131833 0.025866 0.227899 0.164884
C66   C     C_2   0.369128 0.513671 0.125082 0.471076
C67   C     C_R   0.497075 0.931896 0.795537 0.057284
C68   C     C_2   0.795202 0.331648 0.596655 0.410013
C69   C     C_3   0.285166 0.522177 0.392362 -0.381863
C70   C     C_3   0.178819 0.516886 0.293776 -0.252803
C71   C     C_3   0.076390 0.577936 0.315701 -0.963241
C72   C     C_3   0.652758 0.475227 0.342193 -0.378952
C73   C     C_3   0.769319 0.469087 0.424612 -0.267494
C74   C     C_3   0.860497 0.385768 0.390495 -0.860840
C75   C     C_R   0.497213 0.970615 0.174437 0.047260
C76   C     C_R   0.724853 0.599768 0.813178 -0.097725
H1    H     H_    0.770828 0.958197 0.852262 0.086880
H2    H     H_    0.453620 0.184300 0.144798 0.103604
H3    H     H_    0.798499 0.769016 0.079112 0.108211
H4    H     H_    0.178084 0.109618 0.902415 0.124343
H5    H     H_    0.947893 0.613110 0.040149 0.120127
H6    H     H_    0.046475 0.290544 0.932804 0.133345
H7    H     H_    0.636395 0.803771 0.105423 0.132916
H8    H     H_    0.339377 0.067721 0.850035 0.135903
H9    H     H_    0.010654 0.583987 0.661761 0.130868
H10   H     H_    0.178439 0.496852 0.565496 0.125297
H11   H     H_    0.014096 0.657738 0.496462 0.137101
H12   H     H_    0.170288 0.119802 0.178282 0.088569
H13   H     H_    0.111805 0.394426 0.652889 0.144217
H14   H     H_    0.015202 0.788042 0.016064 0.116665
H15   H     H_    0.934143 0.027842 0.397549 0.110171
H16   H     H_    0.232077 0.353760 0.458636 0.098329
H17   H     H_    0.830915 0.676979 0.618800 0.091453
H18   H     H_    0.019118 0.831308 0.190705 0.098784
H19   H     H_    0.753490 0.074587 0.240241 0.109546
H20   H     H_    0.184789 0.736388 0.337573 0.104952
H21   H     H_    0.593399 0.242465 0.243995 0.108839
H22   H     H_    0.175888 0.644507 0.986967 0.154914
H23   H     H_    0.979393 0.000200 0.152950 0.126602
H24   H     H_    0.954609 0.146171 0.559781 0.151250
H25   H     H_    0.676705 0.204022 0.522387 0.102417
H26   H     H_    0.318626 0.789960 0.393061 0.117037
H27   H     H_    0.320410 0.999150 0.683910 0.091564
H28   H     H_    0.678010 0.920408 0.280443 0.098106
H29   H     H_    0.328868 0.320018 0.349836 0.113894
H30   H     H_    0.674240 0.636576 0.535406 0.097564
H31   H     H_    0.676845 0.867915 0.839972 0.105521
H32   H     H_    0.319007 0.047502 0.139998 0.111176
H33   H     H_    0.231908 0.178462 0.636534 0.106710
H34   H     H_    0.896718 0.153351 0.897119 0.136702
H35   H     H_    0.832188 0.849544 0.443000 0.094234
H36   H     H_    0.773517 0.137321 0.680747 0.111220
H37   H     H_    0.162103 0.948420 0.348440 0.086739
H38   H     H_    0.990766 0.167587 0.086495 0.128498
H39   H     H_    0.817772 0.071447 0.991486 0.127441
H40   H     H_    0.434438 0.456253 0.181076 0.013115
H41   H     H_    0.723817 0.401989 0.602334 0.018522
H42   H     H_    0.087372 0.541119 0.375949 0.258948
H43   H     H_    0.062789 0.661894 0.342707 0.257887
H44   H     H_    0.001404 0.575387 0.243283 0.257085
H45   H     H_    0.901909 0.504871 0.870111 0.129182
H46   H     H_    0.161646 0.547678 0.226606 0.208169
H47   H     H_    0.185269 0.435764 0.264763 0.182280
H48   H     H_    0.307504 0.478902 0.453553 0.173839
H49   H     H_    0.264034 0.604009 0.430911 0.180684
H50   H     H_    0.863378 0.306185 0.378509 0.270644
H51   H     H_    0.844733 0.404515 0.316692 0.258273
H52   H     H_    0.942677 0.384677 0.451628 0.250407
H53   H     H_    0.770977 0.546457 0.436105 0.197337
H54   H     H_    0.789646 0.452693 0.501010 0.194401
H55   H     H_    0.659067 0.406271 0.282401 0.206215
H56   H     H_    0.117300 0.418837 0.067232 0.097878
H57   H     H_    0.610515 0.544291 0.297839 0.175291
H58   H     H_    0.704841 0.552709 0.738894 0.114448
H59   H     H_    0.321072 0.365068 0.174056 0.104678
H60   H     H_    0.553789 0.707098 0.776825 0.114990
N1    N     N_R   0.705410 0.966550 0.689210 -0.044531
N2    N     N_R   0.556610 0.796750 0.548620 -0.040474
N3    N     N_R   0.556610 0.951620 0.703500 -0.038698
N4    N     N_R   0.443390 0.048380 0.296500 -0.042906
N5    N     N_R   0.294590 0.131500 0.522480 -0.044537
N6    N     N_R   0.705410 0.868500 0.477520 -0.039582
N7    N     N_R   0.705410 0.023370 0.632390 -0.043740
N8    N     N_R   0.294590 0.976630 0.367610 -0.043180
N9    N     N_R   0.294590 0.033450 0.310790 -0.044204
N10   N     N_R   0.294590 0.188320 0.465660 -0.044352
N11   N     N_R   0.705410 0.811680 0.534340 -0.040748
N12   N     N_R   0.556610 0.157790 0.497330 -0.039837
N13   N     N_R   0.443390 0.842210 0.502670 -0.045079
N14   N     N_R   0.443390 0.997080 0.657540 -0.036141
N15   N     N_R   0.556610 0.002920 0.342460 -0.037582
N16   N     N_R   0.443390 0.203250 0.451380 -0.040288
Ni1   Ni    Ni4+2 0.629830 0.882720 0.617850 0.214751
Ni2   Ni    Ni4+2 0.370170 0.117280 0.382150 0.213276
Ni3   Ni    Ni4+2 0.629830 0.013030 0.487540 0.221945
Ni4   Ni    Ni4+2 0.370170 0.986970 0.512460 0.207440
O1    O     O_2   0.372240 0.500103 0.042288 -0.577736
O2    O     O_2   0.884281 0.309235 0.674405 -0.611286

loop_
_geom_bond_atom_site_label_1
_geom_bond_atom_site_label_2
_ccdc_geom_bond_type
C58   N3    A    
C63   C65   A    
C18   C75   S    
C29   C42   A    
C1    H1    S    
C73   C74   S    
C14   C18   A    
C62   N7    A    
C38   H22   S    
C39   H24   S    
C55   N16   A    
C47   C49   A    
C56   C57   A    
C15   C19   A    
C46   C49   A    
C66   H40   S    
C71   H44   S    
C55   H29   S    
C14   C21   A    
C54   H28   S    
C35   C37   A    
N13   Ni4   S    
C24   C26   D    
C3    H60   S    
C11   C76   A    
C29   H18   S    
C68   H41   S    
C36   C66   S    
C41   N13   A    
N3    Ni1   S    
C61   N6    A    
C31   H20   S    
C37   C68   S    
C33   C36   A    
C32   H21   S    
C16   N10   A    
C58   H31   S    
C2    C13   A    
C62   C64   A    
C60   H33   S    
C40   H25   S    
C70   H47   S    
C22   H13   S    
C74   H52   S    
C27   H34   S    
C22   C25   D    
C35   C49   S    
C63   N8    A    
C31   C33   A    
C19   C67   S    
C70   C71   S    
N12   Ni3   S    
N15   Ni3   S    
N6    Ni3   S    
C46   C72   S    
C44   C47   A    
C62   H36   S    
C48   C50   A    
C57   H30   S    
N1    N7    A    
N11   Ni1   S    
C69   H49   S    
N14   Ni4   S    
C23   C60   A    
C11   H45   S    
C14   H7    S    
C68   O2    D    
C27   C51   D    
C46   C48   A    
C45   C47   S    
N2    N13   A    
C40   C45   A    
C73   H53   S    
C12   H12   S    
C51   C52   S    
C32   C35   A    
C4    C6    A    
C5    C7    A    
C40   N12   A    
N8    N9    A    
C39   C43   A    
C69   H48   S    
C25   C26   S    
C10   H6    S    
C34   C61   A    
C43   H15   S    
C2    H59   S    
C15   C20   A    
C42   H14   S    
C12   N9    A    
N8    Ni4   S    
C2    C4    A    
C41   C56   A    
C4    H2    S    
C30   H19   S    
C60   N5    A    
C70   H46   S    
N7    Ni3   S    
C74   H51   S    
N10   Ni2   S    
C41   H26   S    
N1    Ni1   S    
C44   C69   S    
C3    C76   A    
C9    C11   A    
N4    N15   A    
C54   N15   A    
N5    N10   A    
N9    Ni2   S    
C28   H23   S    
C8    C10   A    
N16   Ni2   S    
C16   H16   S    
C16   C23   A    
C53   N14   A    
C30   C43   A    
C17   H17   S    
C17   C34   A    
C61   H35   S    
C1    C64   A    
C59   C75   A    
C1    N1    A    
N2    Ni1   S    
C72   H55   S    
C7    H3    S    
C44   C50   A    
C48   C56   S    
C73   H54   S    
C76   H58   S    
C71   H42   S    
C17   N11   A    
N6    N11   A    
N12   N16   A    
C72   C73   S    
C3    C5    A    
C10   C13   A    
C6    C8    A    
N5    Ni4   S    
C38   C42   A    
C15   H8    S    
C52   H38   S    
C6    C20   S    
C12   C65   A    
N3    N14   A    
C59   H32   S    
C71   H43   S    
C36   C38   A    
C28   C65   S    
C33   C50   S    
C29   C31   A    
C30   C32   A    
C28   C52   D    
C72   H57   S    
C74   H50   S    
C59   N4    A    
C53   H27   S    
C26   H9    S    
C25   H10   S    
C13   H56   S    
C57   N2    A    
C18   C20   A    
C69   C70   S    
C53   C67   A    
C24   H11   S    
C24   C34   S    
C27   C64   S    
C51   H39   S    
C54   C75   A    
C63   H37   S    
C7    C9    A    
C58   C67   A    
C5    C21   S    
C45   C55   A    
C37   C39   A    
C9    H5    S    
C8    H4    S    
C22   C23   S    
C66   O1    D    
N4    Ni2   S    
C19   C21   A    
