data_mof_unit_43674.cif
_audit_creation_date              2012-12-11T15:55:45-0500
_audit_creation_method            fapswitch 2.2
_symmetry_space_group_name_H-M    P1
_symmetry_Int_Tables_number       1
_space_group_crystal_system       triclinic
_cell_length_a                    11.089415
_cell_length_b                    11.034054
_cell_length_c                    18.703735
_cell_angle_alpha                 90.66826
_cell_angle_beta                  91.388843
_cell_angle_gamma                 59.19383
_cell_volume                      1965.12110438

loop_
_atom_site_label
_atom_site_type_symbol
_atom_type_description
_atom_site_fract_x
_atom_site_fract_y
_atom_site_fract_z
_atom_type_partial_charge
C1    C     C_R   0.361580 0.762081 0.394503 0.542641
C2    C     C_R   0.639669 0.119097 0.171086 0.030079
C3    C     C_R   0.372427 0.331583 0.159143 0.007988
C4    C     C_R   0.482123 0.239682 0.273535 -0.151904
C5    C     C_R   0.494259 0.230678 0.199259 -0.021398
C6    C     C_R   0.055583 0.633835 0.352106 -0.088463
C7    C     C_R   0.919418 0.702861 0.377693 -0.118781
C8    C     C_R   0.668731 0.005996 0.123075 -0.078238
C9    C     C_R   0.805338 0.901595 0.106398 -0.135306
C10   C     C_R   0.261109 0.446344 0.194057 -0.162599
C11   C     C_R   0.244508 0.447951 0.268044 -0.042568
C12   C     C_R   0.384126 0.354630 0.387029 0.547885
C13   C     C_R   0.815509 0.693300 0.340219 -0.082150
C14   C     C_R   0.845405 0.625115 0.274622 -0.098818
C15   C     C_R   0.984228 0.544253 0.252917 -0.105067
C16   C     C_R   0.095255 0.540065 0.293683 0.003655
C17   C     C_R   0.361835 0.344086 0.309331 -0.000579
C18   C     C_R   0.864961 0.331865 0.183316 0.022283
C19   C     C_R   0.959641 0.237954 0.234120 0.013121
C20   C     C_R   0.929074 0.250398 0.304966 -0.010901
C21   C     C_R   0.695994 0.441167 0.276903 -0.156603
C22   C     C_R   0.727203 0.427449 0.203812 -0.182308
C23   C     C_R   0.772489 0.380938 0.402220 0.551767
C24   C     C_3   0.111333 0.180250 0.248857 -0.277202
C25   C     C_3   0.076503 0.198372 0.328137 -0.291583
C26   C     C_R   0.802915 0.360075 0.327971 0.039381
C27   C     C_R   0.372604 0.814132 0.170328 0.006291
C28   C     C_R   0.456603 0.840201 0.218139 -0.011047
C29   C     C_R   0.447111 0.829564 0.291418 0.007216
C30   C     C_R   0.302155 0.730470 0.270634 -0.166936
C31   C     C_R   0.311727 0.740212 0.197097 -0.158879
C32   C     C_3   0.470526 0.965851 0.229411 -0.277502
C33   C     C_3   0.450122 0.959737 0.308239 -0.284022
C34   C     C_R   0.346339 0.766961 0.604986 0.541139
C35   C     C_R   0.359804 0.787165 0.318610 0.007031
C36   C     C_R   0.325101 0.326736 0.818480 0.013559
C37   C     C_R   0.388499 0.214838 0.770708 0.035693
C38   C     C_R   0.414905 0.232970 0.702757 0.027255
C39   C     C_R   0.336181 0.476171 0.728186 -0.171018
C40   C     C_R   0.309392 0.456703 0.799226 -0.171698
C41   C     C_3   0.356334 0.103465 0.750668 -0.264577
C42   C     C_3   0.382192 0.125844 0.673927 -0.258990
C43   C     C_R   0.379578 0.365272 0.678277 0.012092
C44   C     C_R   0.919384 0.283705 0.821613 0.035375
C45   C     C_R   0.407714 0.378805 0.604919 0.561506
C46   C     C_R   0.970851 0.344310 0.775075 -0.006207
C47   C     C_R   0.931558 0.363082 0.703772 0.013547
C48   C     C_R   0.804724 0.241991 0.720568 -0.161967
C49   C     C_R   0.841337 0.226308 0.793140 -0.140329
C50   C     C_3   0.965493 0.482745 0.778140 -0.257742
C51   C     C_3   0.923099 0.502313 0.699893 -0.265564
C52   C     C_R   0.841204 0.320339 0.676517 0.026738
C53   C     C_R   0.297255 0.837262 0.827138 0.025258
C54   C     C_R   0.179518 0.896432 0.781323 -0.001574
C55   C     C_R   0.193283 0.886793 0.707968 0.005192
C56   C     C_R   0.766514 0.374588 0.609320 0.542347
C57   C     C_R   0.446033 0.760450 0.724180 -0.159919
C58   C     C_R   0.431321 0.768587 0.798212 0.032515
C59   C     C_3   0.063250 0.865074 0.778211 -0.264037
C60   C     C_3   0.073239 0.861718 0.697805 -0.260074
C61   C     C_R   0.326762 0.816745 0.678111 -0.013639
C62   C     C_R   0.910116 0.316323 0.110988 0.560231
C63   C     C_R   0.332784 0.295625 0.090418 0.540173
C64   C     C_R   0.311020 0.895275 0.104356 0.540413
C65   C     C_R   0.948060 0.280307 0.897637 0.578881
C66   C     C_R   0.299082 0.292258 0.888212 0.538388
C67   C     C_R   0.918700 0.898022 0.141076 -0.074650
C68   C     C_R   0.275331 0.891837 0.899112 0.561677
C69   C     C_R   0.895442 0.998451 0.192750 -0.079132
C70   C     C_R   0.758619 0.108193 0.206570 -0.103983
Cr1   Cr    Cr6+3 0.601740 0.606840 0.505840 0.995812
Cr2   Cr    Cr6+3 0.291500 0.601560 0.495070 0.983727
Cr3   Cr    Cr6+3 0.606780 0.291630 0.499130 1.001155
Cr4   Cr    Cr6+3 0.062440 0.063060 0.008240 1.021714
Cr5   Cr    Cr6+3 0.062950 0.375000 0.998920 1.008590
Cr6   Cr    Cr6+3 0.374550 0.061770 0.992470 1.021500
H1    H     H_    0.571179 0.160177 0.304224 0.144955
H2    H     H_    0.712173 0.740138 0.361584 0.138749
H3    H     H_    0.761060 0.633689 0.241182 0.133030
H4    H     H_    0.004062 0.486175 0.203584 0.140262
H5    H     H_    0.591629 0.518190 0.293828 0.137938
H6    H     H_    0.647518 0.494557 0.164803 0.132575
H7    H     H_    0.150281 0.248179 0.229317 0.138169
H8    H     H_    0.172451 0.068330 0.232337 0.152231
H9    H     H_    0.122079 0.096829 0.357608 0.138348
H10   H     H_    0.090241 0.281345 0.354718 0.155716
H11   H     H_    0.246472 0.682194 0.289614 0.141001
H12   H     H_    0.822927 0.817066 0.070139 0.112544
H13   H     H_    0.256777 0.705565 0.161781 0.125858
H14   H     H_    0.387524 0.061599 0.201642 0.156187
H15   H     H_    0.580519 0.935070 0.221839 0.145431
H16   H     H_    0.540346 0.945069 0.341451 0.130807
H17   H     H_    0.349749 0.047292 0.327568 0.144009
H18   H     H_    0.322798 0.575844 0.712256 0.131950
H19   H     H_    0.274591 0.541285 0.837795 0.126091
H20   H     H_    0.246202 0.133793 0.760857 0.135526
H21   H     H_    0.438290 0.000545 0.772976 0.174658
H22   H     H_    0.475609 0.032502 0.651018 0.150647
H23   H     H_    0.893826 0.767046 0.425471 0.098950
H24   H     H_    0.285634 0.173379 0.639412 0.148698
H25   H     H_    0.735406 0.206183 0.701076 0.134467
H26   H     H_    0.799670 0.178923 0.827607 0.139982
H27   H     H_    0.068188 0.472321 0.786948 0.147049
H28   H     H_    0.884097 0.562153 0.813111 0.191445
H29   H     H_    0.814978 0.592986 0.690592 0.164061
H30   H     H_    0.004450 0.498751 0.664854 0.144614
H31   H     H_    0.550926 0.700565 0.703232 0.158312
H32   H     H_    0.962638 0.951841 0.797999 0.146855
H33   H     H_    0.023756 0.813149 0.130331 0.113356
H34   H     H_    0.093915 0.761044 0.801643 0.132812
H35   H     H_    0.101815 0.757142 0.675194 0.159379
H36   H     H_    0.981103 0.952332 0.671050 0.143655
H37   H     H_    0.983934 0.988662 0.223309 0.127291
H38   H     H_    0.744634 0.180426 0.248963 0.128386
H39   H     H_    0.123612 0.662778 0.376705 0.184312
H40   H     H_    0.592558 0.979359 0.105510 0.172419
H41   H     H_    0.174576 0.526443 0.162045 0.121485
O1    O     O_R   0.748670 0.497520 0.427970 -0.516296
O2    O     O_R   0.300170 0.471020 0.567120 -0.502931
O3    O     O_R   0.491630 0.259030 0.574940 -0.517306
O4    O     O_R   0.718640 0.304340 0.577850 -0.524525
O5    O     O_3   0.500010 0.500010 0.500020 -0.271081
O6    O     O_R   0.186620 0.923750 0.087000 -0.525350
O7    O     O_R   0.957350 0.194160 0.084660 -0.481010
O8    O     O_R   0.935120 0.407280 0.085350 -0.526268
O9    O     O_R   0.203800 0.365060 0.067090 -0.512207
O10   O     O_R   0.417470 0.174910 0.067830 -0.537312
O11   O     O_R   0.375160 0.946380 0.070880 -0.506749
O12   O     O_R   0.476470 0.723930 0.429450 -0.499708
O13   O     O_R   0.160500 0.919670 0.926690 -0.529343
O14   O     O_R   0.933140 0.190380 0.936050 -0.502734
O15   O     O_R   0.909010 0.403210 0.925030 -0.481589
O16   O     O_R   0.179590 0.361290 0.918480 -0.528379
O17   O     O_R   0.391360 0.170840 0.907510 -0.502494
O18   O     O_R   0.350950 0.942600 0.922260 -0.476807
O19   O     O_3   0.166650 0.166610 0.999880 -0.282869
O20   O     O_R   0.264730 0.744140 0.416740 -0.552917
O21   O     O_R   0.309440 0.472410 0.418220 -0.516480
O22   O     O_R   0.501630 0.260530 0.414310 -0.524536
O23   O     O_R   0.727920 0.305730 0.428950 -0.505544
O24   O     O_R   0.738670 0.496020 0.588600 -0.524770
O25   O     O_R   0.467190 0.722540 0.578350 -0.509357
O26   O     O_R   0.254720 0.742640 0.577370 -0.529562
I1    I     I_    0.611499 0.666413 0.865223 -0.401946

loop_
_geom_bond_atom_site_label_1
_geom_bond_atom_site_label_2
_ccdc_geom_bond_type
C44   C49   A    
Cr2   O26   S    
Cr4   O7    S    
C21   C26   A    
C50   H28   S    
C41   C42   S    
C54   C55   A    
Cr1   O5    S    
C19   C20   A    
C23   O1    A    
C62   O7    A    
Cr6   O19   S    
C53   C54   A    
C70   H38   S    
C69   H37   S    
C7    H23   S    
C30   C35   A    
C22   H6    S    
C21   C22   A    
C36   C37   A    
C24   H7    S    
C38   C42   S    
C1    O12   A    
C42   H22   S    
C9    H12   S    
C30   C31   A    
C36   C66   S    
C32   H15   S    
C20   C25   S    
C15   C16   A    
C29   C33   S    
C59   H34   S    
C18   C19   A    
C23   C26   S    
C4    H1    S    
C53   C68   S    
C36   C40   A    
C7    C13   A    
C66   O17   A    
C67   H33   S    
C32   H14   S    
C8    C9    A    
C31   H13   S    
Cr4   O19   S    
C12   C17   S    
Cr1   O24   S    
C45   O2    A    
Cr2   O21   S    
Cr4   O6    S    
C59   C60   S    
Cr3   O3    S    
C13   C14   A    
C44   C65   S    
C65   O14   A    
Cr6   O18   S    
C44   C46   A    
C54   C59   S    
Cr4   O14   S    
C34   O26   A    
C27   C31   A    
C23   O23   A    
C28   C32   S    
C24   C25   S    
C10   C11   A    
C33   H16   S    
C49   H26   S    
Cr6   O17   S    
Cr5   O19   S    
C18   C62   S    
C39   C43   A    
Cr3   O22   S    
C64   O11   A    
C34   C61   S    
C33   H17   S    
Cr5   O8    S    
C9    C67   A    
C39   H18   S    
C37   C38   A    
C60   H36   S    
C42   H24   S    
Cr1   O12   S    
C66   O16   A    
C34   O25   A    
C11   C16   S    
C15   H4    S    
C48   C52   A    
C51   H29   S    
C25   H9    S    
C50   C51   S    
C12   O22   A    
C14   H3    S    
C68   O13   A    
C43   C45   S    
C47   C52   A    
Cr1   O25   S    
C56   O24   A    
C45   O3    A    
Cr2   O20   S    
C57   H31   S    
C21   H5    S    
Cr3   O4    S    
Cr4   O13   S    
Cr6   O11   S    
C41   H21   S    
C2    C5    S    
C4    C17   A    
C40   H19   S    
C39   C40   A    
C65   O15   A    
C1    O20   A    
Cr5   O15   S    
C1    C35   S    
C46   C50   S    
C46   C47   A    
C28   C29   A    
Cr1   O1    S    
Cr2   O5    S    
C18   C22   A    
C68   O18   A    
C2    C8    A    
C4    C5    A    
C3    C5    A    
C11   C17   A    
C62   O8    A    
C47   C51   S    
C53   C58   A    
Cr5   O16   S    
C57   C61   A    
C6    C7    A    
Cr3   O23   S    
C3    C63   S    
C64   O6    A    
C29   C35   A    
C8    H40   S    
C59   H32   S    
C10   H41   S    
Cr5   O9    S    
C32   C33   S    
C19   C24   S    
C24   H8    S    
C38   C43   A    
C60   H35   S    
C2    C70   A    
C56   O4    A    
C57   C58   A    
C20   C26   A    
C51   H30   S    
C48   C49   A    
C48   H25   S    
C55   C61   A    
Cr2   O2    S    
C25   H10   S    
C12   O21   A    
C37   C41   S    
C69   C70   A    
C6    H39   S    
C63   O9    A    
C27   C64   S    
C13   H2    S    
C6    C16   A    
C41   H20   S    
C58   I1    S    
C50   H27   S    
Cr3   O5    S    
C27   C28   A    
C3    C10   A    
Cr6   O10   S    
C14   C15   A    
C67   C69   A    
C30   H11   S    
C55   C60   S    
C63   O10   A    
C52   C56   S    
