data_mof_unit_21630.cif
_audit_creation_date              2012-12-10T17:47:00-0500
_audit_creation_method            fapswitch 2.2
_symmetry_space_group_name_H-M    P1
_symmetry_Int_Tables_number       1
_space_group_crystal_system       triclinic
_cell_length_a                    9.922579
_cell_length_b                    10.724808
_cell_length_c                    13.613754
_cell_angle_alpha                 93.685357
_cell_angle_beta                  83.142784
_cell_angle_gamma                 90.574504
_cell_volume                      1435.40342418

loop_
_atom_site_label
_atom_site_type_symbol
_atom_type_description
_atom_site_fract_x
_atom_site_fract_y
_atom_site_fract_z
_atom_type_partial_charge
C1    C     C_R   0.502484 0.738779 0.489099 0.866561
C2    C     C_1   0.457475 0.505086 0.789456 -0.132784
C3    C     C_R   0.287907 0.859586 0.390336 -0.142241
C4    C     C_R   0.183675 0.920822 0.353686 -0.124795
C5    C     C_R   0.193785 0.047604 0.340987 -0.125331
C6    C     C_R   0.308744 0.112833 0.364844 0.136957
C7    C     C_R   0.401044 0.058114 0.421123 0.067228
C8    C     C_R   0.396910 0.927114 0.427890 0.055829
C9    C     C_R   0.508751 0.868465 0.463203 -0.166815
C10   C     C_R   0.629004 0.937734 0.472234 0.173149
C11   C     C_R   0.622910 0.065125 0.479369 -0.192828
C12   C     C_R   0.475785 0.500747 0.685570 0.909230
C13   C     C_R   0.506070 0.126316 0.462483 -0.153783
C14   C     C_R   0.840174 0.659294 0.637788 -0.271900
C15   C     C_R   0.900426 0.738158 0.706615 0.460151
C16   C     C_R   0.040849 0.737385 0.705222 0.188804
C17   C     C_R   0.120205 0.659523 0.636245 -0.286280
C18   C     C_R   0.062216 0.578247 0.567686 0.126157
C19   C     C_R   0.917795 0.577909 0.568168 0.115240
C20   C     C_R   0.939728 0.424617 0.434958 0.207031
C21   C     C_R   0.082112 0.424989 0.435533 -0.110391
C22   C     C_R   0.501276 0.260008 0.487551 0.929806
C23   C     C_R   0.524466 0.506132 0.314982 0.905454
C24   C     C_1   0.543453 0.517259 0.212089 -0.094017
C25   C     C_2   0.558316 0.530371 0.021254 0.093798
C26   C     C_2   0.441399 0.515078 0.982217 0.422928
C27   C     C_1   0.445677 0.509755 0.877423 -0.066890
C28   C     C_1   0.555380 0.525203 0.124916 0.116105
H1    H     H_    0.733607 0.668916 0.637186 0.211389
H2    H     H_    0.227088 0.665930 0.637868 0.231080
H3    H     H_    0.144314 0.363764 0.383171 0.179809
H4    H     H_    0.283932 0.759394 0.380770 0.189050
H5    H     H_    0.102308 0.867421 0.324901 0.188657
H6    H     H_    0.122791 0.090015 0.298649 0.186933
H7    H     H_    0.711769 0.116413 0.498396 0.208922
N1    N     N_R   0.857120 0.501200 0.500900 -0.117518
N2    N     N_R   0.142720 0.501280 0.500940 -0.120599
O1    O     O_R   0.385310 0.683220 0.500000 -0.655374
O2    O     O_R   0.614640 0.683250 0.500010 -0.606376
O3    O     O_R   0.368830 0.499960 0.640340 -0.618354
O4    O     O_R   0.598160 0.499980 0.640350 -0.618953
O5    O     O_R   0.385360 0.316750 0.499990 -0.602353
O6    O     O_R   0.614690 0.316780 0.500000 -0.599356
O7    O     O_R   0.401840 0.500020 0.359650 -0.604431
O8    O     O_R   0.631170 0.500040 0.359660 -0.581762
Zn1   Zn    Zn3+2 0.346870 0.499980 0.499990 0.964035
Zn2   Zn    Zn3+2 0.653130 0.500020 0.500010 0.998911
O9    O     O_3   0.320157 0.500491 0.042244 -0.728954
H8    H     H_    0.246350 0.489519 0.999222 0.361194
O10   O     O_3   0.824490 0.818708 0.774209 -0.693512
H9    H     H_    0.726989 0.807554 0.766183 0.338343
I1    I     I_    0.137757 0.855842 0.805778 -0.211606
I2    I     I_    0.751070 0.552723 0.937073 -0.271822
I3    I     I_    0.830735 0.869829 0.466016 -0.366193
I4    I     I_    0.379471 0.234249 0.254807 -0.292005
I5    I     I_    0.863391 0.300304 0.327898 -0.275528

loop_
_geom_bond_atom_site_label_1
_geom_bond_atom_site_label_2
_ccdc_geom_bond_type
C12   O3    A    
C23   C24   S    
C12   O4    A    
C23   O8    A    
C21   H3    S    
C9    C10   A    
C22   O6    A    
C26   O9    S    
C6    I4    S    
C20   I5    S    
C2    C27   T    
C2    C12   S    
C5    H6    S    
C11   H7    S    
C17   C18   A    
O4    Zn2   S    
C1    C9    S    
C7    C8    A    
C4    C5    A    
C25   C28   S    
O3    Zn1   S    
C17   H2    S    
C11   C13   A    
C26   C27   S    
C22   O5    A    
C1    O1    A    
C5    C6    A    
O9    H8    S    
C25   C26   D    
C18   N2    A    
C25   I2    S    
C13   C22   S    
O10   H9    S    
C6    C7    A    
C19   N1    A    
O8    Zn2   S    
C3    H4    S    
C10   I3    S    
O1    Zn1   S    
C16   C17   A    
C10   C11   A    
C1    O2    A    
C14   H1    S    
C3    C4    A    
C20   N1    A    
C24   C28   T    
C7    C13   A    
C21   N2    A    
C20   C21   A    
N1    Zn2   S    
O2    Zn2   S    
C3    C8    A    
O5    Zn1   S    
C15   O10   S    
C16   I1    S    
C14   C15   A    
C18   C19   A    
N2    Zn1   S    
C4    H5    S    
O6    Zn2   S    
C14   C19   A    
C23   O7    A    
C15   C16   A    
O7    Zn1   S    
C8    C9    A    
