data_mof_unit_61009.cif
_audit_creation_date              2012-12-10T21:15:14-0500
_audit_creation_method            fapswitch 2.2
_symmetry_space_group_name_H-M    P1
_symmetry_Int_Tables_number       1
_space_group_crystal_system       triclinic
_cell_length_a                    17.541935
_cell_length_b                    16.810201
_cell_length_c                    14.158332
_cell_angle_alpha                 89.999816
_cell_angle_beta                  90.612032
_cell_angle_gamma                 89.999657
_cell_volume                      4174.81963843

loop_
_atom_site_label
_atom_site_type_symbol
_atom_type_description
_atom_site_fract_x
_atom_site_fract_y
_atom_site_fract_z
_atom_type_partial_charge
C1    C     C_R   0.353650 0.500111 0.499828 0.982236
C2    C     C_R   0.547256 0.251850 0.560622 0.458775
C3    C     C_R   0.542654 0.747985 0.565717 0.473210
C4    C     C_R   0.452741 0.251853 0.439379 0.458752
C5    C     C_R   0.499998 0.875619 0.500000 -0.211059
C6    C     C_R   0.499997 0.124206 0.499999 -0.210779
C7    C     C_1   0.499997 0.963471 0.499999 0.253962
C8    C     C_1   0.499997 0.036353 0.499999 0.252681
C9    C     C_R   0.499875 0.499996 0.328853 0.933018
C10   C     C_R   0.500124 0.499996 0.671147 0.932966
C11   C     C_1   0.499864 0.499952 0.227517 -0.125639
C12   C     C_R   0.646351 0.500110 0.500168 0.982108
C13   C     C_1   0.500135 0.499951 0.772483 -0.125690
C14   C     C_1   0.499883 0.499827 0.142356 0.036600
C15   C     C_1   0.500116 0.499827 0.857644 0.036585
C16   C     C_1   0.499958 0.499723 0.042585 0.056673
C17   C     C_1   0.500040 0.499723 0.957414 0.056672
C18   C     C_R   0.845638 0.539604 0.424858 -0.164390
C19   C     C_R   0.151504 0.470383 0.424362 -0.165127
C20   C     C_R   0.154335 0.539514 0.575073 -0.164367
C21   C     C_R   0.848534 0.470262 0.575436 -0.165156
C22   C     C_R   0.766567 0.537476 0.424204 0.315780
C23   C     C_1   0.966173 0.507297 0.499968 0.027422
C24   C     C_R   0.230533 0.467795 0.424141 0.347029
C25   C     C_R   0.233405 0.537378 0.575781 0.315789
C26   C     C_R   0.769505 0.467685 0.575712 0.347095
C27   C     C_R   0.728433 0.500956 0.499609 -0.245741
C28   C     C_R   0.271570 0.500956 0.500337 -0.245652
C29   C     C_R   0.885914 0.506004 0.500211 -0.010118
C30   C     C_R   0.114091 0.506024 0.499628 -0.010134
C31   C     C_3   0.337242 0.708937 0.392531 -0.128808
C32   C     C_3   0.563595 0.288717 0.714048 -0.081427
C33   C     C_3   0.662760 0.708941 0.607460 -0.128828
C34   C     C_1   0.033831 0.507304 0.499835 0.027423
C35   C     C_3   0.436394 0.288722 0.285954 -0.081467
C36   C     C_R   0.459911 0.832471 0.430220 0.204943
C37   C     C_R   0.551280 0.167367 0.557359 0.196435
C38   C     C_R   0.540086 0.832471 0.569779 0.204941
C39   C     C_R   0.448715 0.167370 0.442641 0.196438
C40   C     C_R   0.457346 0.747985 0.434282 0.473220
Cl1   Cl    Cl    0.717188 0.579187 0.327035 -0.584311
Cl2   Cl    Cl    0.276104 0.426424 0.325409 -0.561484
Cl3   Cl    Cl    0.282749 0.578953 0.673059 -0.584308
Cl4   Cl    Cl    0.723984 0.426195 0.674412 -0.561242
Cl5   Cl    Cl    0.414548 0.883534 0.336253 -0.474045
Cl6   Cl    Cl    0.621885 0.116351 0.623393 -0.471022
Cl7   Cl    Cl    0.585449 0.883534 0.663745 -0.474049
Cl8   Cl    Cl    0.378108 0.116357 0.376609 -0.471065
H1    H     H_    0.875601 0.567037 0.366732 0.192258
H2    H     H_    0.589808 0.336007 0.758298 0.199097
H3    H     H_    0.689433 0.764285 0.634716 0.204407
H4    H     H_    0.672598 0.704055 0.529974 0.151982
H5    H     H_    0.692587 0.658221 0.641772 0.180545
H6    H     H_    0.421854 0.230952 0.252540 0.193819
H7    H     H_    0.499333 0.297839 0.284591 0.109488
H8    H     H_    0.410181 0.336013 0.241705 0.199155
H9    H     H_    0.119333 0.445108 0.365838 0.193491
H10   H     H_    0.124347 0.566866 0.633233 0.192254
H11   H     H_    0.880730 0.444906 0.633892 0.193490
H12   H     H_    0.310567 0.764277 0.365265 0.204405
H13   H     H_    0.327400 0.704058 0.470016 0.151875
H14   H     H_    0.307420 0.658213 0.358224 0.180595
H15   H     H_    0.578130 0.230947 0.747464 0.193814
H16   H     H_    0.500656 0.297839 0.715406 0.109487
N1    N     N_R   0.500000 0.707230 0.500000 -0.197585
N2    N     N_R   0.500000 0.292770 0.500000 -0.206798
O1    O     O_R   0.389110 0.566570 0.500000 -0.600476
O2    O     O_3   0.593690 0.294048 0.621996 -0.509815
O3    O     O_3   0.584821 0.705525 0.631482 -0.546410
O4    O     O_3   0.406305 0.294054 0.378009 -0.509879
O5    O     O_R   0.610890 0.433430 0.500000 -0.548630
O6    O     O_R   0.610890 0.566570 0.500000 -0.600407
O7    O     O_R   0.389110 0.433430 0.500000 -0.548630
O8    O     O_R   0.500000 0.566560 0.373710 -0.537908
O9    O     O_R   0.500000 0.433440 0.626290 -0.604698
O10   O     O_R   0.500000 0.566560 0.626290 -0.537959
O11   O     O_R   0.500000 0.433440 0.373710 -0.604711
O12   O     O_3   0.415182 0.705523 0.368515 -0.546380
Zn1   Zn    Zn3+2 0.500000 0.588860 0.500000 1.072183
Zn2   Zn    Zn3+2 0.500000 0.411140 0.500000 1.053097

loop_
_geom_bond_atom_site_label_1
_geom_bond_atom_site_label_2
_ccdc_geom_bond_type
C21   C26   A    
N1    Zn1   S    
C24   Cl2   S    
C31   H13   S    
O10   Zn1   S    
C25   Cl3   S    
C4    O4    S    
C26   Cl4   S    
C7    C8    T    
C20   C30   A    
C19   H9    S    
C33   H4    S    
C26   C27   A    
C23   C29   S    
C3    O3    S    
C21   H11   S    
O6    Zn1   S    
C2    O2    S    
C40   N1    A    
C11   C14   T    
C22   Cl1   S    
C20   C25   A    
C5    C36   A    
C10   O10   A    
C3    C38   A    
C16   C17   T    
C1    C28   S    
O9    Zn2   S    
C33   O3    S    
C32   O2    S    
C12   O6    A    
C5    C38   A    
C35   H6    S    
C31   H14   S    
C3    N1    A    
O5    Zn2   S    
C33   H5    S    
C30   C34   S    
C12   C27   S    
C35   H7    S    
C36   C40   A    
O1    Zn1   S    
C32   H16   S    
C5    C7    S    
C6    C8    S    
C21   C29   A    
C25   C28   A    
C31   H12   S    
C10   O9    A    
C4    C39   A    
C23   C34   T    
C6    C37   A    
C36   Cl5   S    
C18   C29   A    
C9    O11   A    
C9    C11   S    
C32   H2    S    
C38   Cl7   S    
C35   O4    S    
C12   O5    A    
C22   C27   A    
C13   C15   T    
C40   O12   S    
C9    O8    A    
C20   H10   S    
C31   O12   S    
O11   Zn2   S    
C15   C17   S    
C35   H8    S    
C18   C22   A    
C24   C28   A    
C32   H15   S    
C2    N2    A    
C10   C13   S    
C33   H3    S    
N2    Zn2   S    
O8    Zn1   S    
C1    O7    A    
C19   C24   A    
C4    N2    A    
C2    C37   A    
C1    O1    A    
O7    Zn2   S    
C14   C16   S    
C6    C39   A    
C37   Cl6   S    
C19   C30   A    
C18   H1    S    
C39   Cl8   S    
