data_mof_unit_34820.cif
_audit_creation_date              2013-03-05T15:45:12-0500
_audit_creation_method            fapswitch 2.2
_symmetry_space_group_name_H-M    P1
_symmetry_Int_Tables_number       1
_space_group_crystal_system       triclinic
_cell_length_a                    11.550418
_cell_length_b                    11.47845
_cell_length_c                    19.53917
_cell_angle_alpha                 90.259063
_cell_angle_beta                  89.667667
_cell_angle_gamma                 60.172182
_cell_volume                      2247.2192925

loop_
_atom_site_label
_atom_site_type_symbol
_atom_site_description
_atom_site_fract_x
_atom_site_fract_y
_atom_site_fract_z
_atom_type_partial_charge
O1    O     O_R   0.267740 0.231990 0.575440 -0.500797
O2    O     O_R   0.527280 0.186680 0.570530 -0.493341
C1    C     C_R   0.640126 0.117583 0.599257 0.549126
O3    O     O_R   0.728090 0.003480 0.576380 -0.500815
O4    O     O_R   0.682970 0.789220 0.570490 -0.493373
C2    C     C_R   0.612071 0.745932 0.598592 0.543991
O5    O     O_R   0.499290 0.771920 0.575530 -0.506332
O6    O     O_R   0.285330 0.030900 0.569730 -0.486768
C3    C     C_R   0.240188 0.145474 0.598071 0.557002
O7    O     O_R   0.270980 0.227040 0.423900 -0.520952
O8    O     O_R   0.530280 0.182090 0.430050 -0.528695
C4    C     C_R   0.645729 0.111828 0.402497 0.536229
O9    O     O_R   0.731330 0.998530 0.424830 -0.513295
O10   O     O_R   0.685970 0.784630 0.430010 -0.505674
C5    C     C_R   0.619757 0.731916 0.404357 0.537178
O11   O     O_R   0.502530 0.766960 0.423990 -0.530546
O12   O     O_R   0.288330 0.026310 0.429250 -0.503373
C6    C     C_R   0.300502 0.116467 0.393584 0.556192
Cr1   Cr    Cr6+3 0.404720 0.198220 0.499960 1.013338
Cr2   Cr    Cr6+3 0.698290 0.897110 0.500380 1.019474
Cr3   Cr    Cr6+3 0.396970 0.904720 0.499610 1.020102
O13   O     O_3   0.499990 0.000020 0.499980 -0.266501
C7    C     C_1   0.671196 0.646876 0.860116 0.009198
C8    C     C_1   0.654351 0.683605 0.728361 -0.030336
C9    C     C_1   0.663874 0.666884 0.799627 -0.029372
C10   C     C_1   0.640362 0.703714 0.667931 0.005244
C11   C     C_1   0.127308 0.198814 0.859353 0.006439
C12   C     C_1   0.171185 0.170020 0.727711 -0.030490
C13   C     C_1   0.150425 0.182161 0.798960 -0.029164
C14   C     C_1   0.194611 0.160691 0.667312 0.002524
C15   C     C_1   0.679246 0.190918 0.860780 0.007861
C16   C     C_1   0.658214 0.167527 0.729034 -0.029701
C17   C     C_1   0.665997 0.180746 0.800361 -0.028972
C18   C     C_1   0.652312 0.150215 0.668630 0.003673
C19   C     C_R   0.553115 0.662352 0.299771 -0.000994
C20   C     C_R   0.545041 0.692328 0.230541 -0.002892
C21   C     C_R   0.663497 0.663986 0.195667 0.037364
C22   C     C_R   0.777890 0.636351 0.233001 -0.090074
H1    H     H_    0.871680 0.606897 0.206960 0.182501
C23   C     C_R   0.774990 0.639125 0.304178 -0.043521
C24   C     C_R   0.657461 0.661962 0.338106 0.028852
C25   C     C_R   0.262562 0.236795 0.280995 -0.022116
C26   C     C_R   0.218048 0.253835 0.214327 -0.116337
H2    H     H_    0.223330 0.328920 0.183058 0.143410
C27   C     C_R   0.154809 0.186314 0.189545 0.026097
C28   C     C_R   0.147661 0.087765 0.230486 -0.044050
C29   C     C_R   0.204753 0.060885 0.295100 -0.127279
H3    H     H_    0.199635 0.985792 0.326320 0.130052
C30   C     C_R   0.257582 0.137100 0.322087 0.031228
C31   C     C_R   0.704861 0.034714 0.284484 -0.118745
H4    H     H_    0.730141 0.934640 0.300681 0.155531
C32   C     C_R   0.706785 0.059146 0.215164 0.197037
C33   C     C_R   0.669845 0.189923 0.194001 0.009159
C34   C     C_R   0.628840 0.294543 0.242252 -0.190124
H5    H     H_    0.605437 0.394265 0.226610 0.144909
C35   C     C_R   0.627320 0.268862 0.311506 -0.176996
H6    H     H_    0.596252 0.349081 0.348704 0.122801
C36   C     C_R   0.664969 0.139177 0.332522 -0.016989
O14   O     O_R   0.821500 0.119550 0.952820 -0.489285
O15   O     O_R   0.037130 0.162750 0.957360 -0.496550
C37   C     C_R   0.082424 0.231042 0.928666 0.547260
O16   O     O_R   0.056440 0.344950 0.951330 -0.501600
O17   O     O_R   0.797900 0.560570 0.957460 -0.485017
C38   C     C_R   0.684124 0.604917 0.929531 0.554188
O18   O     O_R   0.596140 0.579600 0.952720 -0.505097
O19   O     O_R   0.639070 0.321380 0.958660 -0.493673
C39   C     C_R   0.708739 0.206687 0.930087 0.561807
O20   O     O_R   0.821240 0.124490 0.104360 -0.479596
O21   O     O_R   0.036900 0.167320 0.097830 -0.515153
C40   C     C_R   0.082330 0.235328 0.125595 0.539452
O22   O     O_R   0.056190 0.349890 0.102870 -0.521423
O23   O     O_R   0.797670 0.565150 0.097930 -0.484549
C41   C     C_R   0.682076 0.613508 0.125632 0.564109
O24   O     O_R   0.595880 0.584540 0.104260 -0.531385
O25   O     O_R   0.638830 0.325960 0.099140 -0.511338
C42   C     C_R   0.707014 0.211340 0.126386 0.583210
Cr4   Cr    Cr6+3 0.926180 0.152240 0.028110 1.054739
Cr5   Cr    Cr6+3 0.921340 0.452070 0.027460 1.065754
Cr6   Cr    Cr6+3 0.626260 0.447120 0.028700 1.031435
O26   O     O_3   0.824590 0.350480 0.028090 -0.270197
C43   C     C_3   0.448709 0.634728 0.331535 -0.372555
H7    H     H_    0.427826 0.570489 0.297030 0.106467
H8    H     H_    0.484196 0.579280 0.380316 0.143924
H9    H     H_    0.353958 0.730005 0.340863 0.148035
N1    N     N_R   0.750332 0.950138 0.167093 0.080289
O27   O     O_R   0.686134 0.965567 0.110292 -0.335276
O28   O     O_R   0.857059 0.836024 0.179164 -0.381453
C44   C     C_3   0.412559 0.746102 0.194519 -0.362494
H10   H     H_    0.330991 0.816126 0.228720 0.123514
H11   H     H_    0.408571 0.803887 0.148271 0.159200
H12   H     H_    0.393901 0.662976 0.180641 0.149277
C45   C     C_3   0.900794 0.608151 0.341487 -0.373678
H13   H     H_    0.897162 0.582777 0.395889 0.149328
H14   H     H_    0.987199 0.519187 0.317603 0.127087
H15   H     H_    0.917578 0.695184 0.338365 0.154890
C46   C     C_3   0.304691 0.333913 0.306658 -0.377726
H16   H     H_    0.318072 0.391465 0.264771 0.111736
H17   H     H_    0.228874 0.407619 0.342743 0.150899
H18   H     H_    0.400391 0.278204 0.332153 0.177852
C47   C     C_3   0.071995 0.017129 0.210381 -0.349098
H19   H     H_    0.112690 0.959743 0.161947 0.164874
H20   H     H_    0.078706 0.944228 0.249579 0.115241
H21   H     H_    0.964915 0.092465 0.205559 0.174677

loop_
_geom_bond_atom_site_label_1
_geom_bond_atom_site_label_2
_geom_bond_distance
_ccdc_geom_bond_type
O11   Cr3   2.051879 S    
O18   Cr6   2.034101 S    
C11   C13   1.201596 T    
C41   O24   1.268473 A    
O21   Cr4   1.938947 S    
C19   C20   1.389471 A    
C26   H2    1.084645 S    
O14   Cr4   2.057630 S    
C43   H7    1.109391 S    
C19   C43   1.521016 S    
C29   C30   1.395114 A    
O4    Cr2   1.916271 S    
C2    C10   1.425029 S    
N1    O27   1.301406 A    
C20   C44   1.514856 S    
C15   C39   1.430793 S    
O19   Cr6   1.935255 S    
O8    Cr1   1.926419 S    
C25   C46   1.506102 S    
C12   C13   1.405739 S    
C8    C10   1.200478 T    
C22   H1    1.083734 S    
Cr5   O26   1.976118 S    
C5    O11   1.262177 A    
C46   H18   1.088582 S    
C35   H6    1.080337 S    
C45   H13   1.109476 S    
O23   Cr5   1.933316 S    
C11   C37   1.426993 S    
O14   C39   1.268408 A    
C28   C29   1.390964 A    
O6    C3    1.271217 A    
C46   H17   1.109144 S    
C31   C32   1.386724 A    
C15   C17   1.203872 T    
C40   O22   1.276476 A    
C4    C36   1.444684 S    
O19   C39   1.275411 A    
C27   C40   1.458982 S    
Cr3   O13   1.976735 S    
C37   O16   1.264342 A    
C47   H20   1.111203 S    
C43   H8    1.109987 S    
C31   H4    1.084258 S    
N1    O28   1.300326 A    
C34   C35   1.388059 A    
O15   Cr4   1.924219 S    
O1    Cr1   2.046041 S    
C31   C36   1.402237 A    
O10   Cr2   1.935642 S    
Cr1   O13   1.973891 S    
O1    C3    1.264806 A    
C8    C9    1.403959 S    
C5    C24   1.465017 S    
C1    C18   1.430921 S    
O5    Cr3   2.041940 S    
C47   H21   1.106574 S    
O12   Cr3   1.925529 S    
Cr6   O26   1.987474 S    
O15   C37   1.269274 A    
C16   C18   1.203904 T    
O25   C42   1.270852 A    
C21   C22   1.405306 A    
C29   H3    1.083324 S    
C44   H12   1.110524 S    
O7    Cr1   2.055981 S    
C46   H16   1.111355 S    
C45   H14   1.110429 S    
O12   C6    1.313960 A    
C23   C45   1.506651 S    
C26   C27   1.390178 A    
C3    C14   1.426932 S    
C23   C24   1.408898 A    
C44   H11   1.110916 S    
O24   Cr6   2.052618 S    
C33   C42   1.446209 S    
C25   C26   1.381844 A    
C45   H15   1.110129 S    
C1    O3    1.270100 A    
C43   H9    1.110055 S    
C32   C33   1.406027 A    
Cr4   O26   1.974481 S    
O20   Cr4   2.039058 S    
C28   C47   1.510478 S    
C34   H5    1.083069 S    
C32   N1    1.434786 S    
O9    Cr2   2.032474 S    
O2    Cr1   1.939223 S    
O16   Cr5   2.051200 S    
Cr2   O13   1.987551 S    
O23   C41   1.278821 A    
O6    Cr3   1.934244 S    
O8    C4    1.279194 A    
C33   C34   1.405011 A    
C2    O5    1.269037 A    
O20   C42   1.265241 A    
C21   C41   1.456058 S    
C38   O18   1.269705 A    
C12   C14   1.201575 T    
O2    C1    1.275593 A    
C7    C38   1.424975 S    
C16   C17   1.409452 S    
C22   C23   1.390784 A    
O4    C2    1.273194 A    
O7    C6    1.279979 A    
C47   H19   1.109788 S    
C35   C36   1.391849 A    
C7    C9    1.200459 T    
O21   C40   1.259371 A    
C19   C24   1.420859 A    
C25   C30   1.425039 A    
O17   C38   1.276440 A    
O3    Cr2   2.054746 S    
C27   C28   1.423601 A    
C44   H10   1.102174 S    
C20   C21   1.409451 A    
O10   C5    1.290088 A    
C4    O9    1.261060 A    
O25   Cr6   1.915275 S    
O22   Cr5   2.048814 S    
C6    C30   1.465489 S    
O17   Cr5   1.930342 S    
