data_mof_unit_52462.cif
_audit_creation_date              2012-12-10T18:46:20-0500
_audit_creation_method            fapswitch 2.2
_symmetry_space_group_name_H-M    P1
_symmetry_Int_Tables_number       1
_space_group_crystal_system       triclinic
_cell_length_a                    9.934114
_cell_length_b                    10.662988
_cell_length_c                    13.001282
_cell_angle_alpha                 90.892368
_cell_angle_beta                  71.814642
_cell_angle_gamma                 90.803407
_cell_volume                      1308.18350253

loop_
_atom_site_label
_atom_site_type_symbol
_atom_type_description
_atom_site_fract_x
_atom_site_fract_y
_atom_site_fract_z
_atom_type_partial_charge
C1    C     C_R   0.499859 0.739698 0.501939 0.963078
C2    C     C_R   0.383827 0.424758 0.810159 -0.209061
C3    C     C_R   0.624579 0.935327 0.447024 -0.345991
C4    C     C_R   0.424279 0.477843 0.700631 0.947394
C5    C     C_R   0.624704 0.063796 0.443682 0.675065
C6    C     C_R   0.499883 0.127779 0.497471 -0.240736
C7    C     C_R   0.375469 0.064785 0.553888 -0.347477
C8    C     C_R   0.375313 0.936275 0.557143 0.665680
C9    C     C_R   0.500075 0.872277 0.503167 -0.264293
C10   C     C_R   0.947265 0.409260 0.446119 -0.008388
C11   C     C_R   0.090293 0.407779 0.446128 0.198756
C12   C     C_R   0.449298 0.394274 0.972280 -0.012282
C13   C     C_R   0.052711 0.590677 0.553944 -0.103462
C14   C     C_R   0.909296 0.591502 0.554827 0.214860
C15   C     C_R   0.500109 0.260296 0.498192 0.957598
C16   C     C_R   0.577629 0.499418 0.295728 0.945852
C17   C     C_R   0.801631 0.476418 0.002948 0.630653
C18   C     C_R   0.622721 0.483577 0.178273 -0.309361
C19   C     C_R   0.240701 0.407800 0.869327 -0.241882
C20   C     C_R   0.202397 0.374845 0.978071 0.776785
C21   C     C_R   0.304612 0.374119 0.030929 -0.246806
C22   C     C_3   0.179037 0.299278 0.389612 -0.785250
C23   C     C_R   0.488250 0.395122 0.859158 -0.087174
C24   C     C_3   0.818913 0.697317 0.615114 -0.760038
C25   C     C_3   0.890411 0.367884 0.777838 -0.707146
C26   C     C_R   0.556145 0.419375 0.020740 0.018177
C27   C     C_R   0.700829 0.428862 0.955595 -0.185213
C28   C     C_R   0.738415 0.389467 0.845928 0.070811
C29   C     C_R   0.630060 0.367496 0.800093 0.633034
C30   C     C_R   0.520509 0.447215 0.130802 -0.303223
C31   C     C_R   0.763280 0.500994 0.113810 0.615497
F1    F     F_    0.862860 0.545080 0.157181 -0.589725
F2    F     F_    0.744870 0.125048 0.386274 -0.653500
F3    F     F_    0.255149 0.874984 0.614486 -0.658561
F4    F     F_    0.934473 0.508642 0.942185 -0.644933
F5    F     F_    0.065444 0.348904 0.034058 -0.615325
F6    F     F_    0.661030 0.311211 0.701038 -0.657708
H1    H     H_    0.279858 0.115036 0.596920 0.199927
H2    H     H_    0.130632 0.249966 0.333733 0.224319
H3    H     H_    0.715605 0.662977 0.667856 0.257971
H4    H     H_    0.869696 0.747516 0.669056 0.220815
H5    H     H_    0.805735 0.767178 0.556941 0.251993
H6    H     H_    0.899296 0.321508 0.699038 0.252758
H7    H     H_    0.947845 0.458801 0.759434 0.254773
H8    H     H_    0.942889 0.306292 0.821562 0.252211
H9    H     H_    0.907393 0.336704 0.403883 0.204600
H10   H     H_    0.092460 0.662869 0.596596 0.210511
H11   H     H_    0.411657 0.444254 0.180889 0.200731
H12   H     H_    0.159826 0.418864 0.830846 0.218617
H13   H     H_    0.268382 0.354231 0.116382 0.160728
H14   H     H_    0.720260 0.885132 0.404080 0.212330
H15   H     H_    0.285278 0.330326 0.339851 0.256669
H16   H     H_    0.186204 0.229994 0.450294 0.250920
N1    N     N_R   0.142790 0.500030 0.500030 -0.104195
N2    N     N_R   0.857180 0.499940 0.500010 -0.087767
O1    O     O_R   0.385370 0.683250 0.500010 -0.565247
O2    O     O_R   0.614700 0.683220 0.500010 -0.638850
O3    O     O_R   0.328400 0.499990 0.653620 -0.615347
O4    O     O_R   0.557730 0.499960 0.653620 -0.592404
O5    O     O_R   0.385300 0.316780 0.499990 -0.657955
O6    O     O_R   0.614630 0.316750 0.499990 -0.525392
O7    O     O_R   0.442270 0.500040 0.346380 -0.638813
O8    O     O_R   0.671600 0.500010 0.346380 -0.550816
Zn1   Zn    Zn3+2 0.346870 0.500020 0.500000 0.969901
Zn2   Zn    Zn3+2 0.653130 0.499980 0.500000 1.041314

loop_
_geom_bond_atom_site_label_1
_geom_bond_atom_site_label_2
_ccdc_geom_bond_type
C10   H9    S    
C2    C4    S    
O1    Zn1   S    
C6    C7    A    
C3    C9    A    
C16   O8    A    
C1    O2    A    
C24   H5    S    
C15   O5    A    
C19   H12   S    
C11   C22   S    
C31   F1    S    
C17   C27   A    
O5    Zn1   S    
O2    Zn2   S    
C25   H6    S    
O8    Zn2   S    
C14   N2    A    
C15   O6    A    
C7    C8    A    
C8    F3    S    
C13   C14   A    
O4    Zn2   S    
C25   C28   S    
C10   N2    A    
C12   C23   A    
C26   C27   A    
C11   N1    A    
C24   H4    S    
C18   C30   A    
C22   H2    S    
C23   C29   A    
C4    O4    A    
C30   H11   S    
C28   C29   A    
N2    Zn2   S    
C7    H1    S    
N1    Zn1   S    
C26   C30   A    
C22   H16   S    
O6    Zn2   S    
O3    Zn1   S    
C5    C6    A    
C17   C31   A    
C10   C11   A    
C22   H15   S    
C4    O3    A    
C14   C24   S    
C20   F5    S    
C25   H8    S    
C27   C28   A    
C1    C9    S    
C20   C21   A    
C25   H7    S    
C16   C18   S    
C13   N1    A    
C16   O7    A    
C29   F6    S    
C2    C23   A    
C13   H10   S    
C3    H14   S    
C21   H13   S    
O7    Zn1   S    
C18   C31   A    
C17   F4    S    
C24   H3    S    
C6    C15   S    
C2    C19   A    
C12   C21   A    
C1    O1    A    
C19   C20   A    
C12   C26   A    
C8    C9    A    
C3    C5    A    
C5    F2    S    
