data_mof_unit_61798.cif
_audit_creation_date              2012-10-26T21:16:54-0400
_audit_creation_method            fapswitch 2.2
_symmetry_space_group_name_H-M    P1
_symmetry_Int_Tables_number       1
_space_group_crystal_system       triclinic
_cell_length_a                    14.350064
_cell_length_b                    10.948788
_cell_length_c                    9.687023
_cell_angle_alpha                 89.820045
_cell_angle_beta                  89.996468
_cell_angle_gamma                 90.057105
_cell_volume                      1521.97618477

loop_
_atom_site_label
_atom_site_type_symbol
_atom_type_description
_atom_site_fract_x
_atom_site_fract_y
_atom_site_fract_z
_atom_type_partial_charge
C1    C     C_R   0.503465 0.265380 0.500315 0.554055
C2    C     C_R   0.497262 0.734502 0.499852 0.551519
C3    C     C_R   0.668951 0.500032 0.499961 0.548338
C4    C     C_1   0.228732 0.499881 0.500059 -0.041386
C5    C     C_1   0.143337 0.499864 0.500047 -0.040568
C6    C     C_1   0.042702 0.499862 0.500016 0.001229
C7    C     C_1   0.957306 0.499876 0.499987 0.002183
C8    C     C_1   0.856671 0.499912 0.499956 -0.037318
C9    C     C_1   0.771275 0.499960 0.499943 -0.035795
C10   C     C_2   0.503226 0.933561 0.388659 -0.131379
C11   C     C_2   0.487138 0.865677 0.501127 -0.089738
C12   C     C_2   0.494189 0.066666 0.392256 -0.106645
C13   C     C_2   0.518246 0.134085 0.502573 0.082922
C14   C     C_2   0.448894 0.426369 0.922343 -0.015393
C15   C     C_2   0.450296 0.424706 0.078087 -0.014249
C16   C     C_R   0.331052 0.499914 0.500039 0.541510
Cu1   Cu    Cu3+1 0.500020 0.500020 0.638630 0.934357
Cu2   Cu    Cu3+1 0.499980 0.499980 0.361370 0.932267
H1    H     H_    0.519538 0.891163 0.290354 0.139988
H2    H     H_    0.463805 0.906364 0.597011 0.140894
H3    H     H_    0.467211 0.110371 0.299678 0.114679
H4    H     H_    0.402993 0.362103 0.871121 0.136500
H5    H     H_    0.544150 0.558251 0.893723 0.207694
H6    H     H_    0.407032 0.357336 0.129730 0.134480
H7    H     H_    0.538810 0.564419 0.105817 0.205821
H8    H     H_    0.629825 0.125158 0.630027 0.239566
H9    H     H_    0.526224 0.098882 0.707722 0.231772
N1    N     N_2   0.499070 0.498660 0.846910 -0.338653
N2    N     N_2   0.499040 0.498630 0.153040 -0.338448
N3    N     N_3   0.565543 0.081181 0.619143 -0.638380
O1    O     O_R   0.500010 0.321960 0.617040 -0.495260
O2    O     O_R   0.499990 0.321920 0.382900 -0.502239
O3    O     O_R   0.376070 0.500020 0.617100 -0.474444
O4    O     O_R   0.376040 0.499980 0.382950 -0.473880
O5    O     O_R   0.500010 0.678080 0.617100 -0.487700
O6    O     O_R   0.499990 0.678040 0.382960 -0.492405
O7    O     O_R   0.623960 0.500020 0.617050 -0.474132
O8    O     O_R   0.623930 0.499980 0.382900 -0.471762

loop_
_geom_bond_atom_site_label_1
_geom_bond_atom_site_label_2
_ccdc_geom_bond_type
C2    O5    A    
C4    C16   S    
H8    N3    S    
C6    C7    T    
C3    C9    S    
C16   O3    A    
C10   H1    S    
C16   O4    A    
C14   H4    S    
Cu1   Cu2   S    
Cu2   O8    S    
C7    C8    S    
Cu2   N2    S    
Cu1   O7    S    
H5    N1    S    
H9    N3    S    
Cu2   O4    S    
Cu1   O3    S    
C2    C11   S    
C10   C12   S    
C15   H6    S    
C15   N2    D    
H7    N2    S    
C5    C6    S    
Cu1   O1    S    
C11   H2    S    
C1    C13   S    
C10   C11   D    
C13   N3    S    
C1    O1    A    
Cu2   O2    S    
C12   C13   D    
C3    O7    A    
C2    O6    A    
C14   C15   S    
C8    C9    T    
Cu1   O5    S    
C14   N1    D    
Cu1   N1    S    
Cu2   O6    S    
C12   H3    S    
C1    O2    A    
C3    O8    A    
C4    C5    T    
