data_mof_unit_67001.cif
_audit_creation_date              2012-12-11T17:41:03-0500
_audit_creation_method            fapswitch 2.2
_symmetry_space_group_name_H-M    P1
_symmetry_Int_Tables_number       1
_space_group_crystal_system       triclinic
_cell_length_a                    8.247698
_cell_length_b                    12.637782
_cell_length_c                    14.262676
_cell_angle_alpha                 92.783188
_cell_angle_beta                  90.904945
_cell_angle_gamma                 98.050929
_cell_volume                      1469.86355586

loop_
_atom_site_label
_atom_site_type_symbol
_atom_type_description
_atom_site_fract_x
_atom_site_fract_y
_atom_site_fract_z
_atom_type_partial_charge
Ba1   Ba    Ba6+2 0.855630 0.555280 0.454520 1.683317
Ba2   Ba    Ba6+2 0.334200 0.444810 0.545490 1.728883
C1    C     C_3   0.601750 0.950798 0.180728 -0.378275
C2    C     C_3   0.646366 0.860006 0.237749 0.373845
C3    C     C_3   0.476045 0.315644 0.258265 0.295346
C4    C     C_3   0.454117 0.295696 0.152445 -0.381289
C5    C     C_3   0.048888 0.193145 0.801385 0.344461
C6    C     C_3   0.062918 0.155107 0.900369 -0.378259
C7    C     C_3   0.548158 0.142737 0.766422 0.299387
C8    C     C_3   0.600926 0.055854 0.825297 -0.401821
C9    C     C_R   0.981779 0.449800 0.062232 -0.000612
C10   C     C_R   0.180079 0.502008 0.196529 0.042628
C11   C     C_R   0.334557 0.553298 0.226433 -0.355320
C12   C     C_3   0.140555 0.807530 0.196681 0.344114
C13   C     C_R   0.443712 0.604750 0.164038 -0.001707
C14   C     C_R   0.394599 0.613988 0.070563 0.282239
C15   C     C_R   0.240576 0.561513 0.036599 -0.035479
C16   C     C_R   0.132763 0.503353 0.099216 -0.070572
C17   C     C_R   0.047522 0.507573 0.903318 -0.090387
C18   C     C_R   0.937044 0.453862 0.966644 0.013780
C19   C     C_R   0.007254 0.500217 0.804737 -0.005755
C20   C     C_R   0.859658 0.438718 0.774235 0.091430
C21   C     C_R   0.740960 0.400818 0.838014 0.004322
C22   C     C_R   0.781118 0.405607 0.933778 -0.174633
C23   C     C_3   0.124430 0.847254 0.098419 -0.347637
C24   C     C_R   0.195347 0.563889 0.940448 -0.006468
C25   C     C_R   0.770870 0.173775 0.524554 -0.256609
C26   C     C_R   0.428258 0.812745 0.461834 -0.279728
C27   C     C_R   0.404975 0.994525 0.427086 -0.102085
C28   C     C_R   0.340018 0.887116 0.423554 -0.005629
C29   C     C_R   0.574334 0.845912 0.512794 0.046659
C30   C     C_R   0.639949 0.956383 0.520399 -0.058551
C31   C     C_R   0.554881 0.030816 0.474650 -0.059319
C32   C     C_R   0.621257 0.139978 0.478721 0.026360
C33   C     C_R   0.855886 0.103007 0.569642 0.001295
C34   C     C_3   0.232451 0.761112 0.655365 0.273912
C35   C     C_R   0.788491 0.995091 0.570462 -0.098538
C36   C     C_3   0.285027 0.879237 0.680761 -0.392738
C37   C     C_3   0.966152 0.234407 0.337772 0.275004
C38   C     C_3   0.968366 0.115747 0.316358 -0.341759
C39   C     C_3   0.819250 0.735487 0.732359 0.292738
C40   C     C_3   0.810771 0.727764 0.837895 -0.335058
H1    H     H_    0.735748 0.893265 0.294359 0.058277
H2    H     H_    0.398340 0.888725 0.724855 0.124653
H3    H     H_    0.308964 0.924461 0.616803 0.085265
H4    H     H_    0.187616 0.913082 0.720182 0.151249
H5    H     H_    0.839232 0.248678 0.350168 -0.001504
H6    H     H_    0.044766 0.258719 0.401248 0.069795
H7    H     H_    0.896854 0.089600 0.250927 0.118123
H8    H     H_    0.914193 0.068745 0.374488 0.080885
H9    H     H_    0.096445 0.100254 0.306983 0.138636
H10   H     H_    0.916180 0.802315 0.717518 0.031306
H11   H     H_    0.847426 0.658113 0.701874 0.041946
H12   H     H_    0.555608 0.011957 0.227794 0.087714
H13   H     H_    0.765767 0.799656 0.870097 0.174547
H14   H     H_    0.934285 0.722719 0.867916 0.073059
H15   H     H_    0.727889 0.654255 0.853923 0.157358
H16   H     H_    0.532849 0.823091 0.271155 -0.077537
H17   H     H_    0.504903 0.919215 0.127698 0.144475
H18   H     H_    0.362100 0.340338 0.286801 0.017333
H19   H     H_    0.579805 0.380858 0.272369 0.056375
H20   H     H_    0.346107 0.234216 0.136026 0.129632
H21   H     H_    0.435144 0.370665 0.119162 0.058157
H22   H     H_    0.565042 0.267327 0.122787 0.116868
H23   H     H_    0.710432 0.988557 0.143578 0.126469
H24   H     H_    0.204099 0.924993 0.092497 0.111274
H25   H     H_    0.134837 0.268526 0.796667 0.095115
H26   H     H_    0.921591 0.209069 0.789206 -0.041340
H27   H     H_    0.190991 0.142839 0.916209 0.156390
H28   H     H_    0.027173 0.215962 0.951885 0.068915
H29   H     H_    0.981182 0.078376 0.907289 0.113527
H30   H     H_    0.658192 0.180973 0.730419 -0.009381
H31   H     H_    0.458262 0.105525 0.711486 0.078398
H32   H     H_    0.687849 0.092604 0.881808 0.115301
H33   H     H_    0.662220 0.999674 0.780521 0.082553
H34   H     H_    0.058710 0.730214 0.200314 0.088672
H35   H     H_    0.492709 0.010986 0.858036 0.147152
H36   H     H_    0.373264 0.549475 0.298894 0.076231
H37   H     H_    0.691423 0.370754 0.982245 0.078475
H38   H     H_    0.897279 0.403660 0.106825 0.093118
H39   H     H_    0.277662 0.607797 0.893654 0.164367
H40   H     H_    0.335032 0.048517 0.393426 0.096650
H41   H     H_    0.855475 0.943074 0.608630 0.084889
H42   H     H_    0.826509 0.255500 0.520044 0.118679
H43   H     H_    0.269531 0.794766 0.208589 -0.059050
H44   H     H_    0.377636 0.728881 0.456808 0.061647
H45   H     H_    0.161713 0.788209 0.045771 0.097855
H46   H     H_    0.995522 0.858064 0.083170 0.159832
H47   H     H_    0.337925 0.725838 0.627179 0.032841
H48   H     H_    0.132833 0.753050 0.601333 0.056174
O1    O     O_2   0.887370 0.460630 0.272300 -0.474879
O2    O     O_3   0.669004 0.756286 0.696283 -0.631585
O3    O     O_3   0.095129 0.883726 0.262574 -0.603683
O4    O     O_2   0.302330 0.539400 0.727760 -0.438214
O5    O     O_3   0.060300 0.548700 0.611500 -0.429861
O6    O     O_3   0.519500 0.346920 0.670840 -0.395684
O7    O     O_3   0.178371 0.711061 0.736640 -0.649528
O8    O     O_3   0.614310 0.373510 0.452640 -0.440792
O9    O     O_3   0.100780 0.295230 0.623970 -0.437696
O10   O     O_2   0.195783 0.110743 0.566408 -0.487271
O11   O     O_3   0.088943 0.114049 0.736580 -0.610779
O12   O     O_3   0.129410 0.451380 0.388510 -0.484639
O13   O     O_3   0.575400 0.626570 0.547370 -0.449320
O14   O     O_2   0.344320 0.238700 0.455090 -0.468097
O15   O     O_3   0.508218 0.221075 0.297678 -0.655996
O16   O     O_2   0.402319 0.408650 0.835496 -0.486135
O17   O     O_3   0.472744 0.213558 0.825046 -0.603458
O18   O     O_3   0.670210 0.653170 0.329170 -0.489730
O19   O     O_2   0.780261 0.591705 0.164626 -0.472100
O20   O     O_3   0.022929 0.289386 0.259641 -0.641842
O21   O     O_3   0.719138 0.788588 0.178414 -0.545963
O22   O     O_2   0.845380 0.761330 0.544970 -0.494339
O23   O     O_3   0.088930 0.704860 0.376040 -0.490021
O24   O     O_2   0.004568 0.889390 0.437245 -0.484136
P1    P     P_3+3 0.054400 0.427280 0.286870 0.979089
P2    P     P_3+3 0.668300 0.742890 0.573060 0.991471
P3    P     P_3+3 0.132709 0.843105 0.375581 0.945650
P4    P     P_3+3 0.135310 0.572810 0.713130 1.026449
P5    P     P_3+3 0.059302 0.155082 0.622746 0.971792
P6    P     P_3+3 0.652690 0.657061 0.207918 1.029593
P7    P     P_3+3 0.524740 0.242063 0.419859 0.946731
P8    P     P_3+3 0.533355 0.344989 0.793640 1.028273
Cl1   Cl    Cl    0.524996 0.695139 0.998090 -0.758760
Cl2   Cl    Cl    0.828901 0.400333 0.655341 -0.687398

loop_
_geom_bond_atom_site_label_1
_geom_bond_atom_site_label_2
_ccdc_geom_bond_type
C34   H47   S    
O8    P7    S    
C9    C16   A    
O4    P4    D    
C39   C40   S    
O18   P6    S    
C33   P5    S    
C17   C18   A    
C7    H30   S    
Ba2   P4    S    
C5    C6    S    
C3    O15   S    
C6    H27   S    
C19   P4    S    
Ba1   O23   S    
C15   C24   A    
Ba2   O5    S    
C33   C35   A    
C14   Cl1   S    
Ba1   O22   S    
C3    C4    S    
C1    H12   S    
Ba2   O12   S    
C13   C14   A    
C27   C31   A    
C23   H45   S    
C13   P6    S    
Ba1   Ba2   S    
C4    H22   S    
O7    P4    S    
C17   C24   A    
C36   H3    S    
O12   P1    S    
C40   H14   S    
C5    H26   S    
C37   O20   S    
C18   C22   A    
C14   C15   A    
C21   C22   A    
C34   O7    S    
Ba1   P2    S    
C7    C8    S    
Ba1   O13   S    
C12   O3    S    
C10   P1    S    
O5    P4    S    
C19   C20   A    
C1    H23   S    
O3    P3    S    
C40   H15   S    
C8    H35   S    
C31   C32   A    
C21   P8    S    
C25   C32   A    
C9    C18   A    
O15   P7    S    
O11   P5    S    
Ba2   O4    S    
C37   C38   S    
O14   P7    D    
C25   C33   A    
C5    H25   S    
C23   H46   S    
O21   P6    S    
C12   H34   S    
C4    H21   S    
C36   H2    S    
C27   C28   A    
C40   H13   S    
C8    H33   S    
C22   H37   S    
C29   C30   A    
Ba2   O14   S    
Ba1   O5    S    
O16   P8    D    
C15   C16   A    
C3    H19   S    
O10   P5    D    
C30   C35   A    
O2    P2    S    
C39   H11   S    
C32   P7    S    
O23   P3    S    
C2    H1    S    
C2    O21   S    
Ba2   O9    S    
C24   H39   S    
C11   C13   A    
C26   H44   S    
C2    H16   S    
C1    C2    S    
C29   P2    S    
O22   P2    D    
C37   H5    S    
C34   H48   S    
C11   H36   S    
C25   H42   S    
C6    H29   S    
C39   H10   S    
C3    H18   S    
C17   C19   A    
C7    H31   S    
C26   C29   A    
C23   H24   S    
C12   H43   S    
Ba1   O8    S    
C20   Cl2   S    
C28   P3    S    
C7    O17   S    
C38   H9    S    
C6    H28   S    
O6    P8    S    
C30   C31   A    
C4    H20   S    
Ba2   O6    S    
O13   P2    S    
C27   H40   S    
C34   C36   S    
C8    H32   S    
Ba2   O13   S    
C38   H8    S    
Ba1   O12   S    
C26   C28   A    
O1    P1    D    
C12   C23   S    
C36   H4    S    
O24   P3    D    
C9    H38   S    
Ba1   O18   S    
O9    P5    S    
C39   O2    S    
C10   C11   A    
Ba2   O8    S    
Ba1   O1    S    
C5    O11   S    
C10   C16   A    
C20   C21   A    
C35   H41   S    
Ba1   P1    S    
O17   P8    S    
O20   P1    S    
C38   H7    S    
O19   P6    D    
C37   H6    S    
C1    H17   S    
