data_mof_unit_38618.cif
_audit_creation_date              2012-12-11T17:15:03-0500
_audit_creation_method            fapswitch 2.2
_symmetry_space_group_name_H-M    P1
_symmetry_Int_Tables_number       1
_space_group_crystal_system       triclinic
_cell_length_a                    7.218091
_cell_length_b                    12.149181
_cell_length_c                    21.281487
_cell_angle_alpha                 90.000013
_cell_angle_beta                  90.657754
_cell_angle_gamma                 90.000135
_cell_volume                      1866.13349043

loop_
_atom_site_label
_atom_site_type_symbol
_atom_type_description
_atom_site_fract_x
_atom_site_fract_y
_atom_site_fract_z
_atom_type_partial_charge
O1    O     O_R   0.354460 0.152320 0.595720 -0.535135
O2    O     O_R   0.645540 0.847680 0.404280 -0.535135
O3    O     O_R   0.145540 0.652320 0.404280 -0.535135
O4    O     O_R   0.854460 0.347680 0.595720 -0.535135
O5    O     O_R   0.683670 0.140090 0.727290 -0.536490
O6    O     O_R   0.316330 0.859910 0.272710 -0.536490
O7    O     O_R   0.816330 0.640090 0.272710 -0.536491
O8    O     O_R   0.183670 0.359910 0.727290 -0.536491
O9    O     O_R   0.854010 0.349340 0.727750 -0.534392
O10   O     O_R   0.145990 0.650660 0.272250 -0.534392
O11   O     O_R   0.645990 0.849340 0.272250 -0.534393
O12   O     O_R   0.354010 0.150660 0.727750 -0.534393
C1    C     C_R   0.516528 0.111700 0.746694 0.693554
C2    C     C_R   0.483472 0.888300 0.253306 0.693554
C3    C     C_R   0.983472 0.611700 0.253306 0.693554
C4    C     C_R   0.016528 0.388300 0.746694 0.693554
O13   O     O_R   0.684170 0.139420 0.596190 -0.535328
O14   O     O_R   0.315830 0.860580 0.403810 -0.535329
O15   O     O_R   0.815830 0.639420 0.403810 -0.535328
O16   O     O_R   0.184170 0.360580 0.596190 -0.535328
C5    C     C_R   0.515030 0.113121 0.574453 0.725555
C6    C     C_R   0.484970 0.886879 0.425547 0.725556
C7    C     C_R   0.984970 0.613121 0.425547 0.725555
C8    C     C_R   0.015030 0.386879 0.574453 0.725555
O17   O     O_3   0.520730 0.319480 0.661730 -0.374892
O18   O     O_3   0.479270 0.680520 0.338270 -0.374892
O19   O     O_3   0.979270 0.819480 0.338270 -0.374893
O20   O     O_3   0.020730 0.180520 0.661730 -0.374893
V1    V     V_3+5 0.795560 0.238090 0.661730 1.492902
V2    V     V_3+5 0.204440 0.761910 0.338270 1.492902
V3    V     V_3+5 0.704440 0.738090 0.338270 1.492903
V4    V     V_3+5 0.295560 0.261910 0.661730 1.492903
C9    C     C_R   0.012148 0.469155 0.797643 -0.072711
C10   C     C_R   0.987852 0.530845 0.202357 -0.072711
C11   C     C_R   0.487855 0.969155 0.202357 -0.072711
C12   C     C_R   0.512145 0.030845 0.797643 -0.072711
C13   C     C_R   0.018009 0.657042 0.836536 -0.057880
C14   C     C_R   0.981992 0.342958 0.163464 -0.057880
C15   C     C_R   0.481977 0.157042 0.163464 -0.057882
C16   C     C_R   0.518024 0.842958 0.836536 -0.057882
C17   C     C_R   0.019846 0.582637 0.785838 -0.069996
C18   C     C_R   0.980154 0.417363 0.214162 -0.069996
C19   C     C_R   0.480165 0.082637 0.214162 -0.069996
C20   C     C_R   0.519836 0.917363 0.785837 -0.069996
C21   C     C_R   0.003739 0.429755 0.858934 -0.210471
C22   C     C_R   0.996261 0.570245 0.141066 -0.210471
C23   C     C_R   0.496258 0.929755 0.141066 -0.210468
C24   C     C_R   0.503742 0.070245 0.858934 -0.210467
C25   C     C_R   0.004688 0.501467 0.911076 0.085182
C26   C     C_R   0.995313 0.498533 0.088924 0.085182
C27   C     C_R   0.495320 0.001467 0.088925 0.085183
C28   C     C_R   0.504681 0.998533 0.911075 0.085183
C29   C     C_R   0.010972 0.616722 0.899154 0.080896
C30   C     C_R   0.989029 0.383278 0.100846 0.080896
C31   C     C_R   0.488993 0.116721 0.100846 0.080893
C32   C     C_R   0.511008 0.883278 0.899154 0.080893
C33   C     C_R   0.999880 0.461815 0.974522 0.065410
C34   C     C_R   0.000122 0.538185 0.025477 0.065410
C35   C     C_R   0.500158 0.961815 0.025478 0.065410
C36   C     C_R   0.499843 0.038184 0.974522 0.065410
C37   C     C_R   0.004592 0.651816 0.011305 -0.195075
C38   C     C_R   0.995410 0.348184 0.988695 -0.195075
C39   C     C_R   0.495261 0.151813 0.988694 -0.195073
C40   C     C_R   0.504741 0.848186 0.011306 -0.195074
C41   C     C_R   0.010201 0.689693 0.950017 -0.190543
C42   C     C_R   0.989801 0.310307 0.049983 -0.190543
C43   C     C_R   0.489678 0.189691 0.049982 -0.190546
C44   C     C_R   0.510324 0.810309 0.950018 -0.190545
H1    H     H_    0.002200 0.658311 0.136262 0.100066
H2    H     H_    0.997800 0.341689 0.863738 0.100066
H3    H     H_    0.497839 0.158311 0.863738 0.100062
H4    H     H_    0.502160 0.841688 0.136262 0.100062
H5    H     H_    0.003865 0.715389 0.046419 0.130425
H6    H     H_    0.996137 0.284611 0.953581 0.130425
H7    H     H_    0.495862 0.215384 0.953578 0.130424
H8    H     H_    0.504141 0.784616 0.046422 0.130425
C45   C     C_1   0.995469 0.533139 0.478074 -0.126664
C46   C     C_1   0.004531 0.466861 0.521926 -0.126663
C47   C     C_1   0.504531 0.033139 0.521926 -0.126663
C48   C     C_1   0.495469 0.966861 0.478074 -0.126663
H9    H     H_    0.014072 0.777958 0.943038 0.147955
H10   H     H_    0.985930 0.222042 0.056962 0.147955
H11   H     H_    0.485733 0.277955 0.056960 0.147957
H12   H     H_    0.514270 0.722045 0.943040 0.147957
C49   C     C_1   0.971322 0.377670 0.278338 0.315351
N1    N     N_1   0.964261 0.346026 0.329548 -0.336026
C50   C     C_1   0.028678 0.622330 0.721662 0.315351
N2    N     N_1   0.035740 0.653974 0.670452 -0.336027
C51   C     C_1   0.528647 0.877670 0.721661 0.315351
N3    N     N_1   0.535692 0.846025 0.670451 -0.336027
C52   C     C_1   0.471353 0.122330 0.278339 0.315351
N4    N     N_1   0.464309 0.153975 0.329549 -0.336027
C53   C     C_1   0.023266 0.774497 0.823781 0.284401
N5    N     N_1   0.027311 0.868051 0.813606 -0.346093
C54   C     C_1   0.976735 0.225503 0.176219 0.284401
N6    N     N_1   0.972690 0.131949 0.186394 -0.346093
C55   C     C_1   0.476718 0.274496 0.176219 0.284401
N7    N     N_1   0.472672 0.368050 0.186394 -0.346092
C56   C     C_1   0.523283 0.725503 0.823781 0.284401
N8    N     N_1   0.527329 0.631950 0.813606 -0.346092

loop_
_geom_bond_atom_site_label_1
_geom_bond_atom_site_label_2
_ccdc_geom_bond_type
C50   N2    T    
O1    C5    A    
C53   N5    T    
C9    C21   A    
O3    C7    A    
C54   N6    T    
C10   C18   A    
C11   C23   A    
C16   C56   S    
C55   N7    T    
C25   C33   A    
C33   C38   A    
C45   C46   T    
C43   H11   S    
C35   C40   A    
C26   C30   A    
C36   C39   A    
C40   C44   A    
O20   V1    S    
O9    C4    A    
C14   C18   A    
O10   C3    A    
C49   N1    T    
O4    C8    A    
O11   C2    A    
C15   C55   S    
C42   H10   S    
O13   V1    S    
C31   C43   A    
C22   H1    S    
C28   C36   A    
C15   C31   A    
O16   C8    A    
C16   C32   A    
C14   C54   S    
O2    C6    A    
C10   C22   A    
C11   C19   A    
C3    C10   S    
O5    C1    A    
O4    V1    S    
O9    V1    S    
C13   C29   A    
C34   C37   A    
O7    C3    A    
O15   V3    S    
C35   C36   A    
O8    C4    A    
O12   V4    S    
O19   V2    S    
O5    V1    S    
C17   C50   S    
C39   C43   A    
O7    V3    S    
C38   C42   A    
O8    V4    S    
C1    C12   S    
C2    C11   S    
C23   C27   A    
C37   H5    S    
C32   C44   A    
O1    V4    S    
O13   C5    A    
O2    V3    S    
C44   H12   S    
O3    V2    S    
O15   C7    A    
C4    C9    S    
O6    C2    A    
O10   V2    S    
C41   H9    S    
C56   N8    T    
C14   C30   A    
C21   C25   A    
C5    C47   S    
C40   H8    S    
C26   C34   A    
C13   C53   S    
C18   C49   S    
C7    C45   S    
O14   V2    S    
C8    C46   S    
O6    V2    S    
C16   C20   A    
C12   C20   A    
C27   C35   A    
C24   H3    S    
C52   N4    T    
C29   C41   A    
O16   V4    S    
C21   H2    S    
O14   C6    A    
O18   V3    S    
C15   C19   A    
C30   C42   A    
C22   C26   A    
C9    C17   A    
C6    C48   S    
C33   C34   A    
C39   H7    S    
O17   V4    S    
C25   C29   A    
C12   C24   A    
C27   C31   A    
C13   C17   A    
C19   C52   S    
C23   H4    S    
O11   V3    S    
C47   C48   T    
C37   C41   A    
C24   C28   A    
O12   C1    A    
C38   H6    S    
C51   N3    T    
C20   C51   S    
C28   C32   A    
