data_mof_unit_20740.cif
_audit_creation_date              2012-12-11T15:26:44-0500
_audit_creation_method            fapswitch 2.2
_symmetry_space_group_name_H-M    P1
_symmetry_Int_Tables_number       1
_space_group_crystal_system       triclinic
_cell_length_a                    7.219817
_cell_length_b                    12.08102
_cell_length_c                    29.00771
_cell_angle_alpha                 90.000233
_cell_angle_beta                  89.993807
_cell_angle_gamma                 90.001827
_cell_volume                      2530.13232497

loop_
_atom_site_label
_atom_site_type_symbol
_atom_type_description
_atom_site_fract_x
_atom_site_fract_y
_atom_site_fract_z
_atom_type_partial_charge
O1    O     O_R   0.647170 0.849180 0.201220 -0.536699
O2    O     O_R   0.352830 0.150820 0.798780 -0.536698
O3    O     O_R   0.352830 0.150820 0.701220 -0.536682
O4    O     O_R   0.647170 0.849180 0.298780 -0.536682
O5    O     O_R   0.147170 0.650820 0.298780 -0.536679
O6    O     O_R   0.852830 0.349180 0.701220 -0.536677
O7    O     O_R   0.852830 0.349180 0.798780 -0.536694
O8    O     O_R   0.147170 0.650820 0.201220 -0.536698
O9    O     O_R   0.317430 0.862210 0.298450 -0.536847
O10   O     O_R   0.682570 0.137790 0.701550 -0.536851
O11   O     O_R   0.682570 0.137790 0.798450 -0.536828
O12   O     O_R   0.317430 0.862210 0.201550 -0.536831
O13   O     O_R   0.817430 0.637790 0.201550 -0.536824
O14   O     O_R   0.182570 0.362210 0.798450 -0.536835
O15   O     O_R   0.182570 0.362210 0.701550 -0.536859
O16   O     O_R   0.817430 0.637790 0.298450 -0.536855
H1    H     H_    0.856216 0.234158 0.458759 0.184688
H2    H     H_    0.143976 0.765803 0.541236 0.184709
H3    H     H_    0.142765 0.766020 0.958741 0.184737
H4    H     H_    0.857286 0.233974 0.041260 0.184709
H5    H     H_    0.357502 0.266063 0.041269 0.184709
H6    H     H_    0.642996 0.734036 0.958745 0.184710
H7    H     H_    0.644147 0.734222 0.541234 0.184721
H8    H     H_    0.356049 0.265821 0.458759 0.184718
C1    C     C_R   0.485554 0.888270 0.313332 0.688007
C2    C     C_R   0.514445 0.111731 0.686667 0.688009
C3    C     C_R   0.514430 0.111729 0.813331 0.688033
C4    C     C_R   0.485569 0.888271 0.186669 0.688036
C5    C     C_R   0.985566 0.611728 0.186669 0.688033
C6    C     C_R   0.014434 0.388272 0.813331 0.688032
C7    C     C_R   0.014450 0.388269 0.686667 0.688004
C8    C     C_R   0.985551 0.611730 0.313332 0.688005
H9    H     H_    0.064431 0.607391 0.691892 0.081922
H10   H     H_    0.935493 0.392604 0.308104 0.081931
H11   H     H_    0.936313 0.392539 0.191909 0.081839
H12   H     H_    0.063709 0.607451 0.808091 0.081848
H13   H     H_    0.563808 0.892549 0.808097 0.081849
H14   H     H_    0.436272 0.107453 0.191916 0.081854
H15   H     H_    0.435526 0.107397 0.308103 0.081923
H16   H     H_    0.564482 0.892609 0.691891 0.081924
H17   H     H_    0.959841 0.342295 0.599777 0.098225
H18   H     H_    0.040254 0.657699 0.400223 0.098231
H19   H     H_    0.039699 0.657782 0.099767 0.098245
H20   H     H_    0.960364 0.342231 0.900232 0.098249
H21   H     H_    0.460172 0.157783 0.900227 0.098233
H22   H     H_    0.539668 0.842239 0.099765 0.098260
H23   H     H_    0.540273 0.842298 0.400226 0.098245
H24   H     H_    0.459687 0.157706 0.599778 0.098239
O17   O     O_3   0.480630 0.680630 0.250000 -0.375825
O18   O     O_3   0.519370 0.319370 0.750000 -0.375829
O19   O     O_3   0.980630 0.819370 0.250000 -0.375827
O20   O     O_3   0.019370 0.180630 0.750000 -0.375825
V1    V     V_3+5 0.205800 0.762860 0.250000 1.449134
V2    V     V_3+5 0.794200 0.237140 0.750000 1.449121
V3    V     V_3+5 0.705800 0.737140 0.250000 1.449140
V4    V     V_3+5 0.294200 0.262860 0.750000 1.449106
H25   H     H_    0.874576 0.297903 0.534544 0.135360
H26   H     H_    0.125641 0.702054 0.465452 0.135358
H27   H     H_    0.124688 0.702272 0.034526 0.135368
H28   H     H_    0.875323 0.297730 0.965475 0.135360
H29   H     H_    0.375557 0.202320 0.965483 0.135362
H30   H     H_    0.624922 0.797794 0.034531 0.135362
H31   H     H_    0.625826 0.797979 0.465450 0.135350
H32   H     H_    0.374382 0.202070 0.534543 0.135350
C9    C     C_R   0.990519 0.532258 0.351474 -0.020082
C10   C     C_R   0.009491 0.467737 0.648524 -0.020064
C11   C     C_R   0.009409 0.467734 0.851475 -0.020008
C12   C     C_R   0.990600 0.532267 0.148524 -0.020005
C13   C     C_R   0.490611 0.967739 0.148527 -0.020029
C14   C     C_R   0.509398 0.032272 0.851477 -0.020023
C15   C     C_R   0.509471 0.032263 0.648523 -0.020075
C16   C     C_R   0.490530 0.967742 0.351475 -0.020070
C17   C     C_R   0.939711 0.345743 0.379854 0.043214
C18   C     C_R   0.060323 0.654242 0.620140 0.043186
C19   C     C_R   0.059576 0.654312 0.879842 0.043293
C20   C     C_R   0.940496 0.345684 0.120157 0.043360
C21   C     C_R   0.440504 0.154324 0.120165 0.043354
C22   C     C_R   0.559646 0.845705 0.879850 0.043338
C23   C     C_R   0.560332 0.845758 0.620139 0.043174
C24   C     C_R   0.439719 0.154258 0.379854 0.043183
C25   C     C_R   0.953247 0.420918 0.343322 -0.239306
C26   C     C_R   0.046734 0.579074 0.656674 -0.239358
C27   C     C_R   0.046198 0.579119 0.843314 -0.239285
C28   C     C_R   0.953831 0.420876 0.156686 -0.239213
C29   C     C_R   0.453825 0.079125 0.156692 -0.239234
C30   C     C_R   0.546261 0.920888 0.843319 -0.239254
C31   C     C_R   0.546752 0.920925 0.656672 -0.239355
C32   C     C_R   0.453266 0.079083 0.343322 -0.239318
C33   C     C_R   0.017381 0.570064 0.396388 -0.190743
C34   C     C_R   0.982698 0.429925 0.603610 -0.190739
C35   C     C_R   0.982869 0.429892 0.896394 -0.190892
C36   C     C_R   0.017175 0.570115 0.103605 -0.190895
C37   C     C_R   0.517188 0.929904 0.103608 -0.190918
C38   C     C_R   0.482797 0.070122 0.896395 -0.190848
C39   C     C_R   0.482607 0.070074 0.603610 -0.190725
C40   C     C_R   0.517398 0.929935 0.396389 -0.190746
C41   C     C_R   0.000102 0.498101 0.434685 0.074205
C42   C     C_R   0.000012 0.501880 0.565311 0.074196
C43   C     C_R   0.999927 0.501880 0.934687 0.074121
C44   C     C_R   0.000130 0.498124 0.065312 0.074061
C45   C     C_R   0.500181 0.001902 0.065317 0.074122
C46   C     C_R   0.499947 0.998145 0.934691 0.074064
C47   C     C_R   0.499956 0.998118 0.565311 0.074149
C48   C     C_R   0.500101 0.001901 0.434686 0.074157
C49   C     C_R   0.953037 0.385287 0.426044 0.132244
C50   C     C_R   0.047067 0.614692 0.573952 0.132270
C51   C     C_R   0.046508 0.614757 0.926036 0.132395
C52   C     C_R   0.953559 0.385242 0.073963 0.132375
C53   C     C_R   0.453621 0.114779 0.073971 0.132375
C54   C     C_R   0.546584 0.885271 0.926042 0.132374
C55   C     C_R   0.547075 0.885310 0.573950 0.132240
C56   C     C_R   0.453004 0.114712 0.426044 0.132232
C57   C     C_R   0.019946 0.536318 0.481251 0.066633
C58   C     C_R   0.980202 0.463657 0.518745 0.066630
C59   C     C_R   0.980301 0.463639 0.981256 0.066661
C60   C     C_R   0.019759 0.536365 0.018743 0.066667
C61   C     C_R   0.519832 0.963669 0.018748 0.066659
C62   C     C_R   0.480359 0.036392 0.981261 0.066668
C63   C     C_R   0.480135 0.036339 0.518745 0.066597
C64   C     C_R   0.519950 0.963686 0.481251 0.066595
C65   C     C_R   0.919519 0.355406 0.508486 -0.215702
C66   C     C_R   0.080659 0.644561 0.491510 -0.215721
C67   C     C_R   0.079979 0.644699 0.008475 -0.215792
C68   C     C_R   0.920066 0.355303 0.991525 -0.215766
C69   C     C_R   0.420201 0.144732 0.991532 -0.215767
C70   C     C_R   0.580127 0.855348 0.008480 -0.215777
C71   C     C_R   0.580752 0.855454 0.491509 -0.215702
C72   C     C_R   0.419390 0.144580 0.508486 -0.215694
C73   C     C_R   0.908767 0.317057 0.463521 -0.139850
C74   C     C_R   0.091395 0.682912 0.536474 -0.139803
C75   C     C_R   0.090549 0.683051 0.963507 -0.139799
C76   C     C_R   0.909512 0.316946 0.036492 -0.139711
C77   C     C_R   0.409648 0.183084 0.036500 -0.139844
C78   C     C_R   0.590702 0.816991 0.963513 -0.139669
C79   C     C_R   0.591482 0.817101 0.536473 -0.139672
C80   C     C_R   0.408660 0.182932 0.463521 -0.139725
C81   C     C_2   0.912165 0.227598 0.367306 0.325415
H33   H     H_    0.843645 0.206846 0.335128 0.052444
O21   O     O_2   0.974725 0.152685 0.390847 -0.539828
C82   C     C_2   0.087820 0.772386 0.632688 0.325414
H34   H     H_    0.156173 0.793142 0.664884 0.052413
O22   O     O_2   0.025382 0.847297 0.609124 -0.539828
C83   C     C_2   0.086701 0.772481 0.867283 0.325291
H35   H     H_    0.154940 0.793291 0.835073 0.052430
O23   O     O_2   0.024091 0.847344 0.890850 -0.539859
C84   C     C_2   0.913428 0.227510 0.132714 0.325278
H36   H     H_    0.845185 0.206684 0.164920 0.052473
O24   O     O_2   0.976093 0.152667 0.109147 -0.539867
C85   C     C_2   0.413344 0.272490 0.132727 0.325317
H37   H     H_    0.344898 0.293295 0.164916 0.052434
O25   O     O_2   0.476137 0.347350 0.109185 -0.539859
C86   C     C_2   0.586761 0.727534 0.867295 0.325348
H38   H     H_    0.654973 0.706715 0.835084 0.052420
O26   O     O_2   0.524172 0.652680 0.890870 -0.539848
C87   C     C_2   0.587822 0.727614 0.632686 0.325471
H39   H     H_    0.656070 0.706868 0.664896 0.052396
O27   O     O_2   0.525499 0.652690 0.609104 -0.539813
C88   C     C_2   0.412241 0.272403 0.367304 0.325424
H40   H     H_    0.343936 0.293148 0.335101 0.052436
O28   O     O_2   0.474640 0.347326 0.390874 -0.539821

loop_
_geom_bond_atom_site_label_1
_geom_bond_atom_site_label_2
_ccdc_geom_bond_type
C7    C10   S    
O14   V4    S    
C11   C27   A    
C60   C67   A    
C87   O27   D    
C22   C86   S    
C4    C13   S    
C44   C60   A    
C19   C27   A    
C20   C28   A    
C23   C31   A    
O4    C1    A    
C64   C71   A    
O9    C1    A    
C10   C34   A    
C9    C33   A    
C81   O21   D    
H6    C78   S    
O8    C5    A    
H16   C31   S    
O13   C5    A    
C14   C38   A    
C56   C80   A    
C57   C58   A    
C13   C37   A    
C72   C80   A    
C43   C59   A    
C42   C58   A    
C18   C50   A    
H12   C27   S    
C45   C53   A    
C59   C60   A    
C83   O23   D    
C68   C76   A    
C47   C55   A    
H5    C77   S    
H28   C68   S    
C58   C65   A    
C17   C49   A    
C88   O28   D    
C57   C66   A    
C39   C47   A    
H32   C72   S    
O1    C4    A    
H23   C40   S    
O2    C3    A    
C19   C51   A    
C62   C69   A    
C61   C70   A    
C6    C11   S    
C46   C62   A    
O5    C8    A    
C41   C49   A    
C63   C72   A    
H8    C80   S    
H17   C34   S    
C20   C84   S    
C20   C52   A    
O7    C6    A    
H3    C75   S    
C2    C15   S    
H15   C32   S    
C18   C26   A    
O10   V2    S    
H21   C38   S    
C17   C25   A    
C16   C32   A    
O20   V2    S    
C84   O24   D    
H27   C67   S    
C44   C52   A    
H26   C66   S    
H14   C29   S    
C53   C77   A    
C12   C28   A    
H13   C30   S    
C82   H34   S    
C51   C75   A    
H24   C39   S    
C37   C45   A    
H30   C70   S    
C49   C73   A    
O17   V3    S    
C18   C82   S    
O18   V4    S    
C33   C41   A    
O19   V1    S    
H4    C76   S    
C10   C26   A    
C5    C12   S    
O3    V4    S    
C24   C88   S    
O11   C3    A    
H11   C28   S    
C69   C77   A    
C24   C56   A    
C11   C35   A    
O10   C2    A    
C22   C54   A    
C1    C16   S    
C21   C53   A    
C3    C14   S    
C38   C46   A    
H20   C35   S    
C19   C83   S    
C15   C31   A    
O11   V2    S    
H10   C25   S    
C86   O26   D    
O6    V2    S    
C40   C48   A    
O4    V3    S    
C88   H40   S    
H2    C74   S    
O9    V1    S    
C21   C85   S    
C14   C30   A    
C13   C29   A    
C36   C44   A    
C48   C56   A    
C84   H36   S    
H9    C26   S    
O5    V1    S    
C50   C74   A    
C65   C73   A    
C59   C68   A    
C67   C75   A    
O3    C2    A    
C47   C63   A    
O12   V1    S    
C82   O22   D    
O8    V1    S    
C63   C64   A    
O15   C7    A    
H7    C79   S    
O16   C8    A    
C23   C87   S    
C43   C51   A    
C81   H33   S    
H19   C36   S    
C42   C50   A    
C23   C55   A    
H18   C33   S    
C45   C61   A    
O15   V4    S    
C85   O25   D    
O1    V3    S    
O16   V3    S    
O14   C6    A    
C24   C32   A    
O2    V4    S    
C61   C62   A    
C55   C79   A    
H22   C37   S    
C17   C81   S    
C21   C29   A    
C46   C54   A    
C12   C36   A    
C34   C42   A    
O6    C7    A    
C71   C79   A    
O13   V3    S    
C52   C76   A    
C54   C78   A    
H25   C65   S    
C16   C40   A    
C15   C39   A    
C86   H38   S    
C70   C78   A    
C22   C30   A    
C87   H39   S    
C9    C25   A    
H29   C69   S    
O7    V2    S    
O12   C4    A    
C35   C43   A    
C85   H37   S    
C41   C57   A    
C66   C74   A    
H1    C73   S    
H31   C71   S    
C83   H35   S    
C8    C9    S    
C48   C64   A    
