data_mof_unit_47997.cif
_audit_creation_date              2013-03-05T15:47:47-0500
_audit_creation_method            fapswitch 2.2
_symmetry_space_group_name_H-M    P1
_symmetry_Int_Tables_number       1
_space_group_crystal_system       triclinic
_cell_length_a                    10.634197
_cell_length_b                    13.013455
_cell_length_c                    11.716453
_cell_angle_alpha                 100.607816
_cell_angle_beta                  94.593733
_cell_angle_gamma                 90.99428
_cell_volume                      1587.73061322

loop_
_atom_site_label
_atom_site_type_symbol
_atom_site_description
_atom_site_fract_x
_atom_site_fract_y
_atom_site_fract_z
_atom_type_partial_charge
O1    O     O_R   0.506570 0.354460 0.582000 -0.587141
O2    O     O_R   0.493430 0.645540 0.418000 -0.587167
O3    O     O_R   0.490940 0.341410 0.386200 -0.601176
O4    O     O_R   0.509060 0.658590 0.613800 -0.601186
C1    C     C_R   0.498719 0.298995 0.478090 0.826516
C2    C     C_R   0.501322 0.701004 0.521911 0.826609
O5    O     O_R   0.327470 0.506520 0.597900 -0.578126
O6    O     O_R   0.672530 0.493480 0.402100 -0.578110
O7    O     O_R   0.311840 0.493460 0.402100 -0.590861
O8    O     O_R   0.688160 0.506540 0.597900 -0.590766
C3    C     C_R   0.262490 0.515061 0.501696 0.807453
C4    C     C_R   0.737485 0.484877 0.498291 0.807502
Cu1   Cu    Cu3+1 0.509250 0.507730 0.615930 0.921315
Cu2   Cu    Cu3+1 0.490750 0.492270 0.384070 0.921246
H1    H     H_    0.048067 0.546133 0.111871 0.148426
H2    H     H_    0.952029 0.453240 0.887941 0.148543
C5    C     C_R   0.124509 0.580005 0.721776 0.212118
C6    C     C_R   0.875401 0.419683 0.278180 0.212234
C7    C     C_R   0.079715 0.551763 0.821006 -0.182058
C8    C     C_R   0.920284 0.447768 0.178909 -0.182183
C9    C     C_R   0.980071 0.479205 0.810759 -0.199585
C10   C     C_R   0.019984 0.520261 0.189092 -0.199510
C11   C     C_R   0.914467 0.441746 0.702426 0.198573
C12   C     C_R   0.085528 0.557840 0.297423 0.199096
C13   C     C_R   0.950804 0.478606 0.602064 0.020342
C14   C     C_R   0.049154 0.521096 0.397844 0.020248
C15   C     C_R   0.068393 0.532325 0.609357 0.034297
C16   C     C_R   0.931541 0.467408 0.390577 0.034268
C17   C     C_R   0.874478 0.464658 0.495398 -0.228334
C18   C     C_R   0.125459 0.535135 0.504544 -0.228345
H3    H     H_    0.123441 0.585572 0.906697 0.159055
H4    H     H_    0.876562 0.413906 0.093232 0.159042
C19   C     C_R   0.500671 0.814599 0.534664 -0.144852
C20   C     C_R   0.499483 0.185401 0.465346 -0.144811
C21   C     C_R   0.510967 0.014000 0.344314 0.363239
C22   C     C_R   0.489328 0.986002 0.655714 0.363272
C23   C     C_R   0.505792 0.122342 0.355840 -0.241959
C24   C     C_R   0.494473 0.877658 0.644185 -0.241916
C25   C     C_R   0.496637 0.140260 0.564507 -0.182743
C26   C     C_R   0.503547 0.859741 0.435508 -0.182737
C27   C     C_R   0.495897 0.031953 0.555633 0.001851
C28   C     C_R   0.504352 0.968049 0.444390 0.001859
H5    H     H_    0.504107 0.809557 0.351084 0.210279
H6    H     H_    0.496030 0.190445 0.648925 0.210313
H7    H     H_    0.488953 0.842572 0.720692 0.191793
H8    H     H_    0.511372 0.157428 0.279341 0.191542
N1    N     N_R   0.523180 0.519350 0.790130 -0.228443
N2    N     N_R   0.476820 0.480650 0.209870 -0.228566
C29   C     C_R   0.374856 0.406276 0.016907 0.078278
C30   C     C_R   0.625014 0.593842 0.983117 0.078545
C31   C     C_R   0.388276 0.412646 0.138987 0.289774
C32   C     C_R   0.611865 0.587230 0.860998 0.289797
C33   C     C_R   0.554110 0.540300 0.158965 -0.000811
C34   C     C_R   0.445646 0.459922 0.841068 -0.000925
C35   C     C_R   0.545317 0.533870 0.035885 -0.024731
C36   C     C_R   0.454404 0.466381 0.964153 -0.024801
H9    H     H_    0.376687 0.407513 0.785406 0.192710
H10   H     H_    0.622988 0.592776 0.214641 0.192740
N3    N     N_3   0.279466 0.338083 0.946470 -0.566040
H11   H     H_    0.294508 0.261701 0.959279 0.297281
H12   H     H_    0.191421 0.360325 0.974719 0.230514
N4    N     N_3   0.720505 0.661926 0.053553 -0.565700
H13   H     H_    0.706030 0.738254 0.040277 0.297183
H14   H     H_    0.808570 0.639199 0.025709 0.230280
N5    N     N_3   0.214953 0.666165 0.738953 -0.555316
H15   H     H_    0.300673 0.642789 0.774415 0.248196
H16   H     H_    0.229509 0.690616 0.660845 0.215507
N6    N     N_3   0.784809 0.333633 0.261075 -0.555332
H17   H     H_    0.770215 0.309242 0.339206 0.215444
H18   H     H_    0.699133 0.357102 0.225623 0.248184
N7    N     N_3   0.822509 0.357952 0.695617 -0.560085
H19   H     H_    0.792372 0.324936 0.609437 0.216090
H20   H     H_    0.744703 0.387429 0.738608 0.244966
N8    N     N_3   0.177376 0.641705 0.304168 -0.560143
H21   H     H_    0.255227 0.612281 0.261213 0.245045
H22   H     H_    0.207457 0.674814 0.390334 0.216141
N9    N     N_R   0.526335 0.952775 0.231325 0.112773
O9    O     O_R   0.463575 0.975074 0.139511 -0.305219
O10   O     O_R   0.619843 0.889744 0.217431 -0.367607
N10   N     N_R   0.474034 0.047228 0.768715 0.112756
O11   O     O_R   0.536894 0.024956 0.860491 -0.305213
O12   O     O_R   0.380485 0.110211 0.782671 -0.367866
N11   N     N_3   0.693766 0.655735 0.816045 -0.593850
H23   H     H_    0.644009 0.709682 0.776726 0.262247
H24   H     H_    0.759630 0.615496 0.765785 0.255060
N12   N     N_3   0.307031 0.343589 0.183850 -0.593654
H25   H     H_    0.241415 0.383347 0.234832 0.255465
H26   H     H_    0.357375 0.289444 0.222361 0.261860

loop_
_geom_bond_atom_site_label_1
_geom_bond_atom_site_label_2
_geom_bond_distance
_ccdc_geom_bond_type
C35   C36   1.407480 A    
H2    C9    1.083075 S    
C4    C17   1.486812 S    
C20   C23   1.397184 A    
C27   C28   1.421531 A    
C7    H3    1.083183 S    
C25   C27   1.393894 A    
N9    O9    1.301335 A    
O5    C3    1.297843 A    
N8    H22   1.044281 S    
O1    C1    1.291608 A    
C16   C17   1.418658 A    
C7    C9    1.389957 A    
C12   C14   1.426968 A    
N12   H26   1.038332 S    
C6    N6    1.439185 S    
H1    C10   1.083081 S    
O4    Cu1   1.967989 S    
C21   C28   1.416773 A    
C24   H7    1.083342 S    
N4    H14   1.045931 S    
C26   H5    1.080839 S    
C3    C18   1.486819 S    
N6    H17   1.044431 S    
C29   C31   1.412922 A    
C30   C32   1.412914 A    
C26   C28   1.393885 A    
N3    H11   1.045337 S    
Cu1   Cu2   2.677828 S    
C15   C18   1.418727 A    
C22   C27   1.416773 A    
O2    C2    1.291607 A    
C31   N12   1.431814 S    
C33   C35   1.424425 A    
C13   C17   1.415098 A    
N2    C33   1.364067 A    
N2    C31   1.390939 A    
C34   C36   1.424451 A    
N3    H12   1.045825 S    
C19   C26   1.397160 A    
N8    H21   1.045033 S    
C20   C25   1.397177 A    
C5    C15   1.427015 A    
C11   N7    1.438822 S    
C6    C16   1.427037 A    
O4    C2    1.294867 A    
C22   N10   1.436939 S    
N7    H20   1.045032 S    
N12   H25   1.037727 S    
Cu2   N2    2.011886 S    
N5    H16   1.044448 S    
C21   N9    1.436978 S    
C32   N11   1.431826 S    
O7    Cu2   1.931013 S    
N4    H13   1.045402 S    
N11   H23   1.038249 S    
O6    C4    1.297802 A    
C1    C20   1.458404 S    
N9    O10   1.301220 A    
O7    C3    1.303288 A    
N1    C32   1.390967 A    
O3    Cu2   1.967992 S    
O8    C4    1.303341 A    
N1    C34   1.364079 A    
N10   O12   1.301235 A    
N11   H24   1.037701 S    
C8    C10   1.389932 A    
C14   C18   1.415258 A    
C9    C11   1.397847 A    
C30   N4    1.436175 S    
C10   C12   1.397822 A    
O1    Cu1   1.959963 S    
Cu1   N1    2.011886 S    
C8    H4    1.083183 S    
O6    Cu2   1.927173 S    
C21   C23   1.393878 A    
C5    N5    1.439176 S    
C19   C24   1.397173 A    
N10   O11   1.301315 A    
O3    C1    1.294888 A    
O8    Cu1   1.931013 S    
C33   H10   1.081882 S    
C25   H6    1.080836 S    
C13   C15   1.410754 A    
C29   C36   1.395777 A    
C14   C16   1.410813 A    
C30   C35   1.395786 A    
C29   N3    1.436182 S    
C2    C19   1.458370 S    
C22   C24   1.393878 A    
N7    H19   1.044278 S    
C12   N8    1.438826 S    
C5    C7    1.397723 A    
C6    C8    1.397700 A    
C11   C13   1.426927 A    
O2    Cu2   1.959960 S    
O5    Cu1   1.927172 S    
N6    H18   1.044818 S    
N5    H15   1.044808 S    
C23   H8    1.083323 S    
C34   H9    1.081901 S    
