data_mof_unit_6919.cif
_audit_creation_date              2012-12-10T16:53:11-0500
_audit_creation_method            fapswitch 2.2
_symmetry_space_group_name_H-M    P1
_symmetry_Int_Tables_number       1
_space_group_crystal_system       triclinic
_cell_length_a                    10.773066
_cell_length_b                    10.902271
_cell_length_c                    9.699256
_cell_angle_alpha                 90.876012
_cell_angle_beta                  90.081335
_cell_angle_gamma                 90.107537
_cell_volume                      1139.04985336

loop_
_atom_site_label
_atom_site_type_symbol
_atom_type_description
_atom_site_fract_x
_atom_site_fract_y
_atom_site_fract_z
_atom_type_partial_charge
C1    C     C_R   0.503825 0.265296 0.498766 0.792965
C2    C     C_R   0.065566 0.392768 0.567653 0.108566
C3    C     C_R   0.128873 0.488102 0.499416 -0.088166
C4    C     C_R   0.064031 0.577619 0.427774 -0.185633
C5    C     C_R   0.935994 0.577614 0.427918 -0.180726
C6    C     C_R   0.871118 0.488069 0.499677 -0.089645
C7    C     C_2   0.543009 0.930873 0.393292 -0.119025
C8    C     C_2   0.518473 0.866808 0.506666 -0.372077
C9    C     C_2   0.563235 0.064442 0.399329 0.024861
C10   C     C_2   0.502416 0.132561 0.495264 -0.407370
C11   C     C_2   0.428013 0.429624 0.920832 -0.040608
C12   C     C_R   0.262618 0.496429 0.499882 0.797380
C13   C     C_2   0.430414 0.427288 0.076471 -0.045645
C14   C     C_R   0.503836 0.734804 0.501241 0.873605
C15   C     C_R   0.737377 0.496189 0.499961 0.777471
C16   C     C_R   0.129593 0.295590 0.631274 -0.285769
C17   C     C_R   0.065167 0.200691 0.695606 0.050124
C18   C     C_R   0.935255 0.201457 0.695284 -0.090440
C19   C     C_R   0.870560 0.295622 0.631497 -0.234036
C20   C     C_R   0.934419 0.392771 0.567756 0.098432
Cu1   Cu    Cu3+1 0.500020 0.500020 0.638630 0.958870
Cu2   Cu    Cu3+1 0.499980 0.499980 0.361370 0.955003
H1    H     H_    0.112967 0.649477 0.373996 0.160096
H2    H     H_    0.441734 0.090611 0.570266 0.150518
H3    H     H_    0.363173 0.368559 0.868364 0.147274
H4    H     H_    0.562568 0.554497 0.894993 0.200848
H5    H     H_    0.370073 0.361907 0.126578 0.159139
H6    H     H_    0.553825 0.562912 0.107215 0.200528
H7    H     H_    0.229859 0.291103 0.629287 0.133226
H8    H     H_    0.883353 0.128347 0.743070 0.183825
H9    H     H_    0.770378 0.289959 0.630714 0.153630
H10   H     H_    0.887094 0.649458 0.374218 0.160644
H11   H     H_    0.553862 0.883802 0.294482 0.203150
H12   H     H_    0.517535 0.910267 0.608067 0.166165
N1    N     N_2   0.498640 0.498660 0.846910 -0.277985
N2    N     N_2   0.498610 0.498630 0.153040 -0.282580
O1    O     O_R   0.500020 0.321960 0.617040 -0.580732
O2    O     O_R   0.499980 0.321920 0.382900 -0.578783
O3    O     O_R   0.319670 0.500020 0.617100 -0.571661
O4    O     O_R   0.319630 0.499980 0.382950 -0.570290
O5    O     O_R   0.500020 0.678080 0.617100 -0.566107
O6    O     O_R   0.499980 0.678040 0.382960 -0.575565
O7    O     O_R   0.680370 0.500020 0.617050 -0.572864
O8    O     O_R   0.680330 0.499980 0.382900 -0.578669
C21   C     C_2   0.135336 0.100601 0.761014 0.358069
H13   H     H_    0.236121 0.101476 0.759588 0.055129
O9    O     O_2   0.081852 0.016108 0.817170 -0.525290
C22   C     C_2   0.652418 0.118591 0.299838 0.407207
H14   H     H_    0.687338 0.211243 0.314303 0.086437
O10   O     O_2   0.690665 0.058445 0.201569 -0.543497

loop_
_geom_bond_atom_site_label_1
_geom_bond_atom_site_label_2
_ccdc_geom_bond_type
Cu1   O1    S    
C12   O4    A    
C18   H8    S    
C2    C16   A    
C9    C10   D    
C19   C20   A    
Cu1   O3    S    
C1    O1    A    
C14   O6    A    
C5    H10   S    
C19   H9    S    
C12   O3    A    
C22   O10   D    
C17   C18   A    
C6    C15   S    
Cu2   O4    S    
C7    C8    D    
C8    H12   S    
Cu1   Cu2   S    
C7    H11   S    
Cu2   O6    S    
C6    C20   A    
C13   N2    D    
C14   O5    A    
Cu1   O5    S    
C1    O2    A    
C11   N1    D    
C22   H14   S    
C17   C21   S    
C15   O8    A    
C2    C3    A    
C21   O9    D    
C5    C6    A    
Cu2   O8    S    
Cu1   N1    S    
C16   C17   A    
C11   H3    S    
C15   O7    A    
C3    C4    A    
Cu2   O2    S    
H4    N1    S    
C11   C13   S    
Cu2   N2    S    
H6    N2    S    
C9    C22   S    
C18   C19   A    
C7    C9    S    
C4    H1    S    
C13   H5    S    
C8    C14   S    
C3    C12   S    
C10   H2    S    
C16   H7    S    
C21   H13   S    
C2    C20   A    
Cu1   O7    S    
C1    C10   S    
C4    C5    A    
