data_mof_unit_52784.cif
_audit_creation_date              2012-12-11T15:55:44-0500
_audit_creation_method            fapswitch 2.2
_symmetry_space_group_name_H-M    P1
_symmetry_Int_Tables_number       1
_space_group_crystal_system       triclinic
_cell_length_a                    6.933418
_cell_length_b                    14.536184
_cell_length_c                    16.101668
_cell_angle_alpha                 89.982353
_cell_angle_beta                  89.795131
_cell_angle_gamma                 89.813814
_cell_volume                      1622.79467749

loop_
_atom_site_label
_atom_site_type_symbol
_atom_type_description
_atom_site_fract_x
_atom_site_fract_y
_atom_site_fract_z
_atom_type_partial_charge
O1    O     O_R   0.505680 0.583900 0.413320 -0.540613
O2    O     O_R   0.176010 0.594950 0.586080 -0.545318
O3    O     O_R   0.005680 0.416100 0.586680 -0.542566
C1    C     C_R   0.344638 0.617331 0.614793 0.685559
O4    O     O_R   0.175960 0.594930 0.413930 -0.534491
O5    O     O_R   0.005640 0.416080 0.413300 -0.513685
C2    C     C_R   0.344924 0.616916 0.385037 0.798526
O6    O     O_R   0.505720 0.583920 0.586700 -0.546204
O7    O     O_3   0.339190 0.441320 0.500000 -0.362646
V1    V     V_3+5 0.064350 0.510890 0.500000 1.480087
O8    O     O_R   0.675920 0.405050 0.413920 -0.535697
C3    C     C_R   0.845670 0.384634 0.383644 0.764143
O9    O     O_R   0.675960 0.405070 0.586070 -0.548981
C4    C     C_R   0.844755 0.382905 0.614818 0.684800
V2    V     V_3+5 0.564340 0.489110 0.500000 1.463334
O10   O     O_3   0.839370 0.558680 0.500000 -0.375985
C5    C     C_R   0.006121 0.317701 0.741786 0.105944
C6    C     C_R   0.852694 0.317313 0.685347 -0.107331
C7    C     C_R   0.702009 0.254613 0.700326 -0.168153
H1    H     H_    0.580375 0.251781 0.658673 0.137645
C8    C     C_R   0.713300 0.190406 0.765778 -0.142180
H2    H     H_    0.599480 0.140279 0.772729 0.141073
C9    C     C_R   0.875869 0.186772 0.818080 -0.100705
C10   C     C_R   0.017705 0.253939 0.806331 0.098579
C11   C     C_3   0.229811 0.242569 0.795138 -0.408244
C12   C     C_3   0.217314 0.312442 0.725167 -0.395030
H3    H     H_    0.268309 0.172274 0.773486 0.176568
H4    H     H_    0.312248 0.267718 0.849636 0.176323
H5    H     H_    0.249431 0.282962 0.662936 0.177198
H6    H     H_    0.291680 0.378195 0.739366 0.168376
C13   C     C_R   0.024579 0.247465 0.195666 -0.178490
H7    H     H_    0.146283 0.247413 0.153270 0.173569
C14   C     C_R   0.017398 0.314025 0.258465 0.286280
C15   C     C_R   0.858840 0.316917 0.314366 -0.154756
C16   C     C_R   0.710294 0.252528 0.304275 -0.175456
H8    H     H_    0.588579 0.252586 0.346666 0.178992
C17   C     C_R   0.717466 0.185971 0.241470 0.286807
C18   C     C_R   0.876048 0.183071 0.185583 -0.152200
C19   C     C_R   0.201221 0.699608 0.738079 -0.123700
H9    H     H_    0.070828 0.659332 0.732147 0.132500
C20   C     C_R   0.215314 0.763155 0.803215 -0.131023
H10   H     H_    0.095104 0.769782 0.845952 0.168686
C21   C     C_R   0.382297 0.816848 0.813800 -0.097170
C22   C     C_R   0.535690 0.805657 0.756125 0.260795
C23   C     C_R   0.522135 0.740110 0.692504 -0.161257
H11   H     H_    0.641270 0.732622 0.649283 0.155064
C24   C     C_R   0.355428 0.686614 0.682557 -0.098438
C25   C     C_R   0.206326 0.747119 0.301422 -0.201303
H12   H     H_    0.080612 0.748247 0.341553 0.162363
C26   C     C_R   0.218694 0.810980 0.236519 0.660381
C27   C     C_R   0.380283 0.812145 0.182637 -0.243670
C28   C     C_R   0.529449 0.746693 0.196219 0.237402
C29   C     C_R   0.516930 0.684802 0.262720 -0.139274
H13   H     H_    0.632287 0.635370 0.271725 0.170675
C30   C     C_R   0.355994 0.684096 0.315763 -0.189028
O11   O     O_R   0.229200 0.915950 0.913350 -0.544766
O12   O     O_R   0.559090 0.905000 0.086080 -0.509162
O13   O     O_R   0.729280 0.083880 0.086680 -0.524904
C31   C     C_R   0.390283 0.881498 0.114200 0.835592
O14   O     O_R   0.558920 0.904980 0.913920 -0.519454
O15   O     O_R   0.729110 0.083860 0.913300 -0.547264
C32   C     C_R   0.390944 0.884160 0.883751 0.712088
O16   O     O_R   0.229360 0.915970 0.086730 -0.501557
O17   O     O_3   0.395680 0.058580 0.000030 -0.386347
V3    V     V_3+5 0.670570 0.989070 0.999990 1.614178
O18   O     O_R   0.058820 0.094950 0.913870 -0.552701
C33   C     C_R   0.889768 0.116768 0.884882 0.702278
O19   O     O_R   0.058990 0.094970 0.086020 -0.536836
C34   C     C_R   0.889242 0.115348 0.116316 0.780817
V4    V     V_3+5 0.170560 0.010930 0.999930 1.562920
O20   O     O_3   0.895590 0.941310 0.999960 -0.340187
Br1   Br    Br    0.509501 0.098668 0.240129 -0.506737
Br2   Br    Br    0.761761 0.881913 0.755569 -0.588938
F1    F     F_    0.073202 0.872968 0.227887 -0.641529
Br3   Br    Br    0.749810 0.732441 0.124377 -0.483194
Br4   Br    Br    0.225296 0.401356 0.259753 -0.542374

loop_
_geom_bond_atom_site_label_1
_geom_bond_atom_site_label_2
_ccdc_geom_bond_type
C25   C30   A    
C20   H10   S    
C4    C6    S    
C7    H1    S    
C2    C30   S    
C1    O6    A    
C28   Br3   S    
C19   C20   A    
C29   H13   S    
C28   C29   A    
C11   H4    S    
C5    C12   S    
C16   C17   A    
C6    C7    A    
C26   F1    S    
O5    C3    A    
O12   C31   A    
V2    O10   S    
O14   C32   A    
C15   C16   A    
C23   C24   A    
C9    C33   S    
O13   V3    S    
O8    V2    S    
C16   H8    S    
V3    O20   S    
O19   C34   A    
C9    C10   A    
C13   C14   A    
V4    O20   S    
O1    V2    S    
O17   V4    S    
O7    V1    S    
C25   C26   A    
O18   C33   A    
C18   C34   S    
O9    C4    A    
C20   C21   A    
C14   C15   A    
C29   C30   A    
C5    C10   A    
C27   C28   A    
C10   C11   S    
C19   H9    S    
O4    C2    A    
C26   C27   A    
C11   C12   S    
C23   H11   S    
O2    C1    A    
C21   C22   A    
C17   C18   A    
O15   C33   A    
C14   Br4   S    
C13   H7    S    
O16   V4    S    
C5    C6    A    
O3    C4    A    
C25   H12   S    
O14   V3    S    
C12   H6    S    
O6    V2    S    
O11   V4    S    
O9    V2    S    
O11   C32   A    
C27   C31   S    
C3    C15   S    
O2    V1    S    
C22   C23   A    
C19   C24   A    
C7    C8    A    
O1    C2    A    
O12   V3    S    
O5    V1    S    
O8    C3    A    
O13   C34   A    
C11   H3    S    
C31   O16   A    
C13   C18   A    
O17   V3    S    
C8    C9    A    
O7    V2    S    
O4    V1    S    
O3    V1    S    
V1    O10   S    
O18   V4    S    
C22   Br2   S    
O15   V3    S    
C12   H5    S    
O19   V4    S    
C17   Br1   S    
C8    H2    S    
C21   C32   S    
C1    C24   S    
