data_mof_unit_16185.cif
_audit_creation_date              2012-12-10T17:11:01-0500
_audit_creation_method            fapswitch 2.2
_symmetry_space_group_name_H-M    P1
_symmetry_Int_Tables_number       1
_space_group_crystal_system       triclinic
_cell_length_a                    10.003127
_cell_length_b                    10.664877
_cell_length_c                    16.722649
_cell_angle_alpha                 89.842801
_cell_angle_beta                  85.697231
_cell_angle_gamma                 88.249122
_cell_volume                      1778.14867466

loop_
_atom_site_label
_atom_site_type_symbol
_atom_type_description
_atom_site_fract_x
_atom_site_fract_y
_atom_site_fract_z
_atom_type_partial_charge
C1    C     C_R   0.497015 0.737893 0.505948 0.917379
C2    C     C_R   0.526896 0.519951 0.260081 -0.034893
C3    C     C_2   0.598615 0.066287 0.541680 0.522958
C4    C     C_R   0.481889 0.508303 0.652937 0.907764
C5    C     C_2   0.511902 0.129317 0.497871 -0.447037
C6    C     C_2   0.601217 0.929867 0.535055 -0.379551
C7    C     C_2   0.487337 0.867541 0.530471 0.023617
C8    C     C_2   0.082055 0.412729 0.466291 -0.139558
C9    C     C_2   0.931486 0.408456 0.471316 -0.142935
C10   C     C_R   0.502459 0.262207 0.500033 0.981107
C11   C     C_R   0.517907 0.501752 0.346587 0.849213
C12   C     C_R   0.351727 0.547572 0.783120 -0.270118
C13   C     C_R   0.471901 0.554034 0.735146 -0.116765
C14   C     C_R   0.578915 0.620344 0.761804 -0.232927
C15   C     C_R   0.570873 0.672399 0.838148 0.212209
C16   C     C_R   0.453713 0.655959 0.889078 0.069585
C17   C     C_R   0.342095 0.597349 0.860527 0.225606
C18   C     C_3   0.805317 0.081375 0.597158 0.104305
C19   C     C_3   0.818262 0.994792 0.669660 -0.341367
C20   C     C_3   0.958214 0.933606 0.668426 -0.965980
C21   C     C_3   0.252950 0.925870 0.505530 -0.769856
C22   C     C_3   0.215637 0.464909 0.953178 -0.805998
C23   C     C_R   0.416373 0.573233 0.140664 -0.165211
C24   C     C_3   0.810389 0.680550 0.861886 -0.830013
C25   C     C_R   0.409092 0.541764 0.221117 -0.210945
C26   C     C_R   0.652284 0.526352 0.216933 -0.200193
C27   C     C_R   0.659440 0.556942 0.135951 -0.177356
C28   C     C_R   0.541760 0.583080 0.098041 0.199786
C29   C     C_2   0.457673 0.672778 0.975448 -0.222721
C30   C     C_2   0.551764 0.607403 0.012127 -0.248201
H1    H     H_    0.668621 0.634335 0.722688 0.180967
H2    H     H_    0.744498 0.509525 0.245843 0.156507
H3    H     H_    0.633910 0.559900 0.976961 0.179578
H4    H     H_    0.323671 0.587174 0.111973 0.138491
H5    H     H_    0.266671 0.501010 0.761468 0.163752
H6    H     H_    0.372508 0.717986 0.009018 0.172616
H7    H     H_    0.871020 0.162226 0.603968 0.162048
H8    H     H_    0.844285 0.035152 0.540009 0.106693
H9    H     H_    0.798410 0.050419 0.725638 0.229109
H10   H     H_    0.743323 0.920030 0.670089 0.232888
H11   H     H_    0.974190 0.868233 0.616825 0.255337
H12   H     H_    0.756691 0.561319 0.102985 0.125788
H13   H     H_    0.968506 0.879509 0.724453 0.266539
H14   H     H_    0.036078 0.005906 0.663832 0.270486
H15   H     H_    0.357236 0.990577 0.601991 0.242702
H16   H     H_    0.209833 0.023005 0.503738 0.220471
H17   H     H_    0.172666 0.861847 0.526913 0.248662
H18   H     H_    0.290107 0.898576 0.443481 0.236674
H19   H     H_    0.136678 0.601841 0.881440 0.224496
H20   H     H_    0.211206 0.386188 0.910120 0.240632
H21   H     H_    0.124106 0.465175 0.995077 0.234041
H22   H     H_    0.304376 0.450156 0.988580 0.259754
H23   H     H_    0.450907 0.082910 0.456610 0.136874
H24   H     H_    0.658293 0.806079 0.909039 0.238819
H25   H     H_    0.842652 0.673734 0.923928 0.232626
H26   H     H_    0.884350 0.735887 0.825276 0.246806
H27   H     H_    0.810372 0.584125 0.836792 0.245651
H28   H     H_    0.698301 0.882587 0.523383 0.158158
H29   H     H_    0.138135 0.337341 0.434343 0.158890
H30   H     H_    0.095708 0.565772 0.533672 0.159331
H31   H     H_    0.887389 0.325252 0.448651 0.156851
H32   H     H_    0.893264 0.580618 0.516008 0.159305
H33   H     H_    0.311026 0.536642 0.252949 0.160649
N1    N     N_2   0.147950 0.498670 0.499150 -0.189821
N2    N     N_2   0.852290 0.498640 0.499130 -0.188066
N3    N     N_2   0.359143 0.919691 0.560028 -0.293845
N4    N     N_2   0.222252 0.583222 0.910762 -0.316801
N5    N     N_2   0.679518 0.743240 0.862725 -0.302423
O1    O     O_R   0.386960 0.680940 0.500010 -0.594512
O2    O     O_R   0.613100 0.680900 0.499990 -0.641581
O3    O     O_R   0.373570 0.500040 0.615810 -0.614193
O4    O     O_R   0.599710 0.500000 0.615790 -0.607769
O5    O     O_R   0.386900 0.319100 0.500010 -0.623300
O6    O     O_R   0.613040 0.319060 0.499990 -0.572859
O7    O     O_R   0.400290 0.500000 0.384210 -0.616214
O8    O     O_R   0.626430 0.499960 0.384190 -0.614763
O9    O     O_3   0.672233 0.129755 0.595746 -0.623012
Zn1   Zn    Zn3+2 0.349000 0.500030 0.500020 0.938746
Zn2   Zn    Zn3+2 0.651000 0.499970 0.499980 0.946317

loop_
_geom_bond_atom_site_label_1
_geom_bond_atom_site_label_2
_ccdc_geom_bond_type
C26   H2    S    
N2    Zn2   S    
C21   N3    S    
C6    H28   S    
C19   C20   S    
O8    Zn2   S    
C14   H1    S    
C3    C6    S    
C20   H11   S    
C24   H25   S    
C29   H6    S    
C26   C27   A    
C9    H31   S    
C5    H23   S    
C18   H7    S    
O4    Zn2   S    
C11   O8    A    
C8    H29   S    
C10   O5    A    
H24   N5    S    
C15   C16   A    
C18   C19   S    
C25   H33   S    
C4    C13   S    
C8    C9    S    
C12   C17   A    
O5    Zn1   S    
H32   N2    S    
C22   H20   S    
C21   H18   S    
C13   C14   A    
O1    Zn1   S    
C2    C11   S    
C20   H14   S    
C17   N4    S    
C24   H27   S    
C16   C29   S    
C1    O1    A    
H15   N3    S    
C29   C30   D    
C23   H4    S    
C2    C26   A    
C23   C28   A    
C12   H5    S    
C19   H9    S    
C8    N1    D    
O6    Zn2   S    
C3    O9    S    
C4    O4    A    
C20   H13   S    
C22   H22   S    
C21   H16   S    
H19   N4    S    
C30   H3    S    
O2    Zn2   S    
C1    C7    S    
N1    Zn1   S    
C3    C5    D    
C6    C7    D    
C24   H26   S    
C1    O2    A    
H30   N1    S    
C28   C30   S    
C18   H8    S    
C5    C10   S    
C11   O7    A    
C4    O3    A    
C7    N3    S    
C10   O6    A    
C27   H12   S    
C16   C17   A    
C18   O9    S    
C15   N5    S    
C2    C25   A    
C23   C25   A    
O7    Zn1   S    
C9    N2    D    
C22   N4    S    
C19   H10   S    
C24   N5    S    
C12   C13   A    
C27   C28   A    
C14   C15   A    
O3    Zn1   S    
C22   H21   S    
C21   H17   S    
