data_mof_unit_16744.cif
_audit_creation_date              2012-12-10T17:24:43-0500
_audit_creation_method            fapswitch 2.2
_symmetry_space_group_name_H-M    P1
_symmetry_Int_Tables_number       1
_space_group_crystal_system       triclinic
_cell_length_a                    18.802851
_cell_length_b                    18.692266
_cell_length_c                    19.050912
_cell_angle_alpha                 109.625711
_cell_angle_beta                  110.022745
_cell_angle_gamma                 108.826974
_cell_volume                      5150.04821865

loop_
_atom_site_label
_atom_site_type_symbol
_atom_type_description
_atom_site_fract_x
_atom_site_fract_y
_atom_site_fract_z
_atom_type_partial_charge
C1    C     C_R   0.612626 0.619912 0.492564 0.871088
C2    C     C_3   0.180757 0.424101 0.202926 0.242675
C3    C     C_3   0.218795 0.474562 0.301208 -0.278116
C4    C     C_3   0.309993 0.497797 0.312278 -0.172302
C5    C     C_R   0.623521 0.793962 0.533695 -0.250772
C6    C     C_R   0.632571 0.877284 0.557158 0.215969
C7    C     C_R   0.698382 0.939078 0.556397 0.176490
C8    C     C_R   0.760407 0.920381 0.543284 -0.242362
C9    C     C_R   0.751745 0.836441 0.518973 0.045964
C10   C     C_R   0.681221 0.771412 0.512253 0.046891
C11   C     C_R   0.812162 0.816196 0.501151 -0.149701
C12   C     C_R   0.377638 0.498257 0.379333 0.868822
C13   C     C_R   0.797462 0.729940 0.468150 -0.003467
C14   C     C_R   0.716282 0.662966 0.440461 0.059917
C15   C     C_R   0.667839 0.684851 0.479160 -0.197787
C16   C     C_R   0.860376 0.708161 0.460016 -0.272638
C17   C     C_R   0.840608 0.620850 0.418880 0.215723
C18   C     C_R   0.752153 0.553930 0.371633 0.113379
C19   C     C_R   0.688057 0.577481 0.375319 0.143923
C20   C     C_R   0.804835 0.596495 0.679351 0.088633
C21   C     C_R   0.878779 0.680607 0.734761 0.191306
C22   C     C_R   0.920523 0.714413 0.825167 0.097198
C23   C     C_R   0.374281 0.380035 0.494148 0.919056
C24   C     C_R   0.891678 0.659032 0.857559 0.171127
C25   C     C_R   0.828761 0.569339 0.797527 -0.031771
C26   C     C_R   0.771408 0.550066 0.716465 -0.061359
C27   C     C_R   0.814603 0.498519 0.813939 -0.176464
C28   C     C_R   0.734689 0.418197 0.755421 -0.026686
C29   C     C_R   0.663114 0.416513 0.696462 0.019447
C30   C     C_R   0.683426 0.487434 0.678856 -0.153685
C31   C     C_R   0.723999 0.338414 0.752665 0.181356
C32   C     C_R   0.643002 0.276448 0.731155 0.232678
C33   C     C_R   0.570588 0.278692 0.683157 -0.296513
C34   C     C_R   0.618610 0.496228 0.619472 0.902559
C35   C     C_R   0.579043 0.340887 0.656365 0.094230
C36   C     C_R   0.354897 0.412076 0.655519 0.164402
C37   C     C_R   0.323844 0.420191 0.715369 0.122600
C38   C     C_R   0.269213 0.343585 0.708676 0.037727
C39   C     C_R   0.257570 0.265528 0.651072 0.089759
C40   C     C_R   0.250824 0.255585 0.570611 -0.012840
C41   C     C_R   0.305538 0.328603 0.572065 -0.073101
C42   C     C_R   0.186194 0.176876 0.490663 -0.136060
C43   C     C_R   0.180038 0.162882 0.408979 -0.050161
C44   C     C_R   0.242790 0.230694 0.408664 -0.043269
C45   C     C_3   0.321426 0.581494 0.308983 0.186875
C46   C     C_R   0.306169 0.312814 0.491518 -0.147921
C47   C     C_R   0.115091 0.081832 0.327367 0.045081
C48   C     C_R   0.118623 0.064817 0.251655 0.167832
C49   C     C_R   0.175262 0.130089 0.248895 0.171619
C50   C     C_R   0.235987 0.212609 0.323902 0.064967
C51   C     C_R   0.000186 0.620725 0.120147 0.877501
C52   C     C_R   0.124399 0.504474 0.128586 0.907523
C53   C     C_R   0.001411 0.378155 0.882611 0.886365
C54   C     C_R   0.882631 0.502966 0.885202 0.861637
C55   C     C_R   0.004846 0.883190 0.382562 0.875376
C56   C     C_3   0.230026 0.558639 0.297225 0.186103
C57   C     C_R   0.879961 0.880338 0.500224 0.876413
C58   C     C_R   0.002262 0.123088 0.619936 0.873706
C59   C     C_R   0.119780 0.113572 0.494152 0.912389
C60   C     C_R   0.152822 0.797157 0.235061 0.182766
C61   C     C_R   0.203674 0.886824 0.266169 0.223485
C62   C     C_R   0.216627 0.945213 0.345116 0.025342
C63   C     C_R   0.164396 0.910879 0.376875 0.056145
C64   C     C_R   0.082153 0.832190 0.314879 -0.013024
C65   C     C_R   0.076839 0.771222 0.243313 -0.091685
C66   C     C_R   0.006359 0.814300 0.320867 -0.132871
C67   C     C_3   0.191447 0.507045 0.198599 -0.180433
C68   C     C_R   0.927247 0.735796 0.260452 -0.013364
C69   C     C_R   0.917045 0.675986 0.184051 0.001560
C70   C     C_R   0.996840 0.689343 0.182240 -0.170176
C71   C     C_R   0.856963 0.719115 0.275660 -0.228190
C72   C     C_R   0.772375 0.659013 0.210375 0.200110
C73   C     C_R   0.755929 0.609090 0.127436 0.179949
C74   C     C_R   0.827200 0.612224 0.113836 0.062013
C75   C     C_R   0.983085 0.393689 0.734398 -0.150305
C76   C     C_R   0.988242 0.411999 0.671841 -0.201999
C77   C     C_R   0.005197 0.362941 0.615062 -0.159417
C78   C     C_3   0.282894 0.529753 0.210109 -0.237566
C79   C     C_R   0.014720 0.291899 0.617269 0.166889
C80   C     C_R   0.004063 0.267382 0.679573 0.009307
C81   C     C_R   0.992050 0.323198 0.740713 0.052266
C82   C     C_R   0.010571 0.195755 0.689321 -0.180770
C83   C     C_R   0.011002 0.185818 0.761524 -0.043231
C84   C     C_R   0.975719 0.227025 0.803290 -0.043597
C85   C     C_R   0.985698 0.306838 0.805986 -0.150123
C86   C     C_R   0.038643 0.132323 0.790693 0.142112
C87   C     C_R   0.006800 0.101238 0.837575 0.157132
C88   C     C_R   0.951510 0.125742 0.860225 0.098287
C89   C     C_3   0.271099 0.445552 0.213741 0.186233
C90   C     C_R   0.934039 0.187453 0.841382 0.153669
H1    H     H_    0.814010 0.972117 0.549940 0.170280
H2    H     H_    0.926654 0.758648 0.489457 0.182157
H3    H     H_    0.507563 0.223483 0.655785 0.144374
H4    H     H_    0.307563 0.552423 0.172010 0.158575
H5    H     H_    0.866320 0.758185 0.338110 0.176382
H6    H     H_    0.970783 0.436207 0.776984 0.159985
H7    H     H_    0.982212 0.466881 0.669388 0.142483
H8    H     H_    0.015466 0.384149 0.571253 0.138864
H9    H     H_    0.193837 0.449185 0.337757 0.149691
H10   H     H_    0.567303 0.746787 0.527587 0.178791
O1    O     O_R   0.592010 0.539900 0.448660 -0.629834
O2    O     O_R   0.054870 0.643310 0.094700 -0.635604
O3    O     O_R   0.044440 0.448270 0.096110 -0.631080
O4    O     O_R   0.147870 0.551680 0.096080 -0.626181
O5    O     O_R   0.952810 0.356650 0.912880 -0.629699
O6    O     O_R   0.056240 0.460060 0.912840 -0.619622
O7    O     O_R   0.859800 0.448280 0.911500 -0.640645
O8    O     O_R   0.963240 0.551690 0.911470 -0.626702
O9    O     O_R   0.052860 0.908430 0.461230 -0.634262
O10   O     O_R   0.948620 0.908400 0.356980 -0.623055
O11   O     O_R   0.960510 0.908410 0.552140 -0.640877
O12   O     O_R   0.591210 0.643320 0.551330 -0.627608
O13   O     O_R   0.856270 0.908390 0.447890 -0.625380
O14   O     O_R   0.051380 0.091620 0.643040 -0.612594
O15   O     O_R   0.947140 0.091600 0.538800 -0.622224
O16   O     O_R   0.143730 0.091640 0.552130 -0.651830
O17   O     O_R   0.039490 0.091610 0.447890 -0.605072
O18   O     O_R   0.408080 0.448290 0.356360 -0.648464
O19   O     O_R   0.407280 0.551710 0.459030 -0.634371
O20   O     O_R   0.408790 0.356680 0.448670 -0.595545
O21   O     O_R   0.407990 0.460100 0.551340 -0.606275
O22   O     O_R   0.592720 0.448290 0.540970 -0.646539
O23   O     O_R   0.591920 0.551710 0.643640 -0.627786
O24   O     O_R   0.951440 0.539900 0.094740 -0.622058
Zn1   Zn    Zn3+2 0.500540 0.430950 0.431450 0.859703
Zn2   Zn    Zn3+2 0.499460 0.569050 0.568550 0.889842
Zn3   Zn    Zn3+2 0.934770 0.430930 0.003810 0.880066
Zn4   Zn    Zn3+2 0.072900 0.569020 0.003770 0.894171
Zn5   Zn    Zn3+2 0.069600 0.000030 0.569620 0.888007
Zn6   Zn    Zn3+2 0.930400 0.000000 0.430410 0.882923
C91   C     C_3   0.207044 0.622250 0.346518 -0.432595
C92   C     C_3   0.224659 0.628963 0.433497 -0.869962
H11   H     H_    0.179385 0.566479 0.423981 0.254334
H12   H     H_    0.292935 0.645358 0.472455 0.266039
H13   H     H_    0.214127 0.681172 0.469676 0.246557
H14   H     H_    0.247850 0.687903 0.359361 0.205165
H15   H     H_    0.137191 0.600838 0.306902 0.199168
C93   C     C_3   0.701475 0.023302 0.564263 -0.432429
C94   C     C_3   0.673294 0.019231 0.477069 -0.866683
H16   H     H_    0.718491 0.011164 0.453923 0.267905
H17   H     H_    0.606198 0.963702 0.428619 0.258809
H18   H     H_    0.673906 0.080680 0.483411 0.252365
H19   H     H_    0.658004 0.036786 0.587348 0.234747
H20   H     H_    0.768924 0.078552 0.611634 0.217306
C95   C     C_3   0.915801 0.603334 0.427444 -0.415906
C96   C     C_3   0.957359 0.632800 0.378855 -0.856873
H21   H     H_    0.985462 0.704324 0.405963 0.255134
H22   H     H_    0.908585 0.599074 0.309260 0.274475
H23   H     H_    0.010625 0.617111 0.385397 0.248306
H24   H     H_    0.966171 0.639443 0.496995 0.196125
H25   H     H_    0.896682 0.533799 0.404991 0.209497
C97   C     C_3   0.594820 0.519460 0.297458 -0.361647
C98   C     C_3   0.543013 0.566485 0.281232 -0.879914
H26   H     H_    0.511820 0.571099 0.321059 0.254999
H27   H     H_    0.585107 0.632710 0.295447 0.272077
H28   H     H_    0.490636 0.528834 0.212414 0.237693
H29   H     H_    0.598556 0.491681 0.238176 0.196524
H30   H     H_    0.557079 0.462740 0.301156 0.212271
C99   C     C_3   0.778110 0.549149 0.584551 -0.316528
C100  C     C_3   0.852172 0.539888 0.573560 -0.911000
H31   H     H_    0.904561 0.603136 0.591776 0.271793
H32   H     H_    0.879893 0.513680 0.613427 0.256742
H33   H     H_    0.826744 0.493574 0.505067 0.234078
H34   H     H_    0.725009 0.481278 0.550614 0.228609
H35   H     H_    0.756607 0.583594 0.551987 0.219121
N1    N     N_2   0.908810 0.730840 0.698645 -0.307539
H36   H     H_    0.975456 0.765279 0.726197 0.225683
C101  C     C_3   0.866127 0.780620 0.684100 -0.799976
H37   H     H_    0.892688 0.816701 0.655178 0.249280
H38   H     H_    0.877241 0.828548 0.745662 0.226276
H39   H     H_    0.795092 0.736451 0.639840 0.254894
C102  C     C_3   0.995697 0.807825 0.885549 -0.394804
C103  C     C_3   0.082846 0.809418 0.915652 -0.887911
H40   H     H_    0.086219 0.769642 0.947350 0.273845
H41   H     H_    0.091643 0.782719 0.859580 0.249741
H42   H     H_    0.136822 0.877660 0.961982 0.246997
H43   H     H_    0.996432 0.848635 0.854835 0.209642
H44   H     H_    0.989217 0.842319 0.940491 0.204450
C104  C     C_3   0.890912 0.699512 0.940683 -0.421557
C105  C     C_3   0.977865 0.744113 0.022353 -0.854189
H45   H     H_    0.015220 0.710511 0.013111 0.301363
H46   H     H_    0.016600 0.812906 0.042167 0.256830
H47   H     H_    0.966181 0.745489 0.075585 0.241391
H48   H     H_    0.868239 0.747669 0.941199 0.195263
H49   H     H_    0.841539 0.649438 0.942265 0.179268
C106  C     C_3   0.407307 0.667987 0.373101 -0.388419
C107  C     C_3   0.419258 0.734636 0.343163 -0.929419
H50   H     H_    0.407461 0.705151 0.276365 0.262800
H51   H     H_    0.375663 0.761598 0.348191 0.262554
H52   H     H_    0.487301 0.789405 0.384993 0.257948
H53   H     H_    0.411366 0.696176 0.436659 0.212266
H54   H     H_    0.461511 0.653976 0.381314 0.192294
C108  C     C_3   0.786844 0.307817 0.743168 -0.335031
C109  C     C_3   0.752156 0.244932 0.648666 -0.907501
H55   H     H_    0.800284 0.224717 0.643320 0.269131
H56   H     H_    0.741469 0.277505 0.609936 0.265814
H57   H     H_    0.689753 0.185985 0.621959 0.266270
H58   H     H_    0.799667 0.276908 0.782413 0.260243
H59   H     H_    0.849078 0.362882 0.765705 0.183618
N2    N     N_2   0.633105 0.204291 0.744820 -0.315821
H60   H     H_    0.571898 0.149794 0.704256 0.225270
C110  C     C_3   0.665783 0.226754 0.834239 -0.848734
H61   H     H_    0.657952 0.167623 0.839461 0.241209
H62   H     H_    0.628626 0.252240 0.859389 0.238574
H63   H     H_    0.736081 0.276509 0.874294 0.259132
C111  C     C_3   0.499899 0.311972 0.576131 -0.346201
C112  C     C_3   0.503006 0.260537 0.496335 -0.761801
H64   H     H_    0.557104 0.301289 0.492011 0.262871
H65   H     H_    0.514153 0.206803 0.499609 0.233141
H66   H     H_    0.440393 0.231581 0.436712 0.251752
H67   H     H_    0.439663 0.268375 0.571081 0.186108
H68   H     H_    0.493751 0.368651 0.581215 0.207117
N3    N     N_2   0.165460 0.113350 0.166169 -0.276535
H69   H     H_    0.170104 0.162020 0.151554 0.227913
C113  C     C_3   0.198413 0.059345 0.130353 -0.804638
H70   H     H_    0.237215 0.089903 0.105523 0.220936
H71   H     H_    0.143042 0.995449 0.074869 0.253752
H72   H     H_    0.240707 0.050202 0.179757 0.247812
N4    N     N_2   0.442924 0.476511 0.689957 -0.261284
H73   H     H_    0.490280 0.469035 0.729016 0.208014
C114  C     C_3   0.463597 0.566939 0.714934 -0.654268
H74   H     H_    0.511881 0.597286 0.699246 0.263193
H75   H     H_    0.495455 0.609212 0.785425 0.186205
H76   H     H_    0.404861 0.570384 0.680143 0.208749
C115  C     C_3   0.358109 0.507487 0.793311 -0.324474
C116  C     C_3   0.441444 0.532109 0.871943 -0.866455
H77   H     H_    0.433911 0.477294 0.884636 0.267899
H78   H     H_    0.498401 0.548583 0.862968 0.247764
H79   H     H_    0.457130 0.589279 0.930084 0.237890
H80   H     H_    0.366972 0.560365 0.777908 0.181192
H81   H     H_    0.307820 0.506313 0.811142 0.194996
C117  C     C_3   0.222238 0.340407 0.759857 -0.393352
C118  C     C_3   0.278119 0.377669 0.856938 -0.866874
H82   H     H_    0.234390 0.357708 0.881654 0.253438
H83   H     H_    0.325142 0.353729 0.871069 0.246351
H84   H     H_    0.312223 0.449688 0.894207 0.263386
H85   H     H_    0.183865 0.373962 0.749879 0.204366
H86   H     H_    0.175311 0.271146 0.733026 0.224226
C119  C     C_3   0.297476 0.222568 0.695996 -0.291767
C120  C     C_3   0.346972 0.187139 0.659585 -0.921015
H87   H     H_    0.303453 0.134856 0.591220 0.262776
H88   H     H_    0.399104 0.241680 0.665191 0.253996
H89   H     H_    0.376927 0.160283 0.697290 0.240767
H90   H     H_    0.346403 0.271791 0.765131 0.189001
H91   H     H_    0.248363 0.171791 0.697625 0.229259
N5    N     N_2   0.040912 0.016988 0.316486 -0.252904
H92   H     H_    0.039241 0.957932 0.297521 0.201895
C121  C     C_3   0.957758 0.009416 0.265430 -0.623135
H93   H     H_    0.921672 0.011750 0.300676 0.247027
H94   H     H_    0.915837 0.945384 0.204646 0.199938
H95   H     H_    0.966304 0.063123 0.250352 0.203091
N6    N     N_2   0.059899 0.981330 0.174228 -0.282463
H96   H     H_    0.045752 0.926152 0.179755 0.215459
C122  C     C_3   0.990275 0.975122 0.104116 -0.761036
H97   H     H_    0.926513 0.921244 0.082946 0.215370
H98   H     H_    0.000275 0.960171 0.048086 0.236402
H99   H     H_    0.987815 0.037022 0.123300 0.240024
N7    N     N_2   0.287300 0.274627 0.309277 -0.258113
H100  H     H_    0.259055 0.306353 0.285702 0.203206
C123  C     C_3   0.342032 0.252911 0.276567 -0.637838
H101  H     H_    0.407395 0.309340 0.309954 0.254731
H102  H     H_    0.315226 0.234369 0.207849 0.180586
H103  H     H_    0.351026 0.200295 0.286052 0.208257
N8    N     N_2   0.669937 0.569372 0.056264 -0.299627
H104  H     H_    0.660440 0.588074 0.010255 0.219166
C124  C     C_3   0.599536 0.490820 0.037088 -0.851467
H105  H     H_    0.571645 0.438408 0.970134 0.243874
H106  H     H_    0.547297 0.504052 0.041459 0.247245
H107  H     H_    0.622092 0.467573 0.082252 0.233121
C125  C     C_3   0.205960 0.751764 0.250005 -0.345602
C126  C     C_3   0.252949 0.744451 0.198373 -0.754875
H108  H     H_    0.208911 0.717418 0.128969 0.272148
H109  H     H_    0.310168 0.808307 0.225166 0.250492
H110  H     H_    0.277374 0.698840 0.202603 0.241321
H111  H     H_    0.255908 0.789620 0.319759 0.162385
H112  H     H_    0.164801 0.685707 0.236387 0.190185
N9    N     N_2   0.254866 0.914229 0.229820 -0.292965
H113  H     H_    0.300135 0.979363 0.262246 0.235076
C127  C     C_3   0.206788 0.880178 0.137866 -0.872146
H114  H     H_    0.171370 0.808085 0.101508 0.261081
H115  H     H_    0.252124 0.903768 0.115560 0.243084
H116  H     H_    0.158733 0.902383 0.123407 0.257534
C128  C     C_3   0.291647 0.038521 0.400519 -0.400894
C129  C     C_3   0.379676 0.041819 0.439789 -0.895617
H117  H     H_    0.422177 0.096241 0.507659 0.249406
H118  H     H_    0.372387 0.980546 0.440152 0.263496
H119  H     H_    0.412646 0.052232 0.402856 0.247828
H120  H     H_    0.290592 0.072666 0.362728 0.197742
H121  H     H_    0.283639 0.076227 0.453383 0.202294
C130  C     C_3   0.211560 0.936390 0.472045 -0.342990
C131  C     C_3   0.196314 0.857401 0.485051 -0.847323
H122  H     H_    0.127261 0.817540 0.464229 0.276228
H123  H     H_    0.215676 0.815723 0.447669 0.247473
H124  H     H_    0.236365 0.880120 0.554533 0.230947
H125  H     H_    0.283012 0.973953 0.501234 0.209242
H126  H     H_    0.197785 0.981980 0.511888 0.238423
N10   N     N_2   0.704318 0.659077 0.227365 -0.295592
H127  H     H_    0.649116 0.599304 0.194691 0.251437
C132  C     C_3   0.685955 0.728101 0.225551 -0.766010
H128  H     H_    0.660598 0.718887 0.159401 0.233991
H129  H     H_    0.745680 0.792985 0.271684 0.266828
H130  H     H_    0.636225 0.726954 0.244568 0.229372
C133  C     C_3   0.800831 0.555020 0.021132 -0.329594
C134  C     C_3   0.754865 0.457058 0.991287 -0.744124
H131  H     H_    0.706934 0.439708 0.012011 0.242687
H132  H     H_    0.719599 0.418573 0.919715 0.239587
H133  H     H_    0.801077 0.435789 0.017423 0.271301
H134  H     H_    0.755602 0.567083 0.977702 0.160890
H135  H     H_    0.855057 0.573024 0.009454 0.198468
C135  C     C_3   0.913174 0.087264 0.906396 -0.335964
C136  C     C_3   0.848293 0.989070 0.849279 -0.862444
H136  H     H_    0.803602 0.972044 0.783142 0.260727
H137  H     H_    0.882959 0.951253 0.845093 0.264004
H138  H     H_    0.808891 0.968766 0.878140 0.234812
H139  H     H_    0.966340 0.098620 0.964835 0.212842
H140  H     H_    0.880392 0.120160 0.930823 0.187526
C137  C     C_3   0.299263 0.385091 0.169418 -0.381401
C138  C     C_3   0.260352 0.355655 0.073926 -0.937809
H141  H     H_    0.188080 0.319493 0.040112 0.279181
H142  H     H_    0.282282 0.412488 0.064284 0.264046
H143  H     H_    0.283581 0.312125 0.046312 0.252608
H144  H     H_    0.371165 0.419590 0.200668 0.225224
H145  H     H_    0.279153 0.327329 0.177121 0.205992
C139  C     C_3   0.049967 0.259281 0.560744 -0.380795
C140  C     C_3   0.983756 0.216145 0.464154 -0.756806
H146  H     H_    0.927819 0.153059 0.441308 0.272424
H147  H     H_    0.957692 0.258211 0.450282 0.210126
H148  H     H_    0.015996 0.205236 0.425635 0.248729
H149  H     H_    0.108570 0.316289 0.576625 0.174512
H150  H     H_    0.075355 0.218072 0.575516 0.201602
N11   N     N_2   0.110913 0.123781 0.789349 -0.242616
H151  H     H_    0.102224 0.061399 0.766288 0.232281
C141  C     C_3   0.195845 0.189427 0.863482 -0.808622
H152  H     H_    0.242060 0.209556 0.841172 0.240196
H153  H     H_    0.219653 0.162520 0.904362 0.229883
H154  H     H_    0.193630 0.246756 0.902583 0.251782
N12   N     N_2   0.026894 0.040920 0.858107 -0.295722
H155  H     H_    0.023650 0.990967 0.810151 0.214228
C142  C     C_3   0.095572 0.075668 0.944805 -0.820755
H156  H     H_    0.148763 0.063047 0.942573 0.231406
H157  H     H_    0.068775 0.042087 0.975356 0.254860
H158  H     H_    0.123158 0.147159 0.985147 0.249074
N13   N     N_2   0.861054 0.194362 0.842457 -0.275800
H159  H     H_    0.868712 0.222473 0.903186 0.236986
C143  C     C_3   0.776517 0.116935 0.779464 -0.810122
H160  H     H_    0.733179 0.133324 0.740111 0.274411
H161  H     H_    0.746173 0.091066 0.812642 0.231816
H162  H     H_    0.781207 0.064708 0.735090 0.249818
N14   N     N_2   0.097872 0.343364 0.145400 -0.278216
H163  H     H_    0.048444 0.350253 0.153283 0.246072
C144  C     C_3   0.096533 0.265873 0.144668 -0.888536
H164  H     H_    0.028361 0.211311 0.105326 0.234298
H165  H     H_    0.122745 0.275997 0.210990 0.234287
H166  H     H_    0.132881 0.247538 0.114048 0.252891
C145  C     C_3   0.724926 0.458507 0.316843 -0.425636
C146  C     C_3   0.733142 0.441438 0.236425 -0.874383
H167  H     H_    0.689386 0.371236 0.186430 0.240141
H168  H     H_    0.715091 0.481085 0.209391 0.255703
H169  H     H_    0.800520 0.457038 0.251782 0.265653
H170  H     H_    0.762987 0.437260 0.355305 0.189754
H171  H     H_    0.656643 0.414527 0.295766 0.188746
N15   N     N_2   0.572539 0.897253 0.576985 -0.319421
H172  H     H_    0.510042 0.861776 0.525023 0.234545
C147  C     C_3   0.574819 0.896759 0.653475 -0.831619
H173  H     H_    0.535675 0.925247 0.670592 0.242938
H174  H     H_    0.642665 0.936445 0.708741 0.253712
H175  H     H_    0.546936 0.828836 0.641628 0.234320

loop_
_geom_bond_atom_site_label_1
_geom_bond_atom_site_label_2
_ccdc_geom_bond_type
C102  H43   S    
C109  H56   S    
C131  H122  S    
N12   H155  S    
C135  H140  S    
C141  H152  S    
C105  H45   S    
C54   O7    A    
C129  H117  S    
C4    C89   S    
C93   H19   S    
C58   C82   S    
C5    C6    A    
C94   H18   S    
C109  H57   S    
C71   H5    S    
C126  H108  S    
C49   N3    S    
C122  H98   S    
C53   O6    A    
C134  H133  S    
C45   C56   S    
C139  C140  S    
N2    H60   S    
C112  H66   S    
C45   C78   S    
C1    C15   S    
C4    C12   S    
C73   N8    S    
C23   C46   S    
C21   C22   A    
C121  H94   S    
C95   C96   S    
C77   C79   A    
C78   C89   S    
C145  H171  S    
C110  H61   S    
C100  H33   S    
C62   C128  S    
O5    Zn3   S    
C111  C112  S    
O23   Zn2   S    
C108  H59   S    
C146  H169  S    
C21   N1    S    
C64   C66   A    
C48   N6    S    
C75   C76   A    
C37   C38   A    
C145  C146  S    
O4    Zn4   S    
C5    H10   S    
C74   C133  S    
C76   C77   A    
C98   H28   S    
O24   Zn3   S    
C101  H37   S    
C60   C65   A    
C1    O1    A    
C96   H21   S    
C141  H154  S    
C44   C50   A    
C97   H29   S    
C90   N13   S    
C138  H143  S    
C128  H120  S    
C14   C19   A    
C129  H119  S    
C72   C73   A    
C94   H16   S    
C6    C7    A    
C29   C35   A    
C115  H80   S    
C139  H149  S    
O7    Zn3   S    
C64   C65   A    
C11   C13   A    
C16   C17   A    
C78   H4    S    
C127  H115  S    
C69   C70   A    
C56   C91   S    
O19   Zn2   S    
C111  H68   S    
C83   C86   A    
C20   C21   A    
N2    C110  S    
C108  C109  S    
C53   C85   S    
C106  C107  S    
C43   C47   A    
N6    H96   S    
N11   C141  S    
C52   O3    A    
N14   H163  S    
C144  H164  S    
C72   N10   S    
C39   C119  S    
C144  H166  S    
C7    C8    A    
C57   O11   A    
C51   O2    A    
C29   C30   A    
C130  H126  S    
C36   C37   A    
C131  H123  S    
C130  C131  S    
O2    Zn4   S    
C1    O12   A    
C38   C39   A    
N15   H172  S    
C65   C70   A    
C147  H173  S    
C140  H147  S    
C138  H142  S    
C137  H144  S    
C2    N14   S    
C31   C32   A    
N8    H104  S    
O1    Zn1   S    
O3    Zn3   S    
C118  H82   S    
C95   H24   S    
C133  H135  S    
C40   C42   A    
C34   O22   A    
N9    H113  S    
C55   O9    A    
N1    C101  S    
N10   C132  S    
C84   C90   A    
C36   N4    S    
C115  C116  S    
C4    C45   S    
C103  H41   S    
O13   Zn6   S    
C30   C34   S    
C80   C82   A    
C91   H14   S    
C113  H72   S    
C39   C40   A    
C31   C108  S    
C68   C69   A    
C57   O13   A    
C50   N7    S    
C122  H99   S    
C25   C26   A    
C99   H35   S    
C100  H32   S    
C114  H74   S    
C12   O19   A    
C118  H83   S    
C35   C111  S    
C83   C84   A    
C146  H168  S    
C17   C18   A    
O8    Zn4   S    
C87   N12   S    
C52   C67   S    
C124  H106  S    
C92   H12   S    
C26   C30   A    
N13   C143  S    
O9    Zn5   S    
C117  H85   S    
C143  H161  S    
C3    C4    S    
C104  H48   S    
C102  H44   S    
N5    H92   S    
C40   C41   A    
C61   N9    S    
C125  H111  S    
C123  H101  S    
C124  H107  S    
C42   C59   S    
C133  H134  S    
C147  H175  S    
C54   O8    A    
O22   Zn1   S    
C136  H137  S    
N7    H100  S    
N3    C113  S    
C71   C72   A    
C93   H20   S    
C94   H17   S    
N1    H36   S    
C101  H38   S    
C120  H87   S    
C33   C35   A    
C92   H11   S    
C61   C62   A    
C118  H84   S    
C63   C64   A    
C53   O5    A    
C142  H158  S    
C97   C98   S    
C116  H77   S    
C13   C16   A    
C128  C129  S    
C112  H65   S    
C14   C15   A    
C81   C85   A    
O15   Zn6   S    
C126  H110  S    
C87   C88   A    
C73   C74   A    
C119  C120  S    
C136  H136  S    
C23   O21   A    
N3    H69   S    
C110  H62   S    
C28   C29   A    
C114  H76   S    
C108  H58   S    
O6    Zn4   S    
C18   C19   A    
C106  H53   S    
C89   C137  S    
C107  H52   S    
O11   Zn5   S    
C44   C46   A    
C59   O16   A    
C110  H63   S    
C63   C130  S    
C127  H114  S    
O18   Zn1   S    
C98   H27   S    
O12   Zn2   S    
C37   C115  S    
C109  H55   S    
C51   O24   A    
C36   C41   A    
C123  H103  S    
N12   C142  S    
C75   H6    S    
C96   H22   S    
C135  H139  S    
C141  H153  S    
C97   H30   S    
C112  H64   S    
C84   C85   A    
N4    H73   S    
C86   C87   A    
C38   C117  S    
C76   H7    S    
C120  H89   S    
C60   C61   A    
C2    C89   S    
C17   C95   S    
C132  H128  S    
C122  H97   S    
C91   H15   S    
C96   H23   S    
C99   C100  S    
C8    H1    S    
C115  H81   S    
C12   O18   A    
C48   C49   A    
C88   C90   A    
C16   H2    S    
O14   Zn5   S    
C22   C24   A    
C42   C43   A    
C91   C92   S    
C116  H79   S    
C55   C66   S    
C121  H93   S    
N6    C122  S    
C135  C136  S    
C52   O4    A    
O20   Zn1   S    
C86   N11   S    
C28   C31   A    
C79   C139  S    
C33   H3    S    
C7    C93   S    
C144  H165  S    
C104  H49   S    
C119  H91   S    
C32   C33   A    
C107  H50   S    
C32   N2    S    
N11   H151  S    
N15   C147  S    
C68   C71   A    
C129  H118  S    
C117  C118  S    
C147  H174  S    
O10   Zn6   S    
C113  H70   S    
C140  H146  S    
C93   C94   S    
C104  C105  S    
C5    C10   A    
N8    C124  S    
C82   C83   A    
C125  C126  S    
C60   C125  S    
C11   C57   S    
C47   N5    S    
C66   C68   A    
N13   H159  S    
C34   O23   A    
N10   H127  S    
C43   C44   A    
C6    N15   S    
C27   C54   S    
C103  H40   S    
C128  H121  S    
C62   C63   A    
C10   C15   A    
C113  H71   S    
C45   C106  S    
C18   C145  S    
C139  H150  S    
C127  H116  S    
C111  H67   S    
O16   Zn5   S    
C142  H156  S    
C8    C9    A    
C20   C99   S    
C41   C46   A    
C119  H90   S    
C51   C70   S    
C105  H47   S    
C145  H170  S    
N14   C144  S    
C133  C134  S    
C117  H86   S    
C9    C11   A    
C67   C78   S    
C132  H130  S    
C101  H39   S    
N5    C121  S    
C130  H125  S    
C125  H112  S    
C69   C74   A    
C131  H124  S    
C24   C25   A    
C123  H102  S    
C2    C67   S    
C23   O20   A    
C75   C81   A    
C143  H162  S    
C140  H148  S    
N7    C123  S    
C138  H141  S    
C3    H9    S    
N4    C114  S    
C3    C56   S    
C137  H145  S    
C47   C48   A    
C24   C104  S    
C120  H88   S    
C19   C97   S    
C77   H8    S    
O17   Zn6   S    
C132  H129  S    
C95   H25   S    
C134  H131  S    
C142  H157  S    
C49   C50   A    
C116  H78   S    
N9    C127  S    
C55   O10   A    
C58   O15   A    
C102  C103  S    
C58   O14   A    
C9    C10   A    
C103  H42   S    
C126  H109  S    
C105  H46   S    
C99   H34   S    
C80   C81   A    
C121  H95   S    
C25   C27   A    
C56   C67   S    
C88   C135  S    
C100  H31   S    
C2    C3    S    
C143  H160  S    
O21   Zn2   S    
C114  H75   S    
C20   C26   A    
C92   H13   S    
C134  H132  S    
C146  H167  S    
C106  H54   S    
C137  C138  S    
C107  H51   S    
C124  H105  S    
C79   C80   A    
C59   O17   A    
C136  H138  S    
C27   C28   A    
C98   H26   S    
C13   C14   A    
C22   C102  S    
