data_mof_unit_23936.cif
_audit_creation_date              2012-12-10T18:34:35-0500
_audit_creation_method            fapswitch 2.2
_symmetry_space_group_name_H-M    P1
_symmetry_Int_Tables_number       1
_space_group_crystal_system       triclinic
_cell_length_a                    14.74488
_cell_length_b                    15.475532
_cell_length_c                    15.714343
_cell_angle_alpha                 90.024742
_cell_angle_beta                  104.300563
_cell_angle_gamma                 80.231822
_cell_volume                      3421.05793525

loop_
_atom_site_label
_atom_site_type_symbol
_atom_type_description
_atom_site_fract_x
_atom_site_fract_y
_atom_site_fract_z
_atom_type_partial_charge
C1    C     C_R   0.439624 0.662607 0.482770 0.863117
C2    C     C_R   0.565129 0.096139 0.488108 0.092285
C3    C     C_R   0.365528 0.929773 0.390888 0.150500
C4    C     C_R   0.656234 0.059939 0.540749 0.149337
C5    C     C_R   0.521151 0.950757 0.480379 0.074372
C6    C     C_R   0.499593 0.040369 0.451775 0.076937
C7    C     C_R   0.413517 0.070873 0.387979 -0.230684
C8    C     C_R   0.614224 0.915919 0.530029 -0.231553
C9    C     C_R   0.348447 0.015835 0.357238 -0.233848
C10   C     C_R   0.681102 0.969670 0.558110 -0.236972
C11   C     C_R   0.845905 0.622871 0.645230 -0.333752
C12   C     C_R   0.560600 0.337084 0.513646 0.856727
C13   C     C_R   0.147318 0.394551 0.344597 -0.323350
C14   C     C_R   0.757327 0.597828 0.622480 0.004561
C15   C     C_R   0.242781 0.396629 0.381819 0.005923
C16   C     C_R   0.500778 0.500265 0.662147 0.907021
C17   C     C_R   0.499756 0.498645 0.338040 0.895191
C18   C     C_R   0.790238 0.531417 0.495464 -0.060459
C19   C     C_R   0.202988 0.495116 0.487291 -0.059014
C20   C     C_R   0.878021 0.561327 0.510851 -0.029105
C21   C     C_R   0.104672 0.501296 0.448572 -0.036086
C22   C     C_R   0.908501 0.604542 0.590092 0.120205
C23   C     C_R   0.300229 0.874299 0.358754 -0.242522
C24   C     C_R   0.076101 0.448035 0.376241 0.115909
C25   C     C_R   0.939559 0.541504 0.454138 -0.023730
C26   C     C_R   0.034684 0.553397 0.483983 -0.021367
C27   C     C_R   0.055323 0.615968 0.549012 0.052642
C28   C     C_R   0.910183 0.510057 0.368624 0.045111
C29   C     C_R   0.998709 0.631184 0.610285 0.078991
C30   C     C_R   0.977712 0.452916 0.335068 0.080242
C31   C     C_3   0.455416 0.574496 0.018048 0.164845
C32   C     C_3   0.547178 0.421052 0.982959 0.167720
C33   C     C_3   0.546388 0.562785 0.984394 -0.213588
C34   C     C_R   0.720838 0.114458 0.577839 -0.240769
C35   C     C_3   0.456205 0.432790 0.016626 -0.210283
C36   C     C_1   0.502565 0.500460 0.751550 -0.201379
C37   C     C_1   0.498808 0.496974 0.248937 -0.201273
C38   C     C_3   0.411152 0.511736 0.950112 -0.216193
C39   C     C_3   0.591398 0.483816 0.050871 -0.223086
C40   C     C_3   0.502674 0.499089 0.917880 0.148929
C41   C     C_3   0.499926 0.496448 0.083048 0.146414
C42   C     C_1   0.503177 0.500153 0.827042 -0.087286
C43   C     C_1   0.498941 0.496134 0.173686 -0.091341
C44   C     C_R   0.401414 0.755559 0.456754 -0.091723
C45   C     C_R   0.318999 0.785823 0.387800 0.086105
C46   C     C_R   0.600977 0.242763 0.520697 -0.097310
C47   C     C_3   0.121514 0.679501 0.540209 -0.433423
C48   C     C_3   0.067305 0.774514 0.521137 -0.345140
C49   C     C_3   0.134775 0.838963 0.520720 -0.886905
C50   C     C_3   0.814182 0.551695 0.308504 -0.429082
C51   C     C_3   0.826385 0.605631 0.231131 -0.340201
C52   C     C_3   0.731373 0.658399 0.179832 -0.896215
C53   C     C_3   0.402243 0.661038 0.041605 -0.433831
C54   C     C_3   0.371651 0.727724 0.963516 -0.337092
C55   C     C_3   0.311197 0.811122 0.984694 -0.893720
C56   C     C_R   0.694420 0.206048 0.569592 0.095846
C57   C     C_3   0.600580 0.334031 0.960708 -0.429846
C58   C     C_3   0.635463 0.270337 0.041300 -0.340488
C59   C     C_3   0.694260 0.185537 0.020966 -0.888603
C60   C     C_3   0.766495 0.259955 0.617578 -0.396599
C61   C     C_3   0.824975 0.286918 0.556880 -0.317624
C62   C     C_3   0.901415 0.336803 0.606180 -0.884421
C63   C     C_3   0.253242 0.726796 0.339031 -0.423487
C64   C     C_3   0.292252 0.681665 0.265440 -0.306171
C65   C     C_3   0.233780 0.613142 0.223661 -0.860139
C66   C     C_3   0.036592 0.672064 0.697619 -0.436943
C67   C     C_R   0.461297 0.813999 0.493000 -0.288735
C68   C     C_3   0.069432 0.602006 0.773200 -0.337456
C69   C     C_3   0.104387 0.642615 0.861201 -0.908634
C70   C     C_3   0.944356 0.394788 0.259260 -0.437177
C71   C     C_3   0.951420 0.300233 0.293253 -0.339383
C72   C     C_3   0.922994 0.240426 0.217647 -0.900800
C73   C     C_R   0.539732 0.187370 0.478700 -0.295634
C74   C     C_R   0.450104 0.897952 0.455370 0.094662
H1    H     H_    0.296652 0.361031 0.352892 0.128554
H2    H     H_    0.791194 0.085406 0.616418 0.131833
H3    H     H_    0.396251 0.135949 0.357449 0.139548
H4    H     H_    0.638323 0.846637 0.545785 0.153334
H5    H     H_    0.582728 0.616013 0.969491 0.136651
H6    H     H_    0.420021 0.379547 0.031776 0.133791
H7    H     H_    0.229220 0.529979 0.545070 0.136143
H8    H     H_    0.767984 0.489979 0.441783 0.134247
H9    H     H_    0.171920 0.824147 0.467882 0.270399
H10   H     H_    0.093772 0.906829 0.508481 0.248465
H11   H     H_    0.187985 0.835219 0.585061 0.262934
H12   H     H_    0.708617 0.614235 0.663757 0.137821
H13   H     H_    0.015304 0.779084 0.455914 0.222531
H14   H     H_    0.026959 0.795054 0.570817 0.221620
H15   H     H_    0.181593 0.674314 0.599746 0.194610
H16   H     H_    0.152700 0.663681 0.483686 0.200089
H17   H     H_    0.678836 0.614539 0.157168 0.267820
H18   H     H_    0.703013 0.708331 0.221836 0.264029
H19   H     H_    0.741363 0.692588 0.121590 0.246598
H20   H     H_    0.875700 0.652038 0.256492 0.226445
H21   H     H_    0.857187 0.562361 0.185352 0.215005
H22   H     H_    0.769642 0.501198 0.284860 0.190899
H23   H     H_    0.862948 0.657499 0.705130 0.152647
H24   H     H_    0.773683 0.599023 0.344436 0.221881
H25   H     H_    0.245484 0.795811 0.999237 0.261567
H26   H     H_    0.351945 0.841863 0.042280 0.263273
H27   H     H_    0.290684 0.858562 0.927359 0.249125
H28   H     H_    0.435624 0.744961 0.946940 0.220063
H29   H     H_    0.329789 0.698908 0.905156 0.217952
H30   H     H_    0.338736 0.647705 0.061913 0.205867
H31   H     H_    0.449368 0.687932 0.098017 0.202376
H32   H     H_    0.650998 0.152437 0.966895 0.263505
H33   H     H_    0.758002 0.199635 0.001616 0.260604
H34   H     H_    0.131099 0.353697 0.289116 0.152211
H35   H     H_    0.718117 0.140643 0.080362 0.250650
H36   H     H_    0.679925 0.301319 0.096365 0.216436
H37   H     H_    0.573521 0.254353 0.062633 0.221130
H38   H     H_    0.552352 0.304683 0.907103 0.202403
H39   H     H_    0.662110 0.347276 0.936934 0.202649
H40   H     H_    0.284296 0.040927 0.307003 0.142579
H41   H     H_    0.751504 0.940744 0.596550 0.141705
H42   H     H_    0.868804 0.395680 0.635439 0.272208
H43   H     H_    0.953040 0.293883 0.659353 0.254821
H44   H     H_    0.940245 0.358158 0.559981 0.250192
H45   H     H_    0.664898 0.471021 0.093648 0.135574
H46   H     H_    0.860105 0.227331 0.530357 0.211732
H47   H     H_    0.778064 0.328833 0.500386 0.233135
H48   H     H_    0.731881 0.317767 0.646687 0.214215
H49   H     H_    0.816020 0.220504 0.674759 0.184516
H50   H     H_    0.234550 0.562314 0.273828 0.280008
H51   H     H_    0.159149 0.644741 0.193657 0.248133
H52   H     H_    0.264554 0.580689 0.171618 0.240796
H53   H     H_    0.290748 0.731570 0.213982 0.210316
H54   H     H_    0.367139 0.649463 0.291859 0.221051
H55   H     H_    0.240474 0.678438 0.384421 0.224238
H56   H     H_    0.337688 0.523993 0.907221 0.141823
H57   H     H_    0.181810 0.766060 0.309122 0.184676
H58   H     H_    0.164102 0.677017 0.859274 0.263200
H59   H     H_    0.045721 0.690046 0.876624 0.262586
H60   H     H_    0.129780 0.590251 0.914162 0.249131
H61   H     H_    0.010692 0.567200 0.777535 0.226305
H62   H     H_    0.128472 0.552700 0.760755 0.220602
H63   H     H_    0.098415 0.703557 0.697152 0.212251
H64   H     H_    0.982271 0.725929 0.710588 0.189573
H65   H     H_    0.848789 0.264387 0.179546 0.263966
H66   H     H_    0.971363 0.238300 0.173266 0.259973
H67   H     H_    0.469251 0.217115 0.442833 0.162595
H68   H     H_    0.927777 0.172882 0.244227 0.250854
H69   H     H_    0.024867 0.273323 0.331419 0.226732
H70   H     H_    0.903346 0.299734 0.337720 0.219176
H71   H     H_    0.869460 0.417456 0.223355 0.204282
H72   H     H_    0.985403 0.397336 0.209128 0.192146
H73   H     H_    0.519221 0.791259 0.549538 0.154063
H74   H     H_    0.237037 0.898772 0.307135 0.134018
N1    N     N_R   0.731710 0.552730 0.549140 -0.093148
N2    N     N_R   0.268290 0.447270 0.450860 -0.095610
O1    O     O_R   0.383110 0.605620 0.475230 -0.619951
O2    O     O_R   0.616890 0.394380 0.524770 -0.616080
O3    O     O_R   0.531900 0.639510 0.506760 -0.607800
O4    O     O_R   0.468100 0.360490 0.493240 -0.610479
O5    O     O_R   0.425620 0.483070 0.607460 -0.610392
O6    O     O_R   0.574380 0.516930 0.392540 -0.618825
O7    O     O_R   0.574400 0.516960 0.638990 -0.625058
O8    O     O_R   0.425600 0.483040 0.361010 -0.613246
Zn1   Zn    Zn3+2 0.400660 0.477370 0.478940 0.926486
Zn2   Zn    Zn3+2 0.599340 0.522630 0.521060 0.924056

loop_
_geom_bond_atom_site_label_1
_geom_bond_atom_site_label_2
_ccdc_geom_bond_type
C66   C68   S    
C21   C26   A    
O2    Zn2   S    
C34   C56   A    
C69   H60   S    
C23   C45   A    
C22   C29   A    
C63   H55   S    
C27   C29   A    
C47   H15   S    
C12   O2    A    
C15   H1    S    
C39   C41   S    
C73   H67   S    
C53   C54   S    
C25   C28   A    
C72   H68   S    
C26   C27   A    
C33   C39   S    
C9    H40   S    
C38   H56   S    
C49   H10   S    
C19   C21   A    
C5    C6    A    
C11   C14   A    
C32   C39   S    
C57   H38   S    
C20   C25   A    
C53   H30   S    
C35   H6    S    
C19   N2    A    
C61   H47   S    
C65   H50   S    
C5    C74   A    
C3    C74   A    
C62   H43   S    
C18   H8    S    
C28   C50   S    
C72   H65   S    
C68   C69   S    
C64   H54   S    
C55   H26   S    
C48   H14   S    
C70   C71   S    
C70   H72   S    
C63   H57   S    
C18   N1    A    
C7    H3    S    
C40   C42   S    
C61   H46   S    
C8    H4    S    
C41   C43   S    
C2    C6    A    
C32   C57   S    
C13   H34   S    
C30   C70   S    
C15   N2    A    
C4    C34   A    
C50   H24   S    
C33   C40   S    
N2    Zn1   S    
O5    Zn1   S    
C58   H37   S    
C59   H32   S    
C32   C35   S    
C49   H11   S    
C54   H29   S    
O6    Zn2   S    
C35   C38   S    
C14   H12   S    
C12   C46   S    
C70   H71   S    
C33   H5    S    
C57   H39   S    
C25   C26   A    
C45   C63   S    
C59   H33   S    
C51   C52   S    
C13   C24   A    
C60   C61   S    
C65   H51   S    
C37   C43   T    
C60   H49   S    
C2    C4    A    
C62   H42   S    
C3    C9    A    
C53   H31   S    
C1    C44   S    
C47   C48   S    
C66   H64   S    
C68   H62   S    
C64   H53   S    
C16   O5    A    
C31   C33   S    
C50   C51   S    
C48   H13   S    
C52   H19   S    
C67   C74   A    
C17   C37   S    
C31   C53   S    
C1    O3    A    
C17   O8    A    
C2    C73   A    
C48   C49   S    
C20   C22   A    
O7    Zn2   S    
C13   C15   A    
C67   H73   S    
O8    Zn1   S    
C47   H16   S    
C52   H18   S    
C72   H66   S    
C55   H25   S    
C44   C45   A    
C71   H69   S    
C27   C47   S    
C7    C9    A    
C54   C55   S    
C69   H59   S    
C31   C41   S    
C16   O7    A    
C58   H36   S    
C54   H28   S    
C68   H61   S    
C12   O4    A    
C63   C64   S    
C44   C67   A    
C46   C56   A    
C36   C42   T    
C5    C8    A    
C6    C7    A    
C23   H74   S    
C55   H27   S    
C11   C22   A    
C31   C38   S    
C11   H23   S    
C64   C65   S    
C49   H9    S    
O3    Zn2   S    
C28   C30   A    
C58   C59   S    
O4    Zn1   S    
C65   H52   S    
C38   C40   S    
C50   H22   S    
C57   C58   S    
C66   H63   S    
C69   H58   S    
C39   H45   S    
C14   N1    A    
C59   H35   S    
O1    Zn1   S    
C1    O1    A    
C18   C20   A    
C32   C40   S    
C61   C62   S    
C35   C41   S    
N1    Zn2   S    
C24   C30   A    
C62   H44   S    
C51   H20   S    
C29   C66   S    
C60   H48   S    
C71   C72   S    
C56   C60   S    
C8    C10   A    
C21   C24   A    
C34   H2    S    
C52   H17   S    
C3    C23   A    
C19   H7    S    
C17   O6    A    
C4    C10   A    
C46   C73   A    
C16   C36   S    
C10   H41   S    
C51   H21   S    
C71   H70   S    
