data_mof_unit_26140.cif
_audit_creation_date              2012-12-10T17:29:15-0500
_audit_creation_method            fapswitch 2.2
_symmetry_space_group_name_H-M    P1
_symmetry_Int_Tables_number       1
_space_group_crystal_system       triclinic
_cell_length_a                    12.262851
_cell_length_b                    12.909703
_cell_length_c                    13.036412
_cell_angle_alpha                 82.259093
_cell_angle_beta                  112.743494
_cell_angle_gamma                 93.787471
_cell_volume                      1885.75577162

loop_
_atom_site_label
_atom_site_type_symbol
_atom_type_description
_atom_site_fract_x
_atom_site_fract_y
_atom_site_fract_z
_atom_type_partial_charge
C1    C     C_R   0.478599 0.299582 0.500156 0.985618
C2    C     C_R   0.599475 0.462827 0.829003 -0.246985
C3    C     C_R   0.539694 0.811555 0.504833 -0.357183
C4    C     C_R   0.564600 0.490063 0.708292 0.965626
C5    C     C_R   0.467212 0.187388 0.498813 -0.248864
C6    C     C_R   0.346724 0.030640 0.465619 0.473226
C7    C     C_R   0.357062 0.137501 0.472702 -0.278725
C8    C     C_R   0.569050 0.129814 0.523722 0.727045
C9    C     C_R   0.560767 0.024945 0.510516 -0.271274
C10   C     C_R   0.447769 0.975925 0.476293 -0.214479
C11   C     C_R   0.440392 0.874983 0.448964 0.389566
C12   C     C_R   0.544392 0.473454 0.987048 0.127214
C13   C     C_R   0.652890 0.857533 0.555395 0.277390
C14   C     C_R   0.663066 0.965926 0.535235 0.381496
C15   C     C_R   0.996167 0.517053 0.354652 0.367052
C16   C     C_R   0.523301 0.699774 0.503096 0.987380
C17   C     C_R   0.116791 0.536797 0.374794 0.665415
C18   C     C_R   0.164332 0.487108 0.567782 0.455112
C19   C     C_R   0.043726 0.500717 0.552825 -0.304058
C20   C     C_R   0.956572 0.510326 0.444699 -0.303947
C21   C     C_R   0.834894 0.518762 0.431828 0.551751
C22   C     C_R   0.888109 0.463532 0.624877 0.355764
C23   C     C_R   0.556180 0.521837 0.887942 0.025993
C24   C     C_R   0.005696 0.495302 0.642427 0.388192
C25   C     C_R   0.433645 0.505853 0.291583 0.996763
C26   C     C_R   0.346905 0.664643 0.017666 0.579638
C27   C     C_R   0.391783 0.525643 0.170068 -0.330821
C28   C     C_R   0.640909 0.361352 0.876035 0.527812
C29   C     C_R   0.656248 0.325488 0.986062 0.327674
C30   C     C_R   0.609565 0.382825 0.041856 -0.173291
C31   C     C_R   0.467232 0.516960 0.026711 0.012735
C32   C     C_R   0.420956 0.618424 0.977945 -0.120698
C33   C     C_R   0.447077 0.671256 0.889158 0.024501
C34   C     C_R   0.512404 0.623040 0.843476 -0.091120
C35   C     C_R   0.435412 0.465416 0.114668 0.289597
C36   C     C_R   0.333087 0.618221 0.114459 0.584046
F1    F     F_    0.264314 0.663969 0.154825 -0.520041
F2    F     F_    0.677287 0.174307 0.568451 -0.541683
F3    F     F_    0.148617 0.557999 0.285771 -0.531650
F4    F     F_    0.294009 0.757290 0.967049 -0.552001
F5    F     F_    0.650464 0.291910 0.811383 -0.574569
H1    H     H_    0.279662 0.181361 0.459956 0.224158
H2    H     H_    0.947632 0.372231 0.118893 0.395576
H3    H     H_    0.053892 0.654249 0.868362 0.415808
H4    H     H_    0.380227 0.278592 0.729685 0.397535
H5    H     H_    0.499310 0.199338 0.258812 0.400690
H6    H     H_    0.868670 0.117824 0.058450 0.412499
H7    H     H_    0.164748 0.783566 0.250789 0.433693
H8    H     H_    0.413113 0.748576 0.851831 0.218188
H9    H     H_    0.619625 0.353405 0.125791 0.274545
H10   H     H_    0.525253 0.664098 0.770801 0.153029
H11   H     H_    0.796030 0.685453 0.806611 0.415191
H12   H     H_    0.106907 0.085847 0.482208 0.371223
H13   H     H_    0.914398 0.972712 0.450658 0.409948
H14   H     H_    0.790571 0.736056 0.208838 0.408314
H15   H     H_    0.887034 0.413697 0.902639 0.389747
N1    N     N_R   0.798200 0.480260 0.519790 -0.221419
N2    N     N_R   0.201820 0.519740 0.480210 -0.225774
O1    O     O_R   0.579910 0.341070 0.505280 -0.527799
O2    O     O_2   0.865597 0.855055 0.727617 -0.183051
O3    O     O_3   0.730688 0.692801 0.731990 -0.590647
O4    O     O_2   0.124663 0.971371 0.343296 -0.239907
O5    O     O_2   0.233294 0.855527 0.513224 -0.211144
O6    O     O_3   0.155885 0.029186 0.535963 -0.468622
O7    O     O_2   0.759749 0.111521 0.426023 -0.218678
O8    O     O_2   0.875900 0.061020 0.625423 -0.112932
O9    O     O_3   0.862381 0.932078 0.484026 -0.443505
O10   O     O_2   0.674795 0.554452 0.221457 -0.308593
O11   O     O_2   0.674292 0.677179 0.347651 -0.255085
O12   O     O_R   0.388440 0.353740 0.492580 -0.589413
O13   O     O_3   0.842665 0.693330 0.277263 -0.497356
O14   O     O_2   0.765250 0.313589 0.693778 -0.121490
O15   O     O_2   0.976795 0.315790 0.797799 -0.170090
O16   O     O_3   0.855565 0.456713 0.828828 -0.514060
O17   O     O_2   0.822946 0.387210 0.251571 -0.272213
O18   O     O_2   0.850275 0.547467 0.136965 -0.239733
O19   O     O_3   0.000494 0.398275 0.189884 -0.463477
O20   O     O_2   0.149790 0.474175 0.862174 -0.199248
O21   O     O_2   0.182271 0.627779 0.743035 -0.254580
O22   O     O_3   0.001599 0.625321 0.798900 -0.459132
O23   O     O_R   0.643280 0.490550 0.663120 -0.525254
O24   O     O_2   0.320352 0.451900 0.780316 -0.266588
O25   O     O_2   0.161529 0.323415 0.718946 -0.193349
O26   O     O_3   0.332821 0.317364 0.656389 -0.528861
O27   O     O_2   0.298312 0.309847 0.158898 -0.226343
O28   O     O_2   0.395775 0.276880 0.034893 -0.199717
O29   O     O_3   0.522528 0.273838 0.248941 -0.544110
O30   O     O_2   0.744318 0.186223 0.170439 -0.206603
O31   O     O_2   0.627598 0.119011 0.992090 -0.192101
O32   O     O_3   0.840111 0.188930 0.023133 -0.477936
O33   O     O_2   0.289090 0.950266 0.243325 -0.211930
O34   O     O_R   0.451810 0.503220 0.650420 -0.591322
O35   O     O_2   0.411202 0.802772 0.258810 -0.231656
O36   O     O_3   0.233300 0.766977 0.321984 -0.423199
O37   O     O_R   0.611560 0.646260 0.507420 -0.535183
O38   O     O_R   0.420090 0.658930 0.494720 -0.576705
O39   O     O_R   0.548190 0.496780 0.349580 -0.574955
O40   O     O_R   0.356720 0.509450 0.336880 -0.508024
O41   O     O_2   0.834588 0.732514 0.590566 -0.165248
S1    S     S_3+6 0.776684 0.784555 0.652461 0.143256
S2    S     S_3+6 0.716206 0.201017 0.046522 0.146069
S3    S     S_3+6 0.341798 0.849999 0.313360 0.161023
S4    S     S_3+6 0.212458 0.967585 0.462164 0.112606
S5    S     S_3+6 0.793133 0.021866 0.518397 0.186998
S6    S     S_3+6 0.750742 0.611055 0.318001 0.110620
S7    S     S_3+6 0.870225 0.383433 0.737708 0.191119
S8    S     S_3+6 0.911540 0.463140 0.229489 0.111411
S9    S     S_3+6 0.090670 0.555228 0.764984 0.147433
S10   S     S_3+6 0.245925 0.394749 0.683760 0.118126
S11   S     S_3+6 0.409900 0.327987 0.136441 0.083583
Zn1   Zn    Zn3+2 0.627850 0.491540 0.508480 1.185979
Zn2   Zn    Zn3+2 0.372150 0.508460 0.491520 1.143446

loop_
_geom_bond_atom_site_label_1
_geom_bond_atom_site_label_2
_ccdc_geom_bond_type
O6    S4    S    
O17   S8    D    
C19   C20   A    
C18   S10   S    
C22   N1    A    
O30   S2    D    
O29   S11   S    
C26   C32   A    
O38   Zn2   S    
C12   C23   A    
C34   H10   S    
H7    O36   S    
C1    C5    S    
C28   C29   A    
O28   S11   D    
H5    O29   S    
H11   O3    S    
C1    O1    A    
O39   Zn1   S    
H12   O6    S    
C33   H8    S    
C28   F5    S    
O20   S9    D    
C18   C19   A    
C17   F3    S    
C7    H1    S    
C15   S8    S    
C18   N2    A    
C4    O23   A    
O23   Zn1   S    
C8    C9    A    
O1    Zn1   S    
O25   S10   D    
C24   S9    S    
C9    C10   A    
C3    C13   A    
C17   N2    A    
O31   S2    D    
C30   H9    S    
C13   C14   A    
C8    F2    S    
O9    S5    S    
C15   C20   A    
C16   O38   A    
H15   O16   S    
O24   S10   D    
O8    S5    D    
H3    O22   S    
O40   Zn2   S    
O5    S4    D    
O27   S11   D    
C5    C7    A    
O11   S6    D    
O34   Zn2   S    
H13   O9    S    
C27   C35   A    
C22   S7    S    
N2    Zn2   S    
C2    C4    S    
C9    C14   A    
O32   S2    S    
C21   N1    A    
C29   C30   A    
O16   S7    S    
C14   S5    S    
O41   S1    D    
O19   S8    S    
C23   C34   A    
C33   C34   A    
C29   S2    S    
C6    S4    S    
C35   S11   S    
O12   Zn2   S    
C25   O39   A    
O14   S7    D    
O18   S8    D    
O13   S6    S    
C12   C31   A    
H6    O32   S    
C31   C35   A    
H4    O26   S    
H2    O19   S    
O10   S6    D    
O33   S3    D    
O4    S4    D    
C26   C36   A    
C15   C17   A    
C36   F1    S    
C16   O37   A    
C12   C30   A    
C31   C32   A    
C1    O12   A    
O2    S1    D    
O35   S3    D    
C6    C10   A    
C5    C8    A    
C6    C7    A    
C27   C36   A    
C25   C27   S    
O22   S9    S    
O26   S10   S    
C32   C33   A    
C13   S1    S    
C19   C24   A    
O37   Zn1   S    
C26   F4    S    
O15   S7    D    
N1    Zn1   S    
O21   S9    D    
C11   S3    S    
C22   C24   A    
C21   S6    S    
C3    C11   A    
C10   C11   A    
O3    S1    S    
C25   O40   A    
C20   C21   A    
O36   S3    S    
C2    C23   A    
C2    C28   A    
O7    S5    D    
H14   O13   S    
C3    C16   S    
C4    O34   A    
