data_mof_unit_8829.cif
_audit_creation_date              2013-03-05T15:48:15-0500
_audit_creation_method            fapswitch 2.2
_symmetry_space_group_name_H-M    P1
_symmetry_Int_Tables_number       1
_space_group_crystal_system       triclinic
_cell_length_a                    15.757843
_cell_length_b                    15.757841
_cell_length_c                    34.514937
_cell_angle_alpha                 90.002611
_cell_angle_beta                  90.003309
_cell_angle_gamma                 120.001499
_cell_volume                      7422.06301688

loop_
_atom_site_label
_atom_site_type_symbol
_atom_site_description
_atom_site_fract_x
_atom_site_fract_y
_atom_site_fract_z
_atom_type_partial_charge
O1    O     O_R   0.498680 0.159540 0.541860 -0.507085
O2    O     O_R   0.840460 0.339140 0.541860 -0.507027
O3    O     O_R   0.660860 0.501320 0.541860 -0.507038
O4    O     O_R   0.159540 0.498680 0.041860 -0.507094
O5    O     O_R   0.339140 0.840460 0.041860 -0.507027
O6    O     O_R   0.501320 0.660860 0.041860 -0.507040
O7    O     O_R   0.532760 0.358060 0.540030 -0.506504
O8    O     O_R   0.641940 0.174700 0.540030 -0.506449
O9    O     O_R   0.825300 0.467240 0.540030 -0.506506
O10   O     O_R   0.358060 0.532760 0.040030 -0.506500
O11   O     O_R   0.174700 0.641940 0.040030 -0.506429
O12   O     O_R   0.467240 0.825300 0.040030 -0.506500
C1    C     C_R   0.578509 0.441461 0.554919 0.554934
C2    C     C_R   0.558543 0.137047 0.554918 0.554938
C3    C     C_R   0.862953 0.421497 0.554921 0.554886
C4    C     C_R   0.441461 0.578508 0.054919 0.554935
C5    C     C_R   0.137047 0.558543 0.054918 0.554949
C6    C     C_R   0.421497 0.862953 0.054921 0.554895
O13   O     O_R   0.498590 0.161190 0.456930 -0.435945
O14   O     O_R   0.838810 0.337400 0.456930 -0.436127
O15   O     O_R   0.662600 0.501410 0.456930 -0.435905
O16   O     O_R   0.161190 0.498590 0.956930 -0.435963
O17   O     O_R   0.337400 0.838810 0.956930 -0.436196
O18   O     O_R   0.501410 0.662600 0.956930 -0.435926
O19   O     O_R   0.532680 0.359580 0.461300 -0.466857
O20   O     O_R   0.640420 0.173100 0.461300 -0.466907
O21   O     O_R   0.826900 0.467320 0.461300 -0.466827
O22   O     O_R   0.359580 0.532680 0.961300 -0.466855
O23   O     O_R   0.173100 0.640420 0.961300 -0.466920
O24   O     O_R   0.467320 0.826900 0.961300 -0.466821
C7    C     C_R   0.576511 0.442970 0.446043 0.590112
C8    C     C_R   0.557022 0.133533 0.446043 0.590119
C9    C     C_R   0.866444 0.423479 0.446038 0.590035
C10   C     C_R   0.442970 0.576511 0.946043 0.590101
C11   C     C_R   0.133529 0.557020 0.946045 0.590122
C12   C     C_R   0.423479 0.866444 0.946038 0.590013
Cr1   Cr    Cr6+3 0.522350 0.263930 0.500020 1.146798
Cr2   Cr    Cr6+3 0.736070 0.258420 0.500020 1.146790
Cr3   Cr    Cr6+3 0.741580 0.477650 0.500020 1.146811
Cr4   Cr    Cr6+3 0.263930 0.522350 0.000020 1.146790
Cr5   Cr    Cr6+3 0.258420 0.736070 0.000020 1.146779
Cr6   Cr    Cr6+3 0.477650 0.741580 0.000020 1.146810
O25   O     O_3   0.666667 0.333333 0.499990 -0.308300
O26   O     O_3   0.333333 0.666667 0.999990 -0.308300
N1    N     N_R   0.043723 0.459775 0.767560 -0.175881
N2    N     N_R   0.540372 0.583944 0.767603 -0.175489
N3    N     N_R   0.415973 0.956177 0.767560 -0.175587
N4    N     N_R   0.459777 0.043735 0.267564 -0.175784
N5    N     N_R   0.583943 0.540383 0.267604 -0.175473
N6    N     N_R   0.956269 0.415991 0.267569 -0.175562
N7    N     N_R   0.034938 0.454698 0.729170 -0.198225
N8    N     N_R   0.545434 0.580201 0.729214 -0.198136
N9    N     N_R   0.419734 0.965004 0.729173 -0.198229
N10   N     N_R   0.454705 0.034945 0.229175 -0.198206
N11   N     N_R   0.580202 0.545445 0.229215 -0.198130
N12   N     N_R   0.965092 0.419750 0.229181 -0.198211
C13   C     C_R   0.919225 0.456463 0.591089 0.026892
C14   C     C_R   0.543616 0.462730 0.591108 0.026923
C15   C     C_R   0.537274 0.080861 0.591099 0.026932
C16   C     C_R   0.456453 0.919205 0.091092 0.026895
C17   C     C_R   0.462733 0.543616 0.091108 0.026923
C18   C     C_R   0.080868 0.537273 0.091101 0.026935
C19   C     C_R   0.953495 0.400134 0.609706 -0.113761
C20   C     C_R   0.599940 0.553349 0.609719 -0.113737
C21   C     C_R   0.446641 0.046516 0.609696 -0.113770
C22   C     C_R   0.400134 0.953492 0.109705 -0.113761
C23   C     C_R   0.553351 0.599942 0.109718 -0.113739
C24   C     C_R   0.046534 0.446642 0.109699 -0.113769
C25   C     C_R   0.986956 0.420919 0.647807 -0.105912
C26   C     C_R   0.579305 0.565973 0.647846 -0.105945
C27   C     C_R   0.434002 0.013210 0.647817 -0.105968
C28   C     C_R   0.420888 0.986912 0.147812 -0.105921
C29   C     C_R   0.565976 0.579307 0.147846 -0.105944
C30   C     C_R   0.013245 0.434006 0.147821 -0.105965
C31   C     C_R   0.986195 0.498068 0.667860 0.034311
C32   C     C_R   0.502321 0.487988 0.667929 0.034326
C33   C     C_R   0.511988 0.014219 0.667906 0.034333
C34   C     C_R   0.497995 0.986089 0.167874 0.034317
C35   C     C_R   0.487992 0.502323 0.167929 0.034329
C36   C     C_R   0.014258 0.511992 0.167911 0.034333
C37   C     C_R   0.959992 0.559455 0.648060 -0.105545
C38   C     C_R   0.440922 0.400374 0.648143 -0.105537
C39   C     C_R   0.599621 0.040490 0.648131 -0.105523
C40   C     C_R   0.559377 0.959872 0.148080 -0.105541
C41   C     C_R   0.400379 0.440921 0.148142 -0.105535
C42   C     C_R   0.040514 0.599622 0.148136 -0.105523
C43   C     C_R   0.926977 0.538950 0.609944 -0.118032
C44   C     C_R   0.461267 0.387921 0.610000 -0.118050
C45   C     C_R   0.612089 0.073332 0.609996 -0.118024
C46   C     C_R   0.538905 0.926902 0.109958 -0.118036
C47   C     C_R   0.387925 0.461264 0.110000 -0.118049
C48   C     C_R   0.073341 0.612087 0.109998 -0.118019
N13   N     N_R   0.979086 0.566834 0.730695 -0.200178
N14   N     N_R   0.434196 0.411983 0.730798 -0.200154
N15   N     N_R   0.587974 0.022105 0.730784 -0.200121
N16   N     N_R   0.566589 0.978776 0.230720 -0.200171
N17   N     N_R   0.411987 0.434194 0.230796 -0.200154
N18   N     N_R   0.022130 0.587976 0.230787 -0.200128
N19   N     N_R   0.987531 0.571614 0.769042 -0.130198
N20   N     N_R   0.429433 0.415681 0.769143 -0.130506
N21   N     N_R   0.584257 0.013622 0.769128 -0.130481
N22   N     N_R   0.571362 0.987226 0.269067 -0.130281
N23   N     N_R   0.415684 0.429432 0.269142 -0.130513
N24   N     N_R   0.013651 0.584262 0.269131 -0.130495
C49   C     C_R   0.020308 0.518500 0.788224 0.370997
C50   C     C_R   0.482073 0.501711 0.788289 0.371231
C51   C     C_R   0.498207 0.980162 0.788260 0.371270
C52   C     C_R   0.518379 0.020172 0.288237 0.371059
C53   C     C_R   0.501711 0.482079 0.288289 0.371229
C54   C     C_R   0.980223 0.498220 0.288266 0.371265
C55   C     C_R   0.003016 0.508655 0.709971 0.337785
C56   C     C_R   0.491886 0.494192 0.710045 0.337847
C57   C     C_R   0.505765 0.997539 0.710018 0.337863
C58   C     C_R   0.508547 0.002871 0.209986 0.337805
C59   C     C_R   0.494195 0.491889 0.210045 0.337852
C60   C     C_R   0.997591 0.505772 0.210024 0.337872
C61   C     C_R   0.017617 0.442130 0.851197 -0.118415
C62   C     C_R   0.558188 0.575345 0.851293 -0.118373
C63   C     C_R   0.424550 0.982641 0.851249 -0.118452
C64   C     C_R   0.442065 0.017528 0.351213 -0.118412
C65   C     C_R   0.575337 0.558191 0.351294 -0.118366
C66   C     C_R   0.982703 0.424581 0.351261 -0.118436
C67   C     C_R   0.034535 0.446152 0.891152 0.173869
C68   C     C_R   0.553975 0.588261 0.891236 0.174014
C69   C     C_R   0.411649 0.965562 0.891194 0.173730
C70   C     C_R   0.446128 0.034487 0.391166 0.173905
C71   C     C_R   0.588252 0.553974 0.391237 0.174039
C72   C     C_R   0.965603 0.411677 0.391205 0.173800
C73   C     C_R   0.071605 0.616221 0.891254 0.150653
C74   C     C_R   0.383770 0.455513 0.891200 0.150605
C75   C     C_R   0.544425 0.928146 0.891184 0.150649
C76   C     C_R   0.616228 0.071648 0.391242 0.150644
C77   C     C_R   0.455519 0.383761 0.391197 0.150606
C78   C     C_R   0.928131 0.544416 0.391181 0.150644
C79   C     C_R   0.053964 0.611086 0.851167 0.189289
C80   C     C_R   0.389096 0.442990 0.851127 0.189365
C81   C     C_R   0.556929 0.945947 0.851108 0.189372
C82   C     C_R   0.611050 0.053961 0.351158 0.189313
C83   C     C_R   0.442995 0.389093 0.351125 0.189374
C84   C     C_R   0.945953 0.556922 0.351106 0.189386
C85   C     C_R   0.031642 0.524904 0.830702 -0.060620
C86   C     C_R   0.475471 0.506691 0.830745 -0.060479
C87   C     C_R   0.493215 0.968587 0.830714 -0.060457
C88   C     C_R   0.524826 0.031562 0.330710 -0.060585
C89   C     C_R   0.506690 0.475474 0.330744 -0.060477
C90   C     C_R   0.968633 0.493229 0.330720 -0.060457
C91   C     C_R   0.073217 0.537358 0.910430 -0.038124
C92   C     C_R   0.462652 0.535854 0.910437 -0.038262
C93   C     C_R   0.464095 0.926713 0.910416 -0.038306
C94   C     C_R   0.537358 0.073220 0.410429 -0.038157
C95   C     C_R   0.535853 0.462648 0.410437 -0.038263
C96   C     C_R   0.926719 0.464102 0.410418 -0.038309
H1    H     H_    0.949127 0.336592 0.595666 0.154193
H2    H     H_    0.663377 0.612575 0.595650 0.154226
H3    H     H_    0.387411 0.050717 0.595623 0.154207
H4    H     H_    0.336619 0.949165 0.095656 0.154201
H5    H     H_    0.612575 0.663380 0.095649 0.154228
H6    H     H_    0.050734 0.387413 0.095624 0.154209
H7    H     H_    0.901853 0.584165 0.596143 0.145906
H8    H     H_    0.416060 0.317565 0.596206 0.145906
H9    H     H_    0.682457 0.098520 0.596212 0.145914
H10   H     H_    0.584111 0.901763 0.096161 0.145905
H11   H     H_    0.317569 0.416056 0.096206 0.145906
H12   H     H_    0.098521 0.682453 0.096213 0.145922
H13   H     H_    0.007821 0.373004 0.662179 0.157331
H14   H     H_    0.627219 0.634768 0.662213 0.157307
H15   H     H_    0.365194 0.992289 0.662175 0.157272
H16   H     H_    0.372980 0.007789 0.162180 0.157322
H17   H     H_    0.634770 0.627223 0.162213 0.157308
H18   H     H_    0.992333 0.365200 0.162180 0.157279
H19   H     H_    0.960355 0.620577 0.662564 0.156655
H20   H     H_    0.379915 0.339567 0.662673 0.156670
H21   H     H_    0.660431 0.040298 0.662667 0.156678
H22   H     H_    0.620469 0.960193 0.162591 0.156658
H23   H     H_    0.339573 0.379912 0.162672 0.156672
H24   H     H_    0.040324 0.660431 0.162672 0.156680
H25   H     H_    0.992326 0.373556 0.835923 0.207340
H26   H     H_    0.626853 0.618526 0.836069 0.207159
H27   H     H_    0.381349 0.008089 0.836014 0.207178
H28   H     H_    0.373472 0.992197 0.335949 0.207282
H29   H     H_    0.618513 0.626859 0.336071 0.207146
H30   H     H_    0.008179 0.381397 0.336031 0.207154
N25   N     N_R   0.009510 0.357208 0.911823 0.135121
O27   O     O_R   0.977912 0.345900 0.947346 -0.267389
O28   O     O_R   0.000886 0.281200 0.893397 -0.200590
N26   N     N_R   0.642839 0.652112 0.911972 0.135079
O29   O     O_R   0.653990 0.631737 0.947503 -0.267526
O30   O     O_R   0.718919 0.719544 0.893604 -0.200471
N27   N     N_R   0.347766 0.990555 0.911911 0.134892
O31   O     O_R   0.368159 0.022177 0.947430 -0.267479
O32   O     O_R   0.280296 0.999115 0.893528 -0.200613
N28   N     N_R   0.357199 0.009460 0.411850 0.135109
O33   O     O_R   0.345926 0.977875 0.447374 -0.267453
O34   O     O_R   0.281175 0.000829 0.393435 -0.200607
N29   N     N_R   0.652095 0.642837 0.411975 0.135078
O35   O     O_R   0.631716 0.653980 0.447506 -0.267565
O36   O     O_R   0.719524 0.718923 0.393609 -0.200502
N30   N     N_R   0.990607 0.347813 0.411929 0.134916
O37   O     O_R   0.022209 0.368212 0.447451 -0.267526
O38   O     O_R   0.999189 0.280348 0.393553 -0.200621
N31   N     N_R   0.090794 0.702947 0.912042 0.124370
O39   O     O_R   0.038304 0.696292 0.942218 -0.257801
O40   O     O_R   0.159078 0.788729 0.900463 -0.213788
N32   N     N_R   0.296768 0.388226 0.911889 0.124520
O41   O     O_R   0.211249 0.371414 0.900260 -0.214755
O42   O     O_R   0.302893 0.341924 0.942014 -0.257391
N33   N     N_R   0.611714 0.908439 0.911879 0.124545
O43   O     O_R   0.658066 0.960918 0.941990 -0.257356
O44   O     O_R   0.628483 0.839691 0.900268 -0.214885
N34   N     N_R   0.703018 0.090958 0.412008 0.124404
O45   O     O_R   0.696484 0.038479 0.442171 -0.257711
O46   O     O_R   0.788740 0.159339 0.400419 -0.214020
N35   N     N_R   0.388241 0.296750 0.411883 0.124521
O47   O     O_R   0.371445 0.211239 0.400251 -0.214784
O48   O     O_R   0.341923 0.302856 0.442006 -0.257382
N36   N     N_R   0.908382 0.611685 0.411869 0.124546
O49   O     O_R   0.960851 0.658069 0.441977 -0.257340
O50   O     O_R   0.839617 0.628418 0.400248 -0.214931
N37   N     N_R   0.063359 0.695317 0.831333 0.125855
O51   O     O_R   0.005236 0.728972 0.839860 -0.196408
O52   O     O_R   0.136333 0.744294 0.807748 -0.262065
N38   N     N_R   0.304835 0.368397 0.831205 0.125684
O53   O     O_R   0.270270 0.276581 0.839930 -0.195906
O54   O     O_R   0.256757 0.392749 0.807291 -0.262530
N39   N     N_R   0.631514 0.936262 0.831196 0.125662
O55   O     O_R   0.723330 0.993483 0.839936 -0.195829
O56   O     O_R   0.607154 0.863855 0.807267 -0.262516
N40   N     N_R   0.695287 0.063418 0.331304 0.125808
O57   O     O_R   0.729153 0.005495 0.339880 -0.196299
O58   O     O_R   0.744051 0.136258 0.307639 -0.262151
N41   N     N_R   0.368407 0.304832 0.331202 0.125684
O59   O     O_R   0.276590 0.270264 0.339924 -0.195930
O60   O     O_R   0.392764 0.256756 0.307289 -0.262501
N42   N     N_R   0.936247 0.631488 0.331187 0.125665
O61   O     O_R   0.993449 0.723309 0.339924 -0.195861
O62   O     O_R   0.863834 0.607103 0.307258 -0.262501

loop_
_geom_bond_atom_site_label_1
_geom_bond_atom_site_label_2
_geom_bond_distance
_ccdc_geom_bond_type
O14   Cr2   2.089812 S    
O19   C7    1.254408 A    
O7    C1    1.250356 A    
C22   H4    1.083142 S    
Cr6   O26   1.969891 S    
O20   C8    1.254409 A    
O20   Cr2   1.959192 S    
C35   C59   1.471648 S    
C28   C34   1.404144 A    
C63   C87   1.400671 A    
N31   O39   1.301272 A    
C77   C95   1.419445 A    
C52   C88   1.474194 S    
C75   N33   1.435327 S    
C28   H16   1.082817 S    
N40   O58   1.301234 A    
C41   C47   1.391885 A    
C78   N36   1.435329 S    
N35   O47   1.300076 A    
O21   C9    1.254402 A    
N4    N10   1.330465 A    
C2    C15   1.469387 S    
O15   C7    1.257037 A    
C63   H27   1.083375 S    
C46   H10   1.083220 S    
N5    C53   1.357396 A    
C64   C88   1.400777 A    
N36   O50   1.300101 A    
C65   C71   1.399996 A    
N39   O56   1.301229 A    
N16   N22   1.328562 A    
N25   O28   1.301786 A    
N34   O45   1.301261 A    
C78   C84   1.405550 A    
C40   H22   1.082920 S    
C12   C93   1.488486 S    
N7    C55   1.357494 A    
N1    N7    1.330466 A    
C24   C30   1.393481 A    
N2    N8    1.330471 A    
C78   C96   1.419486 A    
O9    Cr3   1.972448 S    
C76   C94   1.419395 A    
O10   Cr4   1.972425 S    
C15   C45   1.403248 A    
N27   O32   1.301729 A    
O2    Cr2   2.077590 S    
C81   N39   1.434034 S    
O13   Cr1   2.089654 S    
C71   C95   1.415546 A    
C73   C79   1.405576 A    
C66   H30   1.083384 S    
C10   C92   1.488479 S    
C72   C96   1.415569 A    
C83   C89   1.410284 A    
C19   C25   1.393494 A    
O21   Cr3   1.959367 S    
C18   C48   1.403243 A    
N15   N21   1.328536 A    
C80   C86   1.410290 A    
C70   N28   1.440964 S    
N22   C52   1.355685 A    
N30   O37   1.301648 A    
C23   C29   1.393489 A    
C20   C26   1.393492 A    
N17   C59   1.356482 A    
O6    C4    1.246145 A    
N13   N19   1.328577 A    
C42   H24   1.082934 S    
O3    C1    1.246146 A    
C70   C94   1.415485 A    
O1    Cr1   2.077779 S    
N3    N9    1.330466 A    
O19   Cr1   1.959365 S    
C48   H12   1.083222 S    
C37   H19   1.082923 S    
C81   C87   1.410266 A    
C16   C22   1.404194 A    
C30   C36   1.404117 A    
C20   H2    1.083135 S    
C84   N42   1.434052 S    
C31   C55   1.471824 S    
C3    C13   1.469487 S    
N16   C58   1.356472 A    
C34   C58   1.471796 S    
N42   O62   1.301224 A    
O8    Cr2   1.972573 S    
N6    C54   1.357382 A    
C24   H6    1.083144 S    
O13   C8    1.257090 A    
N15   C57   1.356484 A    
C45   H9    1.083222 S    
N40   O57   1.301005 A    
N1    C49   1.357415 A    
C33   C57   1.471630 S    
C13   C19   1.404189 A    
C25   H13   1.082816 S    
N35   O48   1.301251 A    
C14   C20   1.404199 A    
C39   C45   1.391886 A    
C38   H20   1.082931 S    
C69   N27   1.440920 S    
C79   C85   1.410353 A    
O12   Cr6   1.972461 S    
N33   O43   1.301250 A    
C36   C60   1.471635 S    
C73   C91   1.419384 A    
C76   N34   1.435410 S    
N36   O49   1.301243 A    
C19   H1    1.083141 S    
N41   O60   1.301229 A    
C84   C90   1.410260 A    
N37   O51   1.300951 A    
O3    Cr3   2.077764 S    
O16   Cr4   2.089643 S    
C31   C37   1.404537 A    
N12   C60   1.357490 A    
Cr3   O25   1.969893 S    
O5    C6    1.246178 A    
C47   H11   1.083218 S    
C21   C27   1.393487 A    
C74   C92   1.419436 A    
C9    C96   1.488483 S    
C33   C39   1.404480 A    
N6    N12   1.330470 A    
C13   C43   1.403250 A    
O7    Cr1   1.972436 S    
N28   O34   1.301759 A    
Cr1   O25   1.969897 S    
C61   C85   1.400825 A    
N25   O27   1.301637 A    
O22   Cr4   1.959378 S    
O4    Cr4   2.077791 S    
C75   C81   1.405544 A    
C71   N29   1.440929 S    
C5    C18   1.469382 S    
N37   O52   1.301250 A    
C7    C95   1.488473 S    
C17   C23   1.404198 A    
N9    C57   1.357502 A    
N18   C60   1.356468 A    
C66   C90   1.400665 A    
N31   O40   1.300089 A    
N26   O30   1.301722 A    
N14   N20   1.328535 A    
C32   C56   1.471654 S    
C79   N37   1.433834 S    
N39   O55   1.301006 A    
C29   C35   1.404125 A    
C8    C94   1.488503 S    
C23   H5    1.083135 S    
C62   C68   1.399991 A    
N38   O54   1.301229 A    
O2    C3    1.246184 A    
N17   N23   1.328534 A    
C69   C93   1.415563 A    
N13   C55   1.356475 A    
O4    C5    1.246156 A    
C62   H26   1.083364 S    
C6    C16   1.469460 S    
N41   O59   1.301001 A    
C67   C91   1.415482 A    
C77   C83   1.405544 A    
N34   O46   1.300088 A    
C39   H21   1.082930 S    
C26   C32   1.404126 A    
C82   N40   1.433871 S    
Cr5   O26   1.969939 S    
C65   C89   1.400690 A    
C75   C93   1.419496 A    
N42   O61   1.301000 A    
O14   C9    1.257064 A    
C32   C38   1.404480 A    
C42   C48   1.391889 A    
C63   C69   1.399971 A    
C27   C33   1.404125 A    
C74   N32   1.435319 S    
N24   C54   1.355661 A    
C65   H29   1.083364 S    
C40   C46   1.391946 A    
O5    Cr5   2.077593 S    
O11   C5    1.250375 A    
C50   C86   1.473910 S    
O8    C2    1.250373 A    
C68   C92   1.415546 A    
O23   Cr5   1.959194 S    
O9    C3    1.250393 A    
N20   C50   1.355674 A    
O15   Cr3   2.089694 S    
C74   C80   1.405551 A    
N32   O42   1.301251 A    
C62   C86   1.400693 A    
N5    N11   1.330470 A    
C14   C44   1.403249 A    
N30   O38   1.301722 A    
C67   N25   1.440946 S    
C66   C72   1.399974 A    
C1    C14   1.469405 S    
C53   C89   1.473903 S    
C16   C46   1.403245 A    
O23   C11   1.254421 A    
N3    C51   1.357394 A    
O17   Cr5   2.089810 S    
O24   C12   1.254399 A    
N23   C53   1.355672 A    
C77   N35   1.435324 S    
N28   O33   1.301639 A    
C49   C85   1.474285 S    
O16   C11   1.257076 A    
C61   C67   1.399993 A    
C73   N31   1.435435 S    
Cr2   O25   1.969939 S    
C21   H3    1.083141 S    
O10   C4    1.250357 A    
C11   C91   1.488510 S    
C51   C87   1.473881 S    
C68   N26   1.440929 S    
C37   C43   1.391967 A    
C29   H17   1.082826 S    
N4    C52   1.357407 A    
N11   C59   1.357500 A    
C82   C88   1.410336 A    
C38   C44   1.391886 A    
N10   C58   1.357496 A    
C27   H15   1.082824 S    
N14   C56   1.356485 A    
C41   H23   1.082932 S    
C35   C41   1.404479 A    
C43   H7    1.083215 S    
C25   C31   1.404159 A    
C64   C70   1.399981 A    
C18   C24   1.404202 A    
C44   H8    1.083219 S    
C64   H28   1.083347 S    
N27   O31   1.301646 A    
N19   C49   1.355698 A    
C72   N30   1.440922 S    
C30   H18   1.082827 S    
C26   H14   1.082827 S    
O18   Cr6   2.089708 S    
N2    C50   1.357397 A    
O22   C10   1.254416 A    
N29   O35   1.301651 A    
C34   C40   1.404525 A    
C36   C42   1.404480 A    
Cr4   O26   1.969895 S    
C80   N38   1.434030 S    
N32   O41   1.300076 A    
O17   C12   1.257063 A    
C4    C17   1.469399 S    
O11   Cr5   1.972573 S    
O12   C6    1.250391 A    
N21   C51   1.355671 A    
N33   O44   1.300097 A    
N8    C56   1.357499 A    
O18   C10   1.257029 A    
O24   Cr6   1.959355 S    
C83   N41   1.434028 S    
O1    C2    1.246161 A    
C61   H25   1.083344 S    
N26   O29   1.301651 A    
C54   C90   1.473891 S    
C22   C28   1.393493 A    
C76   C82   1.405570 A    
N38   O53   1.301004 A    
N18   N24   1.328533 A    
C15   C21   1.404199 A    
C17   C47   1.403246 A    
N29   O36   1.301723 A    
O6    Cr6   2.077749 S    
