data_mof_unit_32119.cif
_audit_creation_date              2012-12-11T17:39:39-0500
_audit_creation_method            fapswitch 2.2
_symmetry_space_group_name_H-M    P1
_symmetry_Int_Tables_number       1
_space_group_crystal_system       triclinic
_cell_length_a                    15.126097
_cell_length_b                    14.854539
_cell_length_c                    14.975269
_cell_angle_alpha                 108.631948
_cell_angle_beta                  110.124333
_cell_angle_gamma                 110.003732
_cell_volume                      2578.69879258

loop_
_atom_site_label
_atom_site_type_symbol
_atom_type_description
_atom_site_fract_x
_atom_site_fract_y
_atom_site_fract_z
_atom_type_partial_charge
C1    C     C_R   0.910697 0.906304 0.711279 -0.126550
C2    C     C_R   0.001470 0.294458 0.419367 0.100520
C3    C     C_R   0.268144 0.323744 0.822200 -0.064205
C4    C     C_R   0.711810 0.034483 0.535043 0.042609
C5    C     C_R   0.701012 0.695827 0.287173 0.681941
C6    C     C_R   0.299383 0.088694 0.496742 -0.137587
C7    C     C_R   0.092434 0.778353 0.534229 -0.119705
C8    C     C_R   0.909165 0.937377 0.187024 -0.122318
C9    C     C_R   0.091810 0.026625 0.279658 -0.109525
C10   C     C_R   0.909896 0.683024 0.446174 -0.140976
C11   C     C_R   0.700454 0.789293 0.197638 -0.228713
C12   C     C_R   0.091234 0.295161 0.487905 -0.113428
C13   C     C_R   0.300121 0.999303 0.591157 -0.170399
C14   C     C_R   0.639724 0.691733 0.192009 -0.073450
C15   C     C_R   0.358784 0.054998 0.555222 0.056387
C16   C     C_R   0.003093 0.672781 0.467845 0.084022
C17   C     C_R   0.000090 0.949590 0.176435 0.048113
C18   C     C_R   0.419692 0.675543 0.268668 -0.113569
C19   C     C_R   0.453042 0.785533 0.333574 -0.169482
C20   C     C_R   0.506438 0.833939 0.448056 0.138480
C21   C     C_R   0.526193 0.770794 0.496562 -0.210657
C22   C     C_R   0.494447 0.661366 0.431399 -0.045991
C23   C     C_R   0.243833 0.220915 0.811994 -0.068762
C24   C     C_R   0.440881 0.613638 0.317467 0.036417
C25   C     C_R   0.450727 0.958322 0.528053 -0.256804
C26   C     C_R   0.457283 0.060390 0.564162 0.072221
C27   C     C_R   0.547801 0.156267 0.590391 0.024468
C28   C     C_R   0.634410 0.146677 0.585345 -0.251862
C29   C     C_R   0.626113 0.043530 0.547866 0.073914
C30   C     C_R   0.532093 0.947495 0.514773 0.010550
C31   C     C_R   0.578665 0.315936 0.556105 -0.161036
C32   C     C_R   0.567334 0.407443 0.564948 -0.112916
C33   C     C_R   0.524258 0.444631 0.627651 -0.065827
C34   C     C_R   0.741825 0.056633 0.463807 -0.131000
C35   C     C_R   0.495483 0.392312 0.684078 -0.093798
C36   C     C_R   0.511982 0.304518 0.680231 -0.150346
C37   C     C_R   0.549257 0.262111 0.612212 0.113574
C38   C     C_R   0.720627 0.074799 0.091474 -0.287803
C39   C     C_R   0.808689 0.183094 0.155129 -0.233109
C40   C     C_R   0.805769 0.265272 0.231599 0.179862
C41   C     C_R   0.710660 0.238769 0.238514 -0.274376
C42   C     C_R   0.624289 0.129465 0.177189 -0.303120
C43   C     C_R   0.629630 0.047436 0.104415 0.766387
C44   C     C_R   0.910932 0.471336 0.342466 -0.253370
C45   C     C_R   0.245256 0.313532 0.720302 -0.204891
C46   C     C_R   0.007819 0.570924 0.427383 0.004435
C47   C     C_R   0.107156 0.569581 0.470429 -0.184950
C48   C     C_R   0.104237 0.470140 0.430415 0.683552
C49   C     C_R   0.004575 0.372756 0.377414 -0.131493
C50   C     C_R   0.908296 0.370926 0.316929 -0.010771
C51   C     C_R   0.302862 0.718925 0.566902 -0.070445
C52   C     C_R   0.400576 0.804013 0.663580 -0.190447
C53   C     C_R   0.408110 0.828965 0.764918 -0.105143
C54   C     C_R   0.317754 0.769369 0.770101 -0.074880
C55   C     C_R   0.218944 0.686156 0.673900 -0.164139
C56   C     C_R   0.748470 0.968651 0.561358 -0.088360
C57   C     C_R   0.210591 0.661127 0.571525 0.179652
C58   C     C_2   0.362521 0.523625 0.934370 -0.353118
C59   C     C_2   0.313410 0.423654 0.924151 0.717242
C60   C     C_2   0.458616 0.618860 0.037995 -0.107182
C61   C     C_2   0.528426 0.604009 0.107825 -0.096507
C62   C     C_R   0.372637 0.039490 0.992689 -0.288843
C63   C     C_R   0.275434 0.976569 0.987066 0.552638
C64   C     C_R   0.218289 0.027356 0.014741 -0.078921
C65   C     C_R   0.265716 0.142291 0.060940 -0.221365
C66   C     C_R   0.365864 0.205137 0.072121 -0.086837
C67   C     C_R   0.910638 0.206832 0.400116 -0.141926
C68   C     C_R   0.417873 0.153428 0.035507 -0.192296
C69   C     C_R   0.103217 0.953825 0.081250 -0.241982
C70   C     C_R   0.002931 0.905331 0.075032 0.048328
C71   C     C_R   0.907448 0.833261 0.971122 0.026560
C72   C     C_R   0.910886 0.838034 0.880559 -0.243036
C73   C     C_R   0.009014 0.909848 0.892760 0.085574
C74   C     C_R   0.107935 0.960103 0.993023 0.124702
C75   C     C_R   0.814388 0.682259 0.002702 -0.132340
C76   C     C_R   0.720991 0.604187 0.990724 -0.096770
C77   C     C_R   0.619874 0.592730 0.931946 -0.090059
C78   C     C_R   0.091521 0.995021 0.797342 -0.122407
C79   C     C_R   0.611508 0.659077 0.884792 -0.106495
C80   C     C_R   0.704635 0.736557 0.895425 -0.177700
C81   C     C_R   0.807047 0.749249 0.955331 0.116374
C82   C     C_R   0.003996 0.937723 0.805396 0.058290
H1    H     H_    0.827123 0.848207 0.682155 0.094411
H2    H     H_    0.326579 0.143308 0.466474 0.111952
H3    H     H_    0.176746 0.805673 0.562558 0.114430
H4    H     H_    0.824410 0.888641 0.123702 0.123509
H5    H     H_    0.176279 0.058922 0.303033 0.093909
H6    H     H_    0.825773 0.617146 0.397064 0.162073
H7    H     H_    0.672145 0.819597 0.143516 0.164837
H8    H     H_    0.329114 0.973083 0.649200 0.116196
H9    H     H_    0.415466 0.528632 0.266981 0.147340
H10   H     H_    0.376368 0.637976 0.180476 0.159792
H11   H     H_    0.435321 0.832353 0.294674 0.116295
H12   H     H_    0.175124 0.341928 0.510657 0.183051
H13   H     H_    0.567172 0.806374 0.584560 0.103730
H14   H     H_    0.510656 0.613337 0.469204 0.113375
H15   H     H_    0.376439 0.884247 0.499465 0.136301
H16   H     H_    0.706645 0.218318 0.606567 0.135672
H17   H     H_    0.606771 0.284916 0.502376 0.112202
H18   H     H_    0.589072 0.447577 0.520668 0.121410
H19   H     H_    0.512306 0.513340 0.631775 0.115892
H20   H     H_    0.458537 0.418553 0.729385 0.107639
H21   H     H_    0.490074 0.266049 0.725635 0.117730
H22   H     H_    0.250610 0.199717 0.875528 0.144581
H23   H     H_    0.724901 0.011304 0.035368 0.145580
H24   H     H_    0.881497 0.201724 0.149102 0.154521
H25   H     H_    0.707423 0.300084 0.298288 0.155254
H26   H     H_    0.554813 0.107908 0.188917 0.154222
H27   H     H_    0.836313 0.470611 0.300103 0.140508
H28   H     H_    0.298278 0.699288 0.488718 0.125905
H29   H     H_    0.470696 0.851279 0.660624 0.126447
H30   H     H_    0.484181 0.894251 0.839380 0.153714
H31   H     H_    0.324694 0.787585 0.848763 0.181143
H32   H     H_    0.721362 0.101347 0.423497 0.105102
H33   H     H_    0.149326 0.640616 0.679003 0.131978
H34   H     H_    0.348467 0.532848 0.862597 0.109152
H35   H     H_    0.482072 0.700121 0.046398 0.166611
H36   H     H_    0.508602 0.522814 0.097948 0.192187
H37   H     H_    0.493573 0.201711 0.040782 0.152600
H38   H     H_    0.412935 0.999998 0.963823 0.178434
H39   H     H_    0.223506 0.182382 0.084973 0.162304
H40   H     H_    0.401484 0.293455 0.106054 0.172928
H41   H     H_    0.252096 0.376614 0.697653 0.113093
H42   H     H_    0.179503 0.997135 0.157497 0.115521
H43   H     H_    0.836299 0.787519 0.801649 0.125006
H44   H     H_    0.892513 0.690568 0.048886 0.113844
H45   H     H_    0.726954 0.552609 0.027074 0.106368
H46   H     H_    0.547733 0.531031 0.921728 0.106649
H47   H     H_    0.532716 0.649747 0.839275 0.123831
H48   H     H_    0.697288 0.787930 0.859072 0.111724
H49   H     H_    0.737159 0.935356 0.613454 0.095368
H50   H     H_    0.826135 0.173321 0.344184 0.127725
H51   H     H_    0.173921 0.013664 0.839156 0.120299
N1    N     N_R   0.941940 0.944580 0.650780 -0.040430
N2    N     N_R   0.206190 0.054080 0.497260 -0.040607
N3    N     N_R   0.056380 0.847410 0.553580 -0.046893
N4    N     N_R   0.944890 0.999100 0.292900 -0.039643
N5    N     N_R   0.058060 0.055420 0.349220 -0.042643
N6    N     N_R   0.943200 0.791100 0.497260 -0.040741
N7    N     N_R   0.795540 0.849750 0.292910 -0.076839
N8    N     N_R   0.205730 0.996760 0.553580 -0.040913
N9    N     N_R   0.056800 0.208900 0.502740 -0.052519
N10   N     N_R   0.204460 0.150250 0.707090 -0.048723
N11   N     N_R   0.794270 0.003240 0.446420 -0.041945
N12   N     N_R   0.204920 0.207570 0.650770 -0.028880
N13   N     N_R   0.793810 0.945920 0.502740 -0.041780
N14   N     N_R   0.943620 0.152590 0.446420 -0.044619
N15   N     N_R   0.055110 0.000900 0.707100 -0.049885
N16   N     N_R   0.795080 0.792430 0.349230 -0.105400
Ni1   Ni    Ni4+2 0.869690 0.869690 0.500000 0.261021
Ni2   Ni    Ni4+2 0.130310 0.130310 0.500000 0.219848
Ni3   Ni    Ni4+2 0.129250 0.998840 0.629170 0.214309
Ni4   Ni    Ni4+2 0.870750 0.001160 0.370830 0.217329
F1    F     F_    0.548058 0.940827 0.048570 -0.780277
F2    F     F_    0.199971 0.470471 0.460956 -0.739408
F3    F     F_    0.319855 0.413271 0.012998 -0.738879
O1    O     O_3   0.230978 0.864095 0.945151 -0.641520
C83   C     C_3   0.280929 0.845197 0.030572 0.211122
H52   H     H_    0.271328 0.883750 0.101203 0.089616
H53   H     H_    0.369489 0.878521 0.059219 0.155956
C84   C     C_3   0.227049 0.721716 0.989025 -0.853923
H54   H     H_    0.236380 0.680189 0.919562 0.249168
H55   H     H_    0.266111 0.706330 0.055827 0.208861
H56   H     H_    0.138665 0.686348 0.961341 0.259299
F4    F     F_    0.661306 0.630099 0.325482 -0.747231

loop_
_geom_bond_atom_site_label_1
_geom_bond_atom_site_label_2
_ccdc_geom_bond_type
C39   H24   S    
C66   C68   A    
C40   C41   A    
O1    C83   S    
C13   H8    S    
C41   C42   A    
C54   C55   A    
C3    C23   A    
C35   C36   A    
C11   N7    A    
C35   H20   S    
C2    C12   A    
C84   H54   S    
C79   H47   S    
C20   C30   S    
C53   C54   A    
C45   H41   S    
C10   H6    S    
C26   C27   A    
C29   C30   A    
C65   H39   S    
C36   H21   S    
C45   N12   A    
C36   C37   A    
C27   C37   S    
C68   H37   S    
C38   C39   A    
C80   C81   A    
C11   C14   A    
C40   C50   S    
C58   C60   S    
N1    Ni1   S    
C54   H31   S    
C5    N16   A    
C18   C19   A    
C73   C74   A    
N11   Ni4   S    
C78   C82   A    
C83   C84   S    
C84   H55   S    
C6    C15   A    
N13   Ni1   S    
C83   H53   S    
C47   C48   A    
C66   H40   S    
C70   C71   A    
C51   C57   A    
C31   H17   S    
C43   F1    S    
C62   H38   S    
C4    C29   S    
C19   H11   S    
C78   N15   A    
N7    Ni4   S    
C44   H27   S    
C17   C70   S    
C21   C22   A    
C4    C56   A    
C58   H34   S    
C23   N10   A    
N3    N6    A    
N3    Ni3   S    
C44   C46   A    
C77   C79   A    
C4    C34   A    
C80   H48   S    
C51   C52   A    
C69   C74   A    
C6    H2    S    
C76   C77   A    
C18   C24   A    
N11   N13   A    
C2    C67   A    
C16   C46   S    
C39   C40   A    
C75   C81   A    
C15   C26   S    
C21   H13   S    
C69   H42   S    
C1    C82   A    
C63   C64   A    
C14   C61   S    
C3    C45   A    
C31   C37   A    
C60   C61   D    
N9    Ni2   S    
C75   C76   A    
C62   C63   A    
C2    C49   S    
C28   H16   S    
C47   C57   S    
C9    N5    A    
C11   H7    S    
C31   C32   A    
N2    N8    A    
C48   C49   A    
C34   N11   A    
N4    Ni4   S    
C60   H35   S    
C5    C14   A    
N12   Ni2   S    
C77   H46   S    
C53   H30   S    
C9    C17   A    
N10   Ni3   S    
C48   F2    S    
C49   C50   A    
C51   H28   S    
C13   N8    A    
C13   C15   A    
C67   N14   A    
C83   H52   S    
C22   C24   A    
C58   C59   D    
C6    N2    A    
C34   H32   S    
C42   C43   A    
C63   O1    S    
C1    N1    A    
C24   H9    S    
C73   C82   S    
C84   H56   S    
C52   C53   A    
C44   C50   A    
C25   C30   A    
N10   N12   A    
C46   C47   A    
C28   C29   A    
C41   H25   S    
C61   H36   S    
C22   H14   S    
N9    N14   A    
C7    C16   A    
C25   H15   S    
N15   Ni3   S    
C72   C73   A    
C59   F3    S    
N5    Ni2   S    
C1    H1    S    
N1    N15   A    
N4    N5    A    
C19   C20   A    
N6    Ni1   S    
C8    C17   A    
C52   H29   S    
C62   C68   A    
C72   H43   S    
C75   H44   S    
C18   H10   S    
C32   C33   A    
C33   H19   S    
C55   C57   A    
C25   C26   A    
C7    N3    A    
C10   C16   A    
N16   Ni1   S    
C9    H5    S    
C12   H12   S    
C7    H3    S    
C55   H33   S    
C38   H23   S    
N2    Ni2   S    
C64   C65   A    
C33   C35   A    
C67   H50   S    
C12   N9    A    
C8    H4    S    
C5    F4    S    
C23   H22   S    
C56   N13   A    
C69   C70   A    
N14   Ni4   S    
C78   H51   S    
C56   H49   S    
C79   C80   A    
C32   H18   S    
C38   C43   A    
C71   C72   A    
C20   C21   A    
C65   C66   A    
C10   N6    A    
C27   C28   A    
C76   H45   S    
C64   C74   S    
C8    N4    A    
C42   H26   S    
N7    N16   A    
N8    Ni3   S    
C71   C81   S    
C3    C59   S    
