data_mof_unit_58508.cif
_audit_creation_date              2012-12-10T20:47:09-0500
_audit_creation_method            fapswitch 2.2
_symmetry_space_group_name_H-M    P1
_symmetry_Int_Tables_number       1
_space_group_crystal_system       triclinic
_cell_length_a                    10.704317
_cell_length_b                    8.920648
_cell_length_c                    8.121763
_cell_angle_alpha                 90.050714
_cell_angle_beta                  89.999859
_cell_angle_gamma                 90.000085
_cell_volume                      775.542329672

loop_
_atom_site_label
_atom_site_type_symbol
_atom_type_description
_atom_site_fract_x
_atom_site_fract_y
_atom_site_fract_z
_atom_type_partial_charge
C1    C     C_R   0.500000 0.218103 0.499913 0.908420
C2    C     C_R   0.065746 0.646673 0.564360 -0.148133
C3    C     C_R   0.127862 0.518793 0.500205 -0.018690
C4    C     C_R   0.872138 0.518793 0.500203 -0.018690
C5    C     C_R   0.063786 0.398015 0.432737 -0.227384
C6    C     C_R   0.936214 0.398015 0.432736 -0.227387
C7    C     C_1   0.499999 0.065289 0.499769 -0.161856
C8    C     C_1   0.499999 0.934854 0.499679 -0.073060
C9    C     C_R   0.499999 0.781951 0.499794 1.115467
C10   C     C_R   0.259820 0.505946 0.500132 0.942421
C11   C     C_R   0.740180 0.505945 0.500131 0.942427
C12   C     C_R   0.129947 0.775207 0.623776 0.582921
C13   C     C_R   0.870053 0.775209 0.623768 0.582923
C14   C     C_R   0.065452 0.900633 0.681423 -0.056071
C15   C     C_R   0.934547 0.900635 0.681419 -0.056069
C16   C     C_R   0.934254 0.646674 0.564357 -0.148132
F1    F     F_    0.255674 0.783677 0.623643 -0.682590
F2    F     F_    0.744325 0.783682 0.623627 -0.682593
H1    H     H_    0.113047 0.301877 0.382806 0.143346
H2    H     H_    0.886953 0.301877 0.382805 0.143347
H3    H     H_    0.111027 0.049618 0.860154 0.191772
H4    H     H_    0.110926 0.120798 0.666384 0.179668
H5    H     H_    0.889079 0.120802 0.666379 0.179668
H6    H     H_    0.888964 0.049618 0.860148 0.191773
N1    N     N_1   0.500000 0.500000 0.073640 -0.026496
N2    N     N_1   0.500000 0.500000 0.926360 -0.017577
N3    N     N_3   0.135287 0.027878 0.737802 -0.384955
N4    N     N_3   0.864712 0.027881 0.737792 -0.384956
O1    O     O_R   0.500000 0.285350 0.636850 -0.617729
O2    O     O_R   0.500000 0.714650 0.636850 -0.529913
O3    O     O_R   0.500000 0.285360 0.363100 -0.627544
O4    O     O_R   0.500000 0.714640 0.363100 -0.645255
O5    O     O_R   0.316770 0.500000 0.636900 -0.591954
O6    O     O_R   0.683230 0.500000 0.636900 -0.591958
O7    O     O_R   0.316780 0.500000 0.363150 -0.630196
O8    O     O_R   0.683220 0.500000 0.363150 -0.630194
Zn1   Zn    Zn3+2 0.500000 0.500000 0.682780 1.064653
Zn2   Zn    Zn3+2 0.500000 0.500000 0.317220 1.010574

loop_
_geom_bond_atom_site_label_1
_geom_bond_atom_site_label_2
_ccdc_geom_bond_type
C12   F1    S    
C4    C16   A    
N2    Zn1   S    
C10   O7    A    
C5    H1    S    
O4    Zn2   S    
N1    Zn2   S    
O6    Zn1   S    
C6    H2    S    
O3    Zn2   S    
C2    C12   A    
O8    Zn2   S    
C2    C3    A    
H3    N3    S    
C7    C8    T    
C3    C10   S    
H5    N4    S    
C4    C11   S    
C15   N4    S    
C13   F2    S    
C9    O2    A    
C1    O1    A    
C11   O8    A    
C12   C14   A    
C10   O5    A    
H4    N3    S    
C13   C15   A    
C5    C6    A    
C14   N3    S    
C1    O3    A    
O7    Zn2   S    
C2    C16   A    
C4    C6    A    
C13   C16   A    
O1    Zn1   S    
C14   C15   A    
C9    O4    A    
N1    N2    T    
C1    C7    S    
C11   O6    A    
O5    Zn1   S    
H6    N4    S    
O2    Zn1   S    
C8    C9    S    
C3    C5    A    
