data_mof_unit_28698.cif
_audit_creation_date              2012-12-10T20:32:41-0500
_audit_creation_method            fapswitch 2.2
_symmetry_space_group_name_H-M    P1
_symmetry_Int_Tables_number       1
_space_group_crystal_system       triclinic
_cell_length_a                    11.545074
_cell_length_b                    10.746477
_cell_length_c                    9.879282
_cell_angle_alpha                 90.670488
_cell_angle_beta                  89.122741
_cell_angle_gamma                 90.646789
_cell_volume                      1225.4081415

loop_
_atom_site_label
_atom_site_type_symbol
_atom_type_description
_atom_site_fract_x
_atom_site_fract_y
_atom_site_fract_z
_atom_type_partial_charge
C1    C     C_R   0.501562 0.260237 0.499476 0.885532
C2    C     C_R   0.512473 0.128870 0.497157 -0.051923
C3    C     C_R   0.484750 0.062623 0.378968 -0.174556
C4    C     C_R   0.483055 0.934239 0.380465 -0.214003
C5    C     C_R   0.509094 0.871750 0.500159 -0.046227
C6    C     C_R   0.552110 0.938894 0.610926 -0.039022
C7    C     C_3   0.536533 0.934680 0.762758 0.652827
C8    C     C_3   0.542745 0.079132 0.760436 0.680021
C9    C     C_R   0.411663 0.444357 0.071894 0.132662
C10   C     C_R   0.595486 0.540112 0.071029 0.484183
C11   C     C_R   0.592848 0.542364 0.925572 -0.264937
C12   C     C_R   0.281898 0.499950 0.500928 0.927437
C13   C     C_R   0.411465 0.445198 0.929758 0.268585
C14   C     C_3   0.286918 0.479548 0.926272 -0.523060
C15   C     C_3   0.286913 0.477861 0.080095 0.179035
C16   C     C_R   0.500894 0.739876 0.500767 0.896786
C17   C     C_R   0.718082 0.500142 0.499462 0.883953
C18   C     C_1   0.161419 0.500113 0.502893 -0.133519
C19   C     C_1   0.059255 0.500288 0.503257 0.032904
C20   C     C_1   0.940643 0.500437 0.502052 -0.022948
C21   C     C_1   0.838498 0.500346 0.499810 -0.207638
C22   C     C_R   0.554613 0.065470 0.608437 -0.181575
H1    H     H_    0.457927 0.109166 0.288096 0.197438
H2    H     H_    0.232983 0.405038 0.878993 0.256033
H3    H     H_    0.272473 0.570338 0.128488 0.126193
H4    H     H_    0.455785 0.884729 0.290001 0.178313
H5    H     H_    0.663121 0.581710 0.866421 0.171250
H6    H     H_    0.273909 0.574040 0.884770 0.209837
N1    N     N_R   0.499240 0.499140 0.142800 -0.166743
N2    N     N_R   0.499240 0.499180 0.857150 -0.109504
O1    O     O_R   0.500010 0.316790 0.614690 -0.589941
O2    O     O_R   0.500000 0.316760 0.385350 -0.613928
O3    O     O_R   0.334450 0.500030 0.614670 -0.606255
O4    O     O_R   0.334440 0.500000 0.385330 -0.596166
O5    O     O_R   0.500000 0.683240 0.614650 -0.560766
O6    O     O_R   0.499990 0.683210 0.385310 -0.631651
O7    O     O_R   0.665560 0.500000 0.614670 -0.641336
O8    O     O_R   0.665550 0.499970 0.385330 -0.555540
Zn1   Zn    Zn3+2 0.500010 0.500020 0.653130 1.006368
Zn2   Zn    Zn3+2 0.499990 0.499980 0.346870 1.009282
Cl1   Cl    Cl    0.200975 0.353866 0.148676 -0.577368
Cl2   Cl    Cl    0.399345 0.864031 0.811248 -0.617182
O9    O     O_3   0.633567 0.879973 0.824348 -0.659498
C23   C     C_3   0.624488 0.887520 0.967861 0.171952
H7    H     H_    0.594176 0.796082 0.006184 0.168360
H8    H     H_    0.562015 0.958834 0.005949 0.176165
C24   C     C_3   0.743375 0.918968 0.026909 -0.340354
H9    H     H_    0.809069 0.853377 0.986556 0.219685
H10   H     H_    0.770753 0.013810 0.996271 0.255790
C25   C     C_3   0.741120 0.915260 0.181273 -0.931465
H11   H     H_    0.687242 0.992087 0.222456 0.274105
H12   H     H_    0.830448 0.927556 0.219607 0.270933
H13   H     H_    0.705654 0.825119 0.217779 0.295706
Cl3   Cl    Cl    0.411477 0.151267 0.818795 -0.555878
O10   O     O_3   0.640497 0.125280 0.833631 -0.656136
C26   C     C_3   0.723585 0.194845 0.758149 0.099196
H14   H     H_    0.760644 0.266709 0.827223 0.162645
H15   H     H_    0.686807 0.246710 0.673593 0.157314
C27   C     C_3   0.822393 0.111316 0.707583 -0.382783
H16   H     H_    0.868119 0.072493 0.795348 0.237270
H17   H     H_    0.787536 0.032432 0.646606 0.243777
C28   C     C_3   0.909417 0.183944 0.620697 -0.885208
H18   H     H_    0.866708 0.219610 0.529149 0.258018
H19   H     H_    0.981038 0.121853 0.587941 0.284012
H20   H     H_    0.946461 0.263235 0.679494 0.268890
O11   O     O_3   0.689061 0.586836 0.143555 -0.615272
C29   C     C_3   0.796059 0.573699 0.073166 0.039548
H21   H     H_    0.804110 0.645608 0.994061 0.148589
H22   H     H_    0.804349 0.479466 0.025605 0.133270
C30   C     C_3   0.895297 0.592155 0.171874 -0.290337
H23   H     H_    0.874999 0.669026 0.244381 0.236469
H24   H     H_    0.906000 0.504913 0.228965 0.239476
C31   C     C_3   0.008995 0.622920 0.098573 -0.895462
H25   H     H_    0.032080 0.547076 0.026096 0.285992
H26   H     H_    0.078586 0.633732 0.174140 0.272149
H27   H     H_    0.001883 0.711689 0.042975 0.260227

loop_
_geom_bond_atom_site_label_1
_geom_bond_atom_site_label_2
_ccdc_geom_bond_type
C2    C22   A    
O5    Zn1   S    
O9    C23   S    
C26   C27   S    
C28   H18   S    
C1    O1    A    
C7    O9    S    
C19   C20   S    
C31   H25   S    
C6    C7    S    
C25   H11   S    
C25   H12   S    
C24   H9    S    
C23   C24   S    
C11   H5    S    
O10   C26   S    
C29   C30   S    
C30   C31   S    
C10   O11   S    
O11   C29   S    
C9    C15   S    
C27   H16   S    
O7    Zn1   S    
C17   O7    A    
C13   C14   S    
C26   H14   S    
O8    Zn2   S    
C9    N1    A    
C31   H26   S    
C10   N1    A    
C15   Cl1   S    
C23   H8    S    
O3    Zn1   S    
O4    Zn2   S    
C8    O10   S    
C8    Cl3   S    
C26   H15   S    
N2    Zn1   S    
C2    C3    A    
C24   C25   S    
C17   O8    A    
O2    Zn2   S    
C16   O5    A    
C5    C6    A    
C31   H27   S    
C17   C21   S    
C4    H4    S    
C15   H3    S    
C25   H13   S    
C27   H17   S    
C10   C11   A    
C29   H22   S    
C12   O4    A    
C29   H21   S    
C6    C22   A    
C13   N2    A    
C7    C8    S    
C30   H23   S    
C20   C21   T    
N1    Zn2   S    
C24   H10   S    
C1    C2    S    
C7    Cl2   S    
C14   H2    S    
C9    C13   A    
C14   C15   S    
C18   C19   T    
O6    Zn2   S    
C28   H19   S    
C27   C28   S    
C28   H20   S    
C14   H6    S    
C12   O3    A    
C3    H1    S    
C8    C22   S    
C30   H24   S    
C1    O2    A    
C16   O6    A    
C23   H7    S    
C3    C4    A    
C11   N2    A    
O1    Zn1   S    
C4    C5    A    
C5    C16   S    
C12   C18   S    
