data_mof_unit_5689.cif
_audit_creation_date              2012-12-11T17:25:00-0500
_audit_creation_method            fapswitch 2.2
_symmetry_space_group_name_H-M    P1
_symmetry_Int_Tables_number       1
_space_group_crystal_system       triclinic
_cell_length_a                    6.950751
_cell_length_b                    20.545084
_cell_length_c                    24.469801
_cell_angle_alpha                 90.169692
_cell_angle_beta                  90.853504
_cell_angle_gamma                 89.894192
_cell_volume                      3493.97096295

loop_
_atom_site_label
_atom_site_type_symbol
_atom_type_description
_atom_site_fract_x
_atom_site_fract_y
_atom_site_fract_z
_atom_type_partial_charge
O1    O     O_R   0.507280 0.423750 0.460310 -0.539434
O2    O     O_R   0.171030 0.555650 0.437630 -0.538781
O3    O     O_R   0.004080 0.576250 0.539690 -0.542273
C1    C     C_R   0.339024 0.575654 0.421769 0.693487
O4    O     O_R   0.177330 0.422980 0.453960 -0.520008
O5    O     O_R   0.010420 0.442640 0.556140 -0.526243
C2    C     C_R   0.344774 0.398778 0.443311 0.772664
O6    O     O_R   0.500930 0.557360 0.443860 -0.545279
O7    O     O_3   0.340310 0.506600 0.533500 -0.361196
V1    V     V_3+5 0.064140 0.498780 0.493780 1.575905
O8    O     O_R   0.680890 0.444350 0.562370 -0.530031
C3    C     C_R   0.850611 0.424444 0.578157 0.771804
O9    O     O_R   0.674590 0.577020 0.546040 -0.528282
C4    C     C_R   0.844025 0.600842 0.556735 0.797369
V2    V     V_3+5 0.564550 0.501220 0.506220 1.569443
O10   O     O_3   0.838250 0.493400 0.466500 -0.375246
C5    C     C_R   0.974571 0.837553 0.911927 -0.235152
C6    C     C_R   0.857799 0.661275 0.589187 -0.231827
C7    C     C_R   0.048174 0.722722 0.905610 -0.121398
C8    C     C_R   0.036200 0.779464 0.936545 0.308961
C9    C     C_R   0.925009 0.838262 0.855881 0.515546
C10   C     C_R   0.952117 0.781753 0.822578 -0.023623
C11   C     C_R   0.008818 0.723373 0.849259 -0.116968
C12   C     C_R   0.930237 0.780785 0.764029 0.021787
C13   C     C_R   0.935061 0.720040 0.734954 -0.041348
C14   C     C_R   0.004249 0.664695 0.763216 0.700496
C15   C     C_R   0.036495 0.666375 0.819300 -0.183588
C16   C     C_R   0.925691 0.838511 0.732950 -0.091756
C17   C     C_R   0.920724 0.836917 0.676195 -0.121820
C18   C     C_R   0.906994 0.777981 0.647870 -0.060402
C19   C     C_R   0.897200 0.718560 0.677115 -0.040630
C20   C     C_R   0.904982 0.777863 0.590434 0.671911
C21   C     C_R   0.889493 0.719583 0.561675 -0.307561
C22   C     C_R   0.849390 0.660951 0.646832 0.412150
H1    H     H_    0.091007 0.622896 0.839262 0.178236
H2    H     H_    0.895683 0.720184 0.517447 0.166378
H3    H     H_    0.927447 0.882653 0.654356 0.195411
H4    H     H_    0.094339 0.678146 0.925513 0.180376
H5    H     H_    0.944227 0.885934 0.750946 0.206398
C23   C     C_R   0.738973 0.286676 0.742974 0.618212
C24   C     C_R   0.891698 0.295327 0.706683 -0.084705
C25   C     C_R   0.060817 0.258851 0.714351 -0.161822
H6    H     H_    0.180124 0.264779 0.686821 0.198192
C26   C     C_R   0.077523 0.214276 0.757549 -0.133341
H7    H     H_    0.209263 0.186523 0.762455 0.196036
C27   C     C_R   0.925815 0.205518 0.794034 -0.058118
C28   C     C_R   0.755556 0.242151 0.786532 0.309761
C29   C     C_1   0.875483 0.341279 0.661550 0.134508
C30   C     C_1   0.946319 0.159124 0.838798 0.120249
C31   C     C_1   0.960699 0.120765 0.876409 -0.118475
C32   C     C_1   0.863072 0.379387 0.623710 -0.083831
H8    H     H_    0.665696 0.737546 0.321521 0.192227
C33   C     C_R   0.580699 0.787216 0.247460 0.447303
C34   C     C_R   0.437907 0.794693 0.206434 -0.049371
C35   C     C_R   0.269959 0.756927 0.209335 -0.164859
H9    H     H_    0.158637 0.762077 0.178157 0.209533
C36   C     C_R   0.243606 0.712404 0.252232 0.440171
C37   C     C_R   0.386352 0.704958 0.293282 -0.041992
C38   C     C_R   0.554349 0.742695 0.290353 -0.181442
C39   C     C_1   0.460475 0.840792 0.161485 0.132995
C40   C     C_1   0.363683 0.658976 0.338322 0.105690
C41   C     C_1   0.348780 0.620853 0.376107 -0.128906
C42   C     C_1   0.475416 0.879049 0.123804 -0.084807
C43   C     C_R   0.482671 0.162289 0.089186 -0.081978
C44   C     C_R   0.342294 0.337580 0.411111 -0.187414
C45   C     C_R   0.643004 0.265288 0.104821 -0.097502
C46   C     C_R   0.594662 0.213783 0.070347 -0.123134
C47   C     C_R   0.407316 0.165574 0.142296 -0.095152
C48   C     C_R   0.443154 0.220330 0.177041 0.148495
C49   C     C_R   0.576429 0.267167 0.158602 0.069498
C50   C     C_R   0.367193 0.227210 0.231166 -0.156063
C51   C     C_R   0.453012 0.273690 0.268600 -0.031416
C52   C     C_R   0.612187 0.310761 0.250312 0.417958
C53   C     C_R   0.658570 0.311428 0.195250 -0.173389
C54   C     C_R   0.207533 0.190371 0.249335 0.300849
C55   C     C_R   0.162522 0.188829 0.304638 0.664027
C56   C     C_R   0.246602 0.232822 0.341499 -0.150006
C57   C     C_R   0.378022 0.280170 0.322821 0.053774
C58   C     C_R   0.185088 0.233935 0.395894 -0.092673
C59   C     C_R   0.234366 0.285269 0.430496 0.608610
C60   C     C_R   0.413927 0.334868 0.357576 -0.149889
H10   H     H_    0.774844 0.342514 0.182008 0.169832
H11   H     H_    0.479021 0.378517 0.342028 0.180572
H12   H     H_    0.741799 0.301926 0.090304 0.134567
H13   H     H_    0.656401 0.211795 0.029962 0.130159
H14   H     H_    0.339493 0.122283 0.157599 0.166340
H15   H     H_    0.089737 0.196702 0.411111 0.209025
O11   O     O_R   0.323320 0.942780 0.056240 -0.528041
O12   O     O_R   0.647300 0.077050 0.046060 -0.537254
O13   O     O_R   0.813840 0.057330 0.943840 -0.533371
C61   C     C_R   0.479940 0.101253 0.056826 0.694267
O14   O     O_R   0.653250 0.944380 0.062400 -0.531411
O15   O     O_R   0.819830 0.923720 0.960300 -0.525549
C62   C     C_R   0.485229 0.924377 0.078249 0.737867
O16   O     O_R   0.317330 0.076390 0.039790 -0.538973
O17   O     O_3   0.483830 0.993470 0.966560 -0.367196
V3    V     V_3+5 0.760140 0.001210 0.006210 1.573065
O18   O     O_R   0.149290 0.922840 0.953850 -0.537487
C63   C     C_R   0.980343 0.898747 0.943606 0.856921
O19   O     O_R   0.143340 0.055500 0.937510 -0.540869
C64   C     C_R   0.973605 0.075512 0.921810 0.720020
V4    V     V_3+5 0.259690 0.998600 0.993650 1.553109
O20   O     O_3   0.986130 0.006520 0.033440 -0.369100
F1    F     F_    0.923122 0.834127 0.561967 -0.646037
Cl1   Cl    Cl    0.561093 0.233170 0.831283 -0.589863
F2    F     F_    0.574058 0.321468 0.736068 -0.625533
Cl2   Cl    Cl    0.794288 0.833076 0.246338 -0.566712
Cl3   Cl    Cl    0.030060 0.666526 0.253339 -0.586060
Cl4   Cl    Cl    0.739292 0.593010 0.677968 -0.526161
F3    F     F_    0.162939 0.286503 0.481856 -0.680355
F4    F     F_    0.018844 0.149002 0.321338 -0.609306
Cl5   Cl    Cl    0.785863 0.346948 0.294261 -0.650235
Cl6   Cl    Cl    0.032817 0.155861 0.204602 -0.581455
Cl7   Cl    Cl    0.098589 0.776114 0.006580 -0.622440
F5    F     F_    0.844270 0.893592 0.835864 -0.710529
F6    F     F_    0.070570 0.611667 0.736165 -0.615087

loop_
_geom_bond_atom_site_label_1
_geom_bond_atom_site_label_2
_ccdc_geom_bond_type
C13   C19   A    
C23   C28   A    
C8    Cl7   S    
C35   H9    S    
O17   V4    S    
C47   H14   S    
C52   C53   A    
C4    C6    S    
O2    C1    A    
C7    C8    A    
C1    O6    A    
C21   H2    S    
C58   H15   S    
C33   C38   A    
C34   C39   S    
C56   C57   A    
C42   C62   S    
C14   C15   A    
C39   C42   T    
C43   C47   A    
C16   C17   A    
H8    C38   S    
O5    C3    A    
C18   C19   A    
V2    O10   S    
C1    C41   S    
C5    C8    A    
C24   C25   A    
C48   C50   A    
C51   C57   A    
C27   C28   A    
O8    V2    S    
C29   C32   T    
C47   C48   A    
C28   Cl1   S    
C49   C53   A    
C20   F1    S    
C54   Cl6   S    
C11   C15   A    
O12   C61   A    
O7    V1    S    
O15   C63   A    
O13   V3    S    
O16   V4    S    
C9    F5    S    
C37   C40   S    
C45   C46   A    
C44   C59   A    
C50   C54   A    
O9    C4    A    
C48   C49   A    
C25   C26   A    
C53   H10   S    
O19   V4    S    
C60   H11   S    
C26   C27   A    
O14   V3    S    
C56   C58   A    
O11   C62   A    
C46   H13   S    
V4    O20   S    
C43   C46   A    
C12   C13   A    
O4    C2    A    
C16   H5    S    
C15   H1    S    
C13   C14   A    
O18   V4    S    
C61   O16   A    
C5    C9    A    
O12   V3    S    
C7    C11   A    
C54   C55   A    
O13   C64   A    
C17   C18   A    
C7    H4    S    
C2    C44   S    
C6    C22   A    
C33   Cl2   S    
C44   C60   A    
C27   C30   S    
O17   V3    S    
O14   C62   A    
C19   C22   A    
C55   C56   A    
C5    C63   S    
V3    O20   S    
O3    C4    A    
O1    V2    S    
C23   C24   A    
C30   C31   T    
O6    V2    S    
C35   C36   A    
C10   C12   A    
C25   H6    S    
C17   H3    S    
O2    V1    S    
O15   V3    S    
C3    C32   S    
C26   H7    S    
C52   Cl5   S    
C23   F2    S    
C34   C35   A    
O1    C2    A    
C12   C16   A    
C51   C52   A    
O5    V1    S    
O11   V4    S    
O8    C3    A    
C33   C34   A    
C20   C21   A    
O9    V2    S    
C37   C38   A    
O4    V1    S    
O3    V1    S    
V1    O10   S    
C18   C20   A    
C57   C60   A    
C36   C37   A    
C45   C49   A    
C55   F4    S    
O19   C64   A    
C24   C29   S    
O7    V2    S    
C40   C41   T    
C6    C21   A    
C14   F6    S    
C45   H12   S    
C58   C59   A    
C50   C51   A    
C36   Cl3   S    
C31   C64   S    
O18   C63   A    
C59   F3    S    
C22   Cl4   S    
C10   C11   A    
C43   C61   S    
C9    C10   A    
