data_mof_unit_33353.cif
_audit_creation_date              2012-12-11T14:31:05-0500
_audit_creation_method            fapswitch 2.2
_symmetry_space_group_name_H-M    P1
_symmetry_Int_Tables_number       1
_space_group_crystal_system       triclinic
_cell_length_a                    6.925619
_cell_length_b                    14.200341
_cell_length_c                    16.19909
_cell_angle_alpha                 89.934376
_cell_angle_beta                  90.189338
_cell_angle_gamma                 90.246601
_cell_volume                      1593.09368483

loop_
_atom_site_label
_atom_site_type_symbol
_atom_type_description
_atom_site_fract_x
_atom_site_fract_y
_atom_site_fract_z
_atom_type_partial_charge
O1    O     O_R   0.469910 0.836130 0.163900 -0.543446
O2    O     O_R   0.530090 0.163870 0.836100 -0.542958
O3    O     O_R   0.530090 0.163870 0.663900 -0.543255
O4    O     O_R   0.469910 0.836130 0.336100 -0.551888
O5    O     O_R   0.969910 0.663870 0.336100 -0.542959
O6    O     O_R   0.030090 0.336130 0.663900 -0.540898
O7    O     O_R   0.030090 0.336130 0.836100 -0.541013
O8    O     O_R   0.969910 0.663870 0.163900 -0.541507
O9    O     O_R   0.140100 0.847470 0.335520 -0.514737
O10   O     O_R   0.859900 0.152530 0.664480 -0.533283
O11   O     O_R   0.859900 0.152530 0.835520 -0.536291
O12   O     O_R   0.140100 0.847470 0.164480 -0.535133
O13   O     O_R   0.640100 0.652530 0.164480 -0.524564
O14   O     O_R   0.359900 0.347470 0.835520 -0.520102
O15   O     O_R   0.359900 0.347470 0.664480 -0.524628
O16   O     O_R   0.640100 0.652530 0.335520 -0.522468
C1    C     C_R   0.310125 0.866456 0.366364 0.727258
C2    C     C_R   0.689858 0.133004 0.633508 0.737016
C3    C     C_R   0.690807 0.132922 0.866349 0.735610
C4    C     C_R   0.309171 0.866919 0.133565 0.737873
C5    C     C_R   0.809701 0.627626 0.137722 0.727495
C6    C     C_R   0.190359 0.372887 0.861900 0.698628
C7    C     C_R   0.190075 0.372615 0.637992 0.734884
C8    C     C_R   0.809853 0.627001 0.361718 0.696123
O17   O     O_3   0.303300 0.689750 0.250000 -0.365795
O18   O     O_3   0.696700 0.310250 0.750000 -0.363281
O19   O     O_3   0.803300 0.810250 0.250000 -0.371661
O20   O     O_3   0.196700 0.189750 0.750000 -0.377255
V1    V     V_3+5 0.028490 0.761170 0.250000 1.556040
V2    V     V_3+5 0.971510 0.238830 0.750000 1.544285
V3    V     V_3+5 0.528490 0.738830 0.250000 1.551476
V4    V     V_3+5 0.471510 0.261170 0.750000 1.563735
H1    H     H_    0.904206 0.407760 0.537259 0.216222
H2    H     H_    0.095928 0.590259 0.462462 0.178617
H3    H     H_    0.095012 0.592870 0.036900 0.223355
H4    H     H_    0.904772 0.409514 0.962675 0.188245
H5    H     H_    0.444568 0.000188 0.904728 0.171387
H6    H     H_    0.553053 0.000648 0.095039 0.171951
H7    H     H_    0.531946 0.011491 0.402136 0.177646
H8    H     H_    0.389846 0.031898 0.583248 0.185796
C9    C     C_2   0.824156 0.545611 0.419526 -0.164807
C10   C     C_2   0.175132 0.453027 0.579257 -0.290594
C11   C     C_2   0.176074 0.454323 0.919736 -0.167988
C12   C     C_2   0.824656 0.547328 0.078855 -0.291840
C13   C     C_2   0.320605 0.919625 0.053815 -0.228670
C14   C     C_2   0.679299 0.079638 0.945827 -0.222985
C15   C     C_2   0.674717 0.075622 0.556210 -0.258021
C16   C     C_2   0.326967 0.914843 0.447389 -0.194967
C17   C     C_2   0.984195 0.536969 0.468139 -0.172236
C18   C     C_2   0.015329 0.461015 0.530675 -0.137037
C19   C     C_2   0.016155 0.463029 0.968216 -0.167877
C20   C     C_2   0.984317 0.539362 0.030397 -0.134534
C21   C     C_2   0.469592 0.980629 0.041136 -0.191226
C22   C     C_2   0.529039 0.019390 0.958549 -0.192104
C23   C     C_2   0.504061 0.032001 0.537420 -0.199404
C24   C     C_2   0.457389 0.985913 0.456711 -0.212130
C25   C     C_2   0.328082 0.527165 0.582959 0.843963
O21   O     O_2   0.497740 0.504348 0.582871 -0.524896
O22   O     O_R   0.282413 0.622397 0.592325 -0.620095
H9    H     H_    0.140242 0.633419 0.603001 0.294627
C26   C     C_2   0.670536 0.471749 0.414292 0.832179
O23   O     O_2   0.712290 0.388256 0.417668 -0.541691
O24   O     O_R   0.478727 0.497761 0.400047 -0.649995
H10   H     H_    0.388316 0.441569 0.396232 0.305429
C27   C     C_2   0.672630 0.472869 0.082853 0.846797
O25   O     O_2   0.502718 0.495229 0.082449 -0.524630
O26   O     O_R   0.719571 0.377895 0.093138 -0.617695
H11   H     H_    0.861963 0.367545 0.104236 0.297446
C28   C     C_2   0.329249 0.528329 0.914357 0.839778
O27   O     O_2   0.287264 0.611756 0.917778 -0.526489
O28   O     O_R   0.520849 0.502545 0.899871 -0.649597
H12   H     H_    0.610942 0.558836 0.895945 0.305981
C29   C     C_2   0.816354 0.107417 0.012991 0.831385
O29   O     O_2   0.869374 0.189324 0.017927 -0.526643
O30   O     O_R   0.891706 0.042260 0.069222 -0.646614
H13   H     H_    0.859641 0.974639 0.054767 0.270898
C30   C     C_2   0.185956 0.890044 0.986351 0.838037
O31   O     O_2   0.137252 0.807498 0.981423 -0.510959
O32   O     O_R   0.108234 0.954112 0.929757 -0.646363
H14   H     H_    0.137478 0.022098 0.943933 0.270495
C31   C     C_2   0.235898 0.866140 0.519324 0.833943
O33   O     O_2   0.072107 0.835057 0.512902 -0.540132
O34   O     O_R   0.338076 0.847910 0.592238 -0.617824
H15   H     H_    0.482343 0.857694 0.586788 0.283343
C32   C     C_2   0.840903 0.078083 0.497556 0.849547
O35   O     O_2   0.940389 0.149108 0.493140 -0.516804
O36   O     O_R   0.888531 0.001453 0.447676 -0.636021
H16   H     H_    0.815057 0.942012 0.461983 0.292498

loop_
_geom_bond_atom_site_label_1
_geom_bond_atom_site_label_2
_ccdc_geom_bond_type
O17   V3    S    
C23   C24   S    
O18   V4    S    
O12   V1    S    
O19   V1    S    
C29   O29   D    
C1    C16   S    
C9    C26   S    
O36   H16   S    
C2    C15   S    
C31   O33   D    
C3    C14   S    
O15   V4    S    
C30   O31   D    
O16   V3    S    
H6    C21   S    
O11   C3    A    
C7    C10   S    
O8    V1    S    
C15   C32   S    
C32   O35   D    
C25   O22   S    
O1    V3    S    
C16   C31   S    
O3    C2    A    
O2    V4    S    
C28   O28   S    
C6    C11   S    
O11   V2    S    
H2    C17   S    
C4    C13   S    
O9    V1    S    
C12   C20   D    
O15   C7    A    
C13   C21   D    
O22   H9    S    
C11   C28   S    
O7    V2    S    
C8    C9    S    
C29   O30   S    
C14   C22   D    
C12   C27   S    
C26   O23   D    
C10   C25   S    
C9    C17   D    
C31   O34   S    
O5    V1    S    
C30   O32   S    
O17   V1    S    
C32   O36   S    
O19   V3    S    
O26   H11   S    
O20   V4    S    
O32   H14   S    
C27   O26   S    
H1    C18   S    
C21   C22   S    
C19   C20   S    
O30   H13   S    
C5    C12   S    
O10   V2    S    
O34   H15   S    
H8    C23   S    
O12   C4    A    
C26   O24   S    
O8    C5    A    
O13   C5    A    
O3    V4    S    
H7    C24   S    
H4    C19   S    
C10   C18   D    
H5    C22   S    
O9    C1    A    
O6    V2    S    
O18   V2    S    
O4    C1    A    
C15   C23   D    
C16   C24   D    
O1    C4    A    
O2    C3    A    
O13   V3    S    
O14   V4    S    
O7    C6    A    
O14   C6    A    
O20   V2    S    
O28   H12   S    
C11   C19   D    
C25   O21   D    
O5    C8    A    
O10   C2    A    
O6    C7    A    
C27   O25   D    
C28   O27   D    
O4    V3    S    
O24   H10   S    
O16   C8    A    
C17   C18   S    
H3    C20   S    
C13   C30   S    
C14   C29   S    
