data_mof_unit_34438.cif
_audit_creation_date              2012-12-10T17:19:36-0500
_audit_creation_method            fapswitch 2.2
_symmetry_space_group_name_H-M    P1
_symmetry_Int_Tables_number       1
_space_group_crystal_system       triclinic
_cell_length_a                    10.166527
_cell_length_b                    10.741715
_cell_length_c                    11.525207
_cell_angle_alpha                 89.856294
_cell_angle_beta                  81.183177
_cell_angle_gamma                 94.994592
_cell_volume                      1238.86514403

loop_
_atom_site_label
_atom_site_type_symbol
_atom_type_description
_atom_site_fract_x
_atom_site_fract_y
_atom_site_fract_z
_atom_type_partial_charge
C1    C     C_R   0.555511 0.734125 0.502493 0.829491
C2    C     C_2   0.413693 0.129326 0.533281 0.179160
C3    C     C_2   0.483841 0.930004 0.592273 0.340306
C4    C     C_2   0.497210 0.068877 0.590744 0.367556
C5    C     C_2   0.929389 0.524278 0.495628 0.032061
C6    C     C_2   0.076936 0.509419 0.475290 0.014362
C7    C     C_3   0.605668 0.108994 0.751649 0.056767
C8    C     C_3   0.522985 0.197478 0.829132 -0.366182
C9    C     C_3   0.516363 0.165732 0.959157 -0.945994
C10   C     C_3   0.307672 0.895201 0.747965 0.092879
C11   C     C_3   0.354544 0.806102 0.833936 -0.375105
C12   C     C_R   0.444024 0.265489 0.510661 0.809557
C13   C     C_3   0.277662 0.815310 0.957706 -0.945523
C14   C     C_3   0.193612 0.113312 0.488978 0.146693
C15   C     C_3   0.124378 0.128507 0.616003 -0.432403
C16   C     C_3   0.998304 0.195950 0.619575 -0.864972
C17   C     C_3   0.815607 0.885822 0.525962 0.123386
C18   C     C_3   0.809112 0.886114 0.660466 -0.427700
C19   C     C_3   0.914040 0.811068 0.701000 -0.909639
C20   C     C_3   0.102515 0.514643 0.740386 0.206517
C21   C     C_3   0.961086 0.484072 0.806747 -0.421147
C22   C     C_3   0.959687 0.395414 0.910490 -0.986745
C23   C     C_R   0.501151 0.505064 0.717718 0.863138
C24   C     C_3   0.841673 0.307253 0.311798 0.230421
C25   C     C_3   0.900839 0.186977 0.267280 -0.395104
C26   C     C_3   0.840848 0.135996 0.161633 -0.957863
C27   C     C_R   0.500233 0.501060 0.281877 0.903415
C28   C     C_1   0.502587 0.513701 0.837923 -0.245363
C29   C     C_1   0.501723 0.507606 0.161194 -0.201278
C30   C     C_1   0.503086 0.516313 0.940106 0.007247
C31   C     C_1   0.502728 0.513230 0.058877 -0.010252
C32   C     C_2   0.583624 0.868402 0.530821 0.195823
H1    H     H_    0.117804 0.458082 0.399160 0.126525
H2    H     H_    0.197227 0.879877 0.757298 0.182382
H3    H     H_    0.329943 0.994010 0.771416 0.095837
H4    H     H_    0.338154 0.709292 0.803865 0.252507
H5    H     H_    0.462985 0.825896 0.835934 0.188008
H6    H     H_    0.287548 0.912698 0.989192 0.263921
H7    H     H_    0.317920 0.753332 0.018417 0.274544
H8    H     H_    0.170133 0.785172 0.958694 0.260605
H9    H     H_    0.126349 0.049044 0.444707 0.145914
H10   H     H_    0.205401 0.200770 0.435669 0.150668
H11   H     H_    0.097527 0.035053 0.657876 0.228630
H12   H     H_    0.894434 0.604340 0.542625 0.124529
H13   H     H_    0.191809 0.182098 0.668800 0.205949
H14   H     H_    0.025284 0.293774 0.590031 0.283953
H15   H     H_    0.944492 0.195546 0.710797 0.242599
H16   H     H_    0.931061 0.150643 0.561974 0.298969
H17   H     H_    0.906076 0.945925 0.487913 0.139704
H18   H     H_    0.834401 0.793942 0.488009 0.160690
H19   H     H_    0.827984 0.983073 0.688231 0.234000
H20   H     H_    0.709863 0.847297 0.706073 0.195375
H21   H     H_    0.876523 0.711312 0.706239 0.277782
H22   H     H_    0.931137 0.840350 0.790229 0.247622
H23   H     H_    0.709573 0.128001 0.769131 0.167075
H24   H     H_    0.010020 0.824453 0.639961 0.297101
H25   H     H_    0.164394 0.559889 0.802295 0.158057
H26   H     H_    0.145315 0.425511 0.711673 0.150024
H27   H     H_    0.919841 0.571336 0.841175 0.233613
H28   H     H_    0.895723 0.440801 0.746168 0.242353
H29   H     H_    0.001487 0.306809 0.880623 0.264523
H30   H     H_    0.854987 0.374046 0.954313 0.272726
H31   H     H_    0.019191 0.439599 0.975031 0.269341
H32   H     H_    0.874029 0.383044 0.244677 0.109735
H33   H     H_    0.731767 0.289916 0.324987 0.197312
H34   H     H_    0.574603 0.010354 0.777705 0.106822
H35   H     H_    0.010930 0.205360 0.242651 0.208061
H36   H     H_    0.880677 0.114933 0.338631 0.260465
H37   H     H_    0.731191 0.113921 0.185553 0.274655
H38   H     H_    0.886508 0.049085 0.131876 0.271399
H39   H     H_    0.860956 0.205222 0.088292 0.262825
H40   H     H_    0.573524 0.292171 0.812222 0.245121
H41   H     H_    0.420369 0.195756 0.806919 0.189722
H42   H     H_    0.472076 0.068484 0.978522 0.267965
H43   H     H_    0.453357 0.230259 0.012904 0.268991
H44   H     H_    0.618104 0.175991 0.983952 0.264522
N1    N     N_2   0.842700 0.448890 0.453570 0.048967
N2    N     N_2   0.157300 0.551110 0.546430 0.072078
O1    O     O_R   0.431060 0.692470 0.509350 -0.524806
O2    O     O_3   0.358757 0.866949 0.630760 -0.599795
O3    O     O_3   0.315220 0.057444 0.484130 -0.641579
O4    O     O_3   0.704790 0.936042 0.487515 -0.645647
O5    O     O_3   0.098967 0.599826 0.647267 -0.581792
O6    O     O_3   0.887852 0.338691 0.417691 -0.596640
O7    O     O_R   0.568940 0.307530 0.490650 -0.551581
O8    O     O_R   0.651120 0.659650 0.479540 -0.647018
O9    O     O_R   0.348880 0.340350 0.520460 -0.652258
O10   O     O_R   0.389960 0.516400 0.680450 -0.635394
O11   O     O_R   0.610040 0.483600 0.319550 -0.640809
O12   O     O_R   0.610030 0.483580 0.650650 -0.600978
O13   O     O_R   0.389970 0.516420 0.349350 -0.621026
O14   O     O_3   0.605262 0.134639 0.631161 -0.610282
Zn1   Zn    Zn3+2 0.353060 0.521910 0.519900 0.980640
Zn2   Zn    Zn3+2 0.646940 0.478090 0.480100 0.971295

loop_
_geom_bond_atom_site_label_1
_geom_bond_atom_site_label_2
_ccdc_geom_bond_type
C19   H24   S    
C27   C29   S    
C25   H35   S    
C7    H23   S    
C2    C12   S    
C16   H16   S    
C18   H20   S    
C7    C8    S    
C12   O7    A    
C11   H4    S    
C21   H27   S    
C30   C31   S    
C6    N2    D    
O13   Zn1   S    
N2    Zn1   S    
C15   C16   S    
N1    Zn2   S    
C17   O4    S    
O11   Zn2   S    
C11   H5    S    
C13   H8    S    
O8    Zn2   S    
C22   H31   S    
N2    O5    S    
C8    C9    S    
C27   O13   A    
C10   H3    S    
C9    H44   S    
C14   H10   S    
C19   H21   S    
C24   H32   S    
C21   C22   S    
C26   H39   S    
C25   H36   S    
C3    O2    S    
C16   H15   S    
C18   H19   S    
O12   Zn2   S    
C8    H40   S    
C24   C25   S    
C21   H28   S    
C16   H14   S    
C10   O2    S    
C18   C19   S    
N1    O6    S    
C25   C26   S    
C1    C32   S    
C2    C4    D    
C22   H30   S    
O7    Zn2   S    
C17   C18   S    
C23   O12   A    
C10   H2    S    
C23   C28   S    
C13   H6    S    
C24   H33   S    
C14   H9    S    
C19   H22   S    
C5    H12   S    
C23   O10   A    
C26   H38   S    
C5    N1    D    
C9    H42   S    
C15   H13   S    
C17   H17   S    
C3    C4    S    
C1    O8    A    
O10   Zn1   S    
C12   O9    A    
C17   H18   S    
O1    Zn1   S    
C32   O4    S    
C6    H1    S    
C28   C30   T    
C24   O6    S    
C15   H11   S    
C29   C31   T    
C22   H29   S    
C11   C13   S    
C5    C6    S    
C1    O1    A    
C7    O14   S    
O9    Zn1   S    
C8    H41   S    
C27   O11   A    
C3    C32   D    
C13   H7    S    
C10   C11   S    
C20   C21   S    
C20   O5    S    
C26   H37   S    
C14   C15   S    
C2    O3    S    
C9    H43   S    
C14   O3    S    
C20   H25   S    
C20   H26   S    
C4    O14   S    
C7    H34   S    
