data_mof_unit_62949.cif
_audit_creation_date              2012-12-10T18:13:26-0500
_audit_creation_method            fapswitch 2.2
_symmetry_space_group_name_H-M    P1
_symmetry_Int_Tables_number       1
_space_group_crystal_system       triclinic
_cell_length_a                    18.299272
_cell_length_b                    18.398275
_cell_length_c                    25.905046
_cell_angle_alpha                 89.999934
_cell_angle_beta                  89.999935
_cell_angle_gamma                 90.026626
_cell_volume                      8721.58141909

loop_
_atom_site_label
_atom_site_type_symbol
_atom_type_description
_atom_site_fract_x
_atom_site_fract_y
_atom_site_fract_z
_atom_type_partial_charge
Br1   Br    Br    0.885716 0.882389 0.435955 -0.382389
Br2   Br    Br    0.589896 0.686788 0.936019 -0.346032
Br3   Br    Br    0.671753 0.532467 0.063929 -0.374320
Br4   Br    Br    0.671753 0.532467 0.936071 -0.374321
Br5   Br    Br    0.885716 0.882389 0.564045 -0.382390
Br6   Br    Br    0.386133 0.381917 0.935968 -0.382238
Br7   Br    Br    0.386133 0.381917 0.064032 -0.382239
Br8   Br    Br    0.091131 0.186115 0.563978 -0.346540
Br9   Br    Br    0.091131 0.186115 0.436022 -0.346540
Br10  Br    Br    0.171902 0.031300 0.563927 -0.374040
Br11  Br    Br    0.171902 0.031299 0.436073 -0.374041
Br12  Br    Br    0.589897 0.686788 0.063980 -0.346032
C1    C     C_R   0.859264 0.139440 0.250302 0.509900
C2    C     C_R   0.822390 0.266289 0.262697 -0.127204
C3    C     C_R   0.263899 0.287286 0.296384 -0.028568
C4    C     C_1   0.295280 0.894761 0.226981 0.256545
C5    C     C_1   0.295282 0.894764 0.773007 0.256543
C6    C     C_1   0.778315 0.821939 0.154565 0.268458
C7    C     C_1   0.778315 0.821939 0.845435 0.268458
C8    C     C_1   0.795284 0.394767 0.727004 0.256435
C9    C     C_1   0.795284 0.394767 0.272994 0.256435
C10   C     C_1   0.278288 0.321962 0.654572 0.268511
C11   C     C_1   0.278287 0.321963 0.345428 0.268512
C12   C     C_1   0.704734 0.105287 0.773160 0.251188
C13   C     C_R   0.209945 0.234245 0.705464 -0.117922
C14   C     C_1   0.704734 0.105286 0.226841 0.251188
C15   C     C_1   0.221771 0.177932 0.845421 0.260520
C16   C     C_1   0.221773 0.177932 0.154580 0.260521
C17   C     C_1   0.204738 0.605294 0.273186 0.251160
C18   C     C_1   0.204737 0.605291 0.726826 0.251157
C19   C     C_1   0.721746 0.677956 0.345424 0.260518
C20   C     C_1   0.721746 0.677956 0.654576 0.260517
C21   C     C_1   0.085210 0.894599 0.054817 0.249737
C22   C     C_1   0.085210 0.894600 0.945183 0.249737
C23   C     C_1   0.914791 0.105346 0.054816 0.250455
C24   C     C_R   0.209945 0.234245 0.294536 -0.117923
C25   C     C_1   0.914791 0.105346 0.945184 0.250455
C26   C     C_1   0.585216 0.394604 0.554817 0.249730
C27   C     C_1   0.585216 0.394604 0.445183 0.249730
C28   C     C_1   0.414781 0.605339 0.554816 0.250479
C29   C     C_1   0.414781 0.605339 0.445184 0.250479
C30   C     C_R   0.322385 0.766284 0.237288 -0.127150
C31   C     C_R   0.322387 0.766286 0.762705 -0.127147
C32   C     C_R   0.709959 0.734230 0.205457 -0.117886
C33   C     C_R   0.709959 0.734229 0.794543 -0.117885
C34   C     C_R   0.802456 0.194929 0.749699 0.022259
C35   C     C_R   0.802456 0.194929 0.250300 0.022259
C36   C     C_R   0.195881 0.196554 0.751333 0.015022
C37   C     C_R   0.859264 0.139440 0.749698 0.509900
C38   C     C_R   0.195882 0.196554 0.248666 0.015022
C39   C     C_R   0.302456 0.694928 0.249699 0.022254
C40   C     C_R   0.302456 0.694929 0.750300 0.022257
C41   C     C_R   0.695883 0.696552 0.251331 0.015037
C42   C     C_R   0.695883 0.696552 0.748669 0.015037
C43   C     C_R   0.729251 0.178443 0.762369 -0.022683
C44   C     C_R   0.729251 0.178443 0.237632 -0.022683
C45   C     C_R   0.236181 0.212634 0.796389 -0.028709
C46   C     C_R   0.236182 0.212634 0.203611 -0.028710
C47   C     C_R   0.229255 0.678448 0.262383 -0.022674
C48   C     C_R   0.139729 0.140421 0.249310 0.515701
C49   C     C_R   0.229254 0.678446 0.737623 -0.022674
C50   C     C_R   0.736170 0.712644 0.296389 -0.028702
C51   C     C_R   0.736170 0.712644 0.703611 -0.028703
C52   C     C_R   0.177627 0.733755 0.262818 -0.127194
C53   C     C_R   0.177625 0.733753 0.737188 -0.127192
C54   C     C_R   0.790139 0.765679 0.294546 -0.123622
C55   C     C_R   0.790139 0.765679 0.705454 -0.123621
C56   C     C_R   0.677622 0.233750 0.762803 -0.127200
C57   C     C_R   0.677622 0.233750 0.237197 -0.127200
C58   C     C_R   0.290150 0.265669 0.794545 -0.123647
C59   C     C_R   0.139729 0.140421 0.750690 0.515702
C60   C     C_R   0.290151 0.265669 0.205455 -0.123647
C61   C     C_R   0.197552 0.805105 0.250392 0.023844
C62   C     C_R   0.197552 0.805105 0.749608 0.023846
C63   C     C_R   0.804188 0.803387 0.248674 0.014389
C64   C     C_R   0.804188 0.803388 0.751326 0.014389
C65   C     C_R   0.697551 0.305104 0.750391 0.023822
C66   C     C_R   0.697551 0.305105 0.249609 0.023823
C67   C     C_R   0.304188 0.303389 0.748676 0.014375
C68   C     C_R   0.304188 0.303389 0.251324 0.014374
C69   C     C_R   0.042986 0.948821 0.027001 -0.040867
C70   C     C_R   0.359264 0.639440 0.750302 0.509883
C71   C     C_R   0.042986 0.948821 0.972999 -0.040867
C72   C     C_R   0.957009 0.051118 0.027001 -0.041554
C73   C     C_R   0.957009 0.051118 0.972999 -0.041554
C74   C     C_R   0.542990 0.448824 0.527001 -0.040867
C75   C     C_R   0.542990 0.448824 0.472999 -0.040867
C76   C     C_R   0.457004 0.551114 0.527000 -0.041561
C77   C     C_R   0.457004 0.551114 0.472999 -0.041562
C78   C     C_R   0.999998 0.999969 0.946159 0.005129
C79   C     C_R   0.999998 0.999970 0.053841 0.005129
C80   C     C_R   0.499997 0.499970 0.446159 0.005128
C81   C     C_R   0.359264 0.639440 0.249698 0.509884
C82   C     C_R   0.499997 0.499970 0.553841 0.005129
C83   C     C_R   0.140733 0.860580 0.250347 0.515894
C84   C     C_R   0.140733 0.860580 0.749653 0.515893
C85   C     C_R   0.860299 0.859569 0.249327 0.510384
C86   C     C_R   0.860299 0.859569 0.750673 0.510383
C87   C     C_R   0.640732 0.360579 0.750347 0.515839
C88   C     C_R   0.640732 0.360579 0.249653 0.515838
C89   C     C_R   0.360299 0.359569 0.749327 0.510350
C90   C     C_R   0.360298 0.359569 0.250673 0.510349
C91   C     C_R   1.000000 0.999973 0.110013 0.509819
C92   C     C_R   0.639730 0.640420 0.749311 0.515688
C93   C     C_R   1.000000 0.999973 0.889987 0.509819
C94   C     C_R   0.500000 0.499973 0.610013 0.509832
C95   C     C_R   0.500000 0.499973 0.389987 0.509832
C96   C     C_R   0.998468 0.000018 0.389905 0.569626
C97   C     C_R   0.998468 0.000018 0.610095 0.569626
C98   C     C_R   0.498456 0.500017 0.889906 0.569478
C99   C     C_R   0.498456 0.500017 0.110094 0.569478
C100  C     C_R   0.025482 0.056096 0.473598 -0.022178
C101  C     C_R   0.025483 0.056096 0.526402 -0.022178
C102  C     C_R   0.525130 0.556274 0.973601 -0.022217
C103  C     C_R   0.639730 0.640420 0.250689 0.515689
C104  C     C_R   0.525130 0.556274 0.026399 -0.022217
C105  C     C_R   0.991831 0.000658 0.445708 0.013918
C106  C     C_R   0.991831 0.000659 0.554292 0.013918
C107  C     C_R   0.491767 0.500655 0.945706 0.013819
C108  C     C_R   0.491767 0.500655 0.054294 0.013819
C109  C     C_R   0.947512 0.950088 0.472685 0.168651
C110  C     C_R   0.947512 0.950088 0.527316 0.168651
C111  C     C_R   0.447664 0.449884 0.972684 0.168653
C112  C     C_R   0.447664 0.449884 0.027316 0.168653
C113  C     C_3   0.098805 0.092025 0.529924 0.319160
C114  C     C_R   0.822390 0.266289 0.737302 -0.127204
C115  C     C_3   0.098805 0.092025 0.470076 0.319160
C116  C     C_3   0.598224 0.592720 0.029926 0.319189
C117  C     C_3   0.598224 0.592720 0.970074 0.319189
C118  C     C_R   0.270759 0.821594 0.237736 -0.021763
C119  C     C_R   0.270761 0.821596 0.762257 -0.021762
C120  C     C_R   0.763913 0.787273 0.203610 -0.028566
C121  C     C_R   0.763913 0.787272 0.796390 -0.028566
C122  C     C_R   0.770762 0.321598 0.737749 -0.021781
C123  C     C_R   0.770763 0.321598 0.262250 -0.021780
C124  C     C_R   0.263900 0.287286 0.703616 -0.028567
H1    H     H_    0.878802 0.279210 0.728189 0.153658
H2    H     H_    0.121215 0.720833 0.728069 0.151893
H3    H     H_    0.820438 0.778651 0.329364 0.179153
H4    H     H_    0.820438 0.778652 0.670636 0.179153
H5    H     H_    0.621210 0.220828 0.771916 0.151916
H6    H     H_    0.621210 0.220828 0.228085 0.151915
H7    H     H_    0.320459 0.278632 0.829361 0.179183
H8    H     H_    0.320459 0.278632 0.170639 0.179184
H9    H     H_    0.878802 0.279211 0.271810 0.153657
H10   H     H_    0.179660 0.221260 0.670656 0.188408
H11   H     H_    0.179660 0.221260 0.329343 0.188409
H12   H     H_    0.378794 0.779203 0.228163 0.153737
H13   H     H_    0.378797 0.779206 0.771825 0.153732
H14   H     H_    0.679686 0.721233 0.170645 0.188342
H15   H     H_    0.679686 0.721232 0.829355 0.188342
H16   H     H_    0.121219 0.720837 0.271942 0.151898
N1    N     N_1   0.314978 0.953317 0.218389 -0.230312
N2    N     N_1   0.685037 0.046740 0.218216 -0.233808
N3    N     N_1   0.210266 0.150219 0.884702 -0.219130
N4    N     N_1   0.210267 0.150219 0.115298 -0.219129
N5    N     N_1   0.185042 0.546749 0.281820 -0.233897
N6    N     N_1   0.185040 0.546745 0.718196 -0.233902
N7    N     N_1   0.710229 0.650252 0.384707 -0.219163
N8    N     N_1   0.710230 0.650253 0.615293 -0.219162
N9    N     N_1   0.118828 0.851425 0.076987 -0.245332
N10   N     N_1   0.118829 0.851426 0.923013 -0.245332
N11   N     N_1   0.881178 0.148526 0.076985 -0.238464
N12   N     N_1   0.314980 0.953321 0.781595 -0.230316
N13   N     N_1   0.881178 0.148526 0.923015 -0.238464
N14   N     N_1   0.618837 0.351431 0.576987 -0.245339
N15   N     N_1   0.618837 0.351431 0.423013 -0.245339
N16   N     N_1   0.381163 0.648515 0.576985 -0.238356
N17   N     N_1   0.381163 0.648515 0.423015 -0.238356
N18   N     N_1   0.789800 0.849613 0.115266 -0.209358
N19   N     N_1   0.789799 0.849613 0.884734 -0.209358
N20   N     N_1   0.814982 0.453324 0.718419 -0.230435
N21   N     N_1   0.814982 0.453325 0.281578 -0.230436
N22   N     N_1   0.289763 0.349644 0.615274 -0.209306
N23   N     N_1   0.289761 0.349644 0.384725 -0.209304
N24   N     N_1   0.685037 0.046740 0.781786 -0.233807
O1    O     O_3   0.000000 0.000010 0.249960 -0.476633
O2    O     O_R   0.414520 0.646190 0.219700 -0.538949
O3    O     O_R   0.585480 0.646190 0.780300 -0.524814
O4    O     O_R   0.585480 0.646190 0.219700 -0.524814
O5    O     O_R   0.085460 0.853840 0.280340 -0.535069
O6    O     O_R   0.085460 0.853840 0.719660 -0.535067
O7    O     O_R   0.914540 0.853840 0.280340 -0.530809
O8    O     O_R   0.914540 0.853840 0.719660 -0.530809
O9    O     O_R   0.585460 0.353840 0.780340 -0.535086
O10   O     O_R   0.585460 0.353840 0.219660 -0.535086
O11   O     O_R   0.414540 0.353840 0.780340 -0.530764
O12   O     O_3   0.000000 0.000010 0.750040 -0.476633
O13   O     O_R   0.414540 0.353840 0.219660 -0.530763
O14   O     O_R   0.853820 0.914550 0.219610 -0.526030
O15   O     O_R   0.853820 0.914550 0.780390 -0.526030
O16   O     O_R   0.146180 0.914550 0.219610 -0.522530
O17   O     O_R   0.146180 0.914550 0.780390 -0.522529
O18   O     O_R   0.353820 0.414550 0.719610 -0.526058
O19   O     O_R   0.353820 0.414550 0.280390 -0.526059
O20   O     O_R   0.646180 0.414550 0.719610 -0.522521
O21   O     O_R   0.646180 0.414550 0.280390 -0.522521
O22   O     O_R   0.146170 0.085440 0.219600 -0.523789
O23   O     O_3   0.500000 0.500010 0.749960 -0.476646
O24   O     O_R   0.146170 0.085440 0.780400 -0.523788
O25   O     O_R   0.853830 0.085440 0.219600 -0.522237
O26   O     O_R   0.853830 0.085440 0.780400 -0.522237
O27   O     O_R   0.646170 0.585440 0.719600 -0.523810
O28   O     O_R   0.646170 0.585440 0.280400 -0.523810
O29   O     O_R   0.353830 0.585440 0.719600 -0.522249
O30   O     O_R   0.353830 0.585440 0.280400 -0.522250
O31   O     O_R   0.939270 0.999980 0.134160 -0.524521
O32   O     O_R   0.939270 0.999980 0.865840 -0.524522
O33   O     O_R   0.060730 0.999980 0.134160 -0.525191
O34   O     O_3   0.500000 0.500010 0.250040 -0.476646
O35   O     O_R   0.060730 0.999980 0.865840 -0.525191
O36   O     O_R   0.439270 0.499980 0.634160 -0.524521
O37   O     O_R   0.439270 0.499980 0.365840 -0.524521
O38   O     O_R   0.560730 0.499980 0.634160 -0.525183
O39   O     O_R   0.560730 0.499980 0.365840 -0.525183
O40   O     O_R   1.000000 0.060760 0.365760 -0.504956
O41   O     O_R   1.000000 0.060760 0.634240 -0.504956
O42   O     O_R   0.500000 0.560760 0.865760 -0.504861
O43   O     O_R   0.500000 0.560760 0.134240 -0.504861
O44   O     O_R   0.000000 0.939310 0.365770 -0.491340
O45   O     O_R   0.914520 0.146190 0.280300 -0.539029
O46   O     O_R   1.000000 0.939310 0.634230 -0.491340
O47   O     O_R   0.500000 0.439310 0.865770 -0.491412
O48   O     O_R   0.500000 0.439310 0.134230 -0.491411
O49   O     O_R   0.914520 0.146190 0.719700 -0.539029
O50   O     O_R   0.085480 0.146190 0.280300 -0.524897
O51   O     O_R   0.085480 0.146190 0.719700 -0.524897
O52   O     O_R   0.414520 0.646190 0.780300 -0.538946
Zn1   Zn    Zn3+2 0.000000 0.913260 0.293350 1.005326
Zn2   Zn    Zn3+2 0.413230 0.500000 0.293420 0.995348
Zn3   Zn    Zn3+2 0.586770 0.500000 0.706580 1.001184
Zn4   Zn    Zn3+2 0.586770 0.500000 0.293420 1.001184
Zn5   Zn    Zn3+2 0.000000 0.086780 0.293330 1.003005
Zn6   Zn    Zn3+2 1.000000 0.086780 0.706670 1.003005
Zn7   Zn    Zn3+2 0.500000 0.586780 0.793330 1.003102
Zn8   Zn    Zn3+2 0.500000 0.586780 0.206670 1.003101
Zn9   Zn    Zn3+2 0.000000 0.913260 0.706650 1.005327
Zn10  Zn    Zn3+2 0.500000 0.413260 0.793350 1.005255
Zn11  Zn    Zn3+2 0.500000 0.413260 0.206650 1.005255
Zn12  Zn    Zn3+2 0.913230 0.000000 0.206580 0.995379
Zn13  Zn    Zn3+2 0.913230 1.000000 0.793420 0.995379
Zn14  Zn    Zn3+2 0.086770 0.000000 0.206580 1.001213
Zn15  Zn    Zn3+2 0.086770 1.000000 0.793420 1.001213
Zn16  Zn    Zn3+2 0.413230 0.500000 0.706580 0.995348

loop_
_geom_bond_atom_site_label_1
_geom_bond_atom_site_label_2
_ccdc_geom_bond_type
C29   C77   S    
C114  H1    S    
O30   Zn2   S    
C3    C24   A    
C6    C120  S    
C27   C75   S    
Br7   C112  S    
C30   H12   S    
C90   O19   A    
Br2   C117  S    
C43   C56   A    
O12   Zn13  S    
C24   C38   A    
C111  C112  A    
O22   Zn14  S    
C12   C43   S    
C16   C46   S    
C67   C124  A    
C2    H9    S    
C58   H7    S    
Br9   C115  S    
O50   Zn5   S    
O18   Zn16  S    
O44   Zn1   S    
C52   H16   S    
O49   Zn6   S    
C101  C106  A    
C42   C92   S    
O27   Zn3   S    
C7    N19   T    
O42   Zn7   S    
C40   C49   A    
O1    Zn1   S    
C100  C105  A    
C31   C40   A    
C92   O3    A    
C101  C113  S    
C2    C123  A    
C98   O47   A    
C64   C86   S    
C63   C85   S    
C90   O13   A    
C84   O6    A    
C60   H8    S    
C106  C110  A    
C71   C78   A    
C13   C124  A    
C105  C109  A    
C100  C115  S    
O23   Zn3   S    
O12   Zn9   S    
C74   C82   A    
C10   N22   T    
C37   O26   A    
C32   C41   A    
C54   H3    S    
O9    Zn10  S    
O5    Zn1   S    
O52   Zn7   S    
C7    C121  S    
C34   C43   A    
O23   Zn16  S    
C52   C61   A    
C13   H10   S    
C72   C79   A    
O34   Zn8   S    
C45   C58   A    
Br10  C113  S    
C4    C118  S    
C66   C123  A    
O7    Zn1   S    
C103  O4    A    
C31   H13   S    
C48   O22   A    
C30   C39   A    
C88   O21   A    
C62   C119  A    
C3    C11   S    
O1    Zn14  S    
C98   C107  S    
C104  C116  S    
C75   C80   A    
C116  C117  S    
C86   O8    A    
O40   Zn5   S    
O17   Zn15  S    
C19   C50   S    
C91   O33   A    
C57   C66   A    
C99   O43   A    
Br6   C111  S    
C81   O30   A    
C96   C105  S    
C100  C101  A    
C69   C71   A    
C97   C106  S    
C85   O7    A    
C39   C47   A    
C76   C82   A    
C6    N18   T    
C15   N3    T    
C94   O38   A    
C51   C55   A    
C62   C84   S    
O16   Zn14  S    
C50   C54   A    
O39   Zn4   S    
O15   Zn13  S    
C92   O27   A    
O35   Zn15  S    
C36   C45   A    
O38   Zn3   S    
O32   Zn13  S    
C20   C51   S    
O3    Zn7   S    
C15   C45   S    
C1    O45   A    
C41   C103  S    
C1    C35   S    
Br3   C116  S    
C83   O5    A    
O1    Zn5   S    
C57   H6    S    
C21   C69   S    
O26   Zn13  S    
C70   O52   A    
Br5   C110  S    
C32   H14   S    
C53   C62   A    
C104  C108  A    
O19   Zn2   S    
C10   C124  S    
C99   C108  S    
C33   H15   S    
C38   C46   A    
O28   Zn4   S    
C88   O10   A    
C85   O14   A    
C5    N12   T    
O23   Zn7   S    
C5    C119  S    
C41   C50   A    
C17   C47   S    
C24   H11   S    
C3    C68   A    
C95   O37   A    
O20   Zn3   S    
C18   N6    T    
C89   O18   A    
C73   C78   A    
C80   C95   S    
C94   O36   A    
C103  O28   A    
O34   Zn2   S    
Br4   C117  S    
O14   Zn12  S    
C56   H5    S    
C30   C118  A    
C25   N13   T    
C72   C73   A    
C77   C80   A    
C40   C70   S    
C55   H4    S    
O24   Zn15  S    
O4    Zn8   S    
C109  C110  A    
C96   O40   A    
C83   O16   A    
C39   C81   S    
O1    Zn12  S    
Br11  C115  S    
O31   Zn12  S    
C84   O17   A    
C8    N20   T    
C65   C122  A    
C26   C74   S    
C33   C42   A    
C9    N21   T    
C66   C88   S    
C64   C121  A    
C34   C37   S    
C14   N2    T    
C59   O24   A    
C22   C71   S    
C53   H2    S    
C36   C59   S    
C37   O49   A    
O13   Zn11  S    
O23   Zn10  S    
O8    Zn9   S    
C87   O9    A    
O11   Zn10  S    
O12   Zn6   S    
C63   C120  A    
C93   O32   A    
C113  C115  S    
O21   Zn4   S    
C25   C73   S    
C56   C65   A    
C26   N14   T    
O51   Zn6   S    
C61   C118  A    
C82   C94   S    
Br1   C109  S    
O45   Zn5   S    
C58   C67   A    
C74   C75   A    
C59   O51   A    
O43   Zn8   S    
C34   C114  A    
C17   N5    T    
C23   C72   S    
C102  C107  A    
C78   C93   S    
C91   O31   A    
C86   O15   A    
C22   N10   T    
O47   Zn10  S    
C14   C44   S    
O41   Zn6   S    
O33   Zn14  S    
C102  C104  A    
C81   O2    A    
C2    C35   A    
Br12  C116  S    
C107  C111  A    
C32   C120  A    
O46   Zn9   S    
C33   C121  A    
C93   O35   A    
C38   C48   S    
O34   Zn11  S    
C28   C76   S    
C31   C119  A    
O36   Zn16  S    
C61   C83   S    
C96   O44   A    
O2    Zn8   S    
O29   Zn16  S    
C46   C60   A    
C29   N17   T    
C54   C63   A    
C87   O20   A    
C102  C117  S    
C1    O25   A    
C65   C87   S    
C48   O50   A    
C99   O48   A    
C49   C53   A    
C27   N15   T    
C11   N23   T    
C98   O42   A    
O48   Zn11  S    
C23   N11   T    
C28   N16   T    
C97   O41   A    
O37   Zn2   S    
O10   Zn11  S    
C69   C79   A    
C47   C52   A    
Br8   C113  S    
C95   O39   A    
C76   C77   A    
C114  C122  A    
O25   Zn12  S    
C60   C68   A    
C44   C57   A    
C42   C51   A    
C18   C49   S    
C68   C90   S    
C4    N1    T    
C16   N4    T    
O34   Zn4   S    
C67   C89   S    
O12   Zn15  S    
C55   C64   A    
C21   N9    T    
C8    C122  S    
C89   O11   A    
C13   C36   A    
C79   C91   S    
C9    C123  S    
C70   O29   A    
C19   N7    T    
C97   O46   A    
C108  C112  A    
O6    Zn9   S    
C35   C44   A    
C20   N8    T    
C12   N24   T    
