data_mof_unit_52689.cif
_audit_creation_date              2012-12-10T18:38:35-0500
_audit_creation_method            fapswitch 2.2
_symmetry_space_group_name_H-M    P1
_symmetry_Int_Tables_number       1
_space_group_crystal_system       triclinic
_cell_length_a                    15.872567
_cell_length_b                    15.108576
_cell_length_c                    13.866783
_cell_angle_alpha                 89.969373
_cell_angle_beta                  89.859731
_cell_angle_gamma                 90.276783
_cell_volume                      3325.37010463

loop_
_atom_site_label
_atom_site_type_symbol
_atom_type_description
_atom_site_fract_x
_atom_site_fract_y
_atom_site_fract_z
_atom_type_partial_charge
C1    C     C_R   0.499318 0.329776 0.500065 0.817997
C2    C     C_R   0.499500 0.670036 0.500002 0.816526
C3    C     C_R   0.470412 0.187773 0.583740 -0.284398
C4    C     C_R   0.453744 0.810988 0.426779 -0.276437
C5    C     C_R   0.496301 0.233121 0.500454 -0.087178
C6    C     C_R   0.496631 0.766310 0.500126 -0.085152
C7    C     C_R   0.518460 0.185631 0.417541 -0.209528
C8    C     C_R   0.535520 0.813903 0.574354 -0.214175
C9    C     C_R   0.516225 0.093722 0.418370 -0.164171
C10   C     C_R   0.533418 0.905777 0.574013 -0.159797
C11   C     C_R   0.489997 0.048109 0.501310 0.030415
C12   C     C_R   0.490044 0.951000 0.501239 0.026070
C13   C     C_R   0.571982 0.528571 0.107569 0.392480
C14   C     C_R   0.469272 0.425489 0.892136 0.389347
C15   C     C_R   0.568819 0.530425 0.209356 -0.017330
C16   C     C_R   0.467824 0.429077 0.790290 -0.017083
C17   C     C_R   0.431745 0.469333 0.209006 0.035657
C18   C     C_R   0.532040 0.570258 0.791138 0.043133
C19   C     C_R   0.430574 0.469565 0.107596 -0.288277
C20   C     C_R   0.531681 0.571360 0.892544 -0.290278
C21   C     C_R   0.501069 0.499103 0.054538 0.044135
C22   C     C_R   0.500338 0.498586 0.945337 0.042528
C23   C     C_R   0.339800 0.499914 0.500102 0.819684
C24   C     C_R   0.660236 0.500242 0.499877 0.824076
C25   C     C_3   0.971585 0.423676 0.532031 0.404213
C26   C     C_3   0.028764 0.578254 0.467315 0.402701
C27   C     C_3   0.027568 0.436560 0.442667 0.403447
C28   C     C_3   0.972725 0.565393 0.556676 0.404653
C29   C     C_1   0.250238 0.499931 0.500462 -0.176453
C30   C     C_1   0.749870 0.500861 0.499390 -0.173998
C31   C     C_3   0.027117 0.487214 0.592510 -0.474622
C32   C     C_3   0.973177 0.514733 0.406805 -0.475271
C33   C     C_3   0.083259 0.500301 0.501450 -0.031302
C34   C     C_3   0.916961 0.501580 0.497917 -0.033251
C35   C     C_1   0.174792 0.500029 0.500933 0.069976
C36   C     C_1   0.825359 0.501351 0.498683 0.071130
C37   C     C_R   0.465112 0.095450 0.583962 0.441405
C38   C     C_R   0.447906 0.903256 0.428498 0.440732
Cu1   Cu    Cu3+1 0.500000 0.499990 0.596430 0.948357
Cu2   Cu    Cu3+1 0.500000 0.500010 0.403570 0.945371
H1    H     H_    0.377247 0.444786 0.247659 0.152078
H2    H     H_    0.557728 0.626418 0.752512 0.139585
H3    H     H_    0.374150 0.447371 0.071024 0.195133
H4    H     H_    0.555284 0.629521 0.929350 0.194977
H5    H     H_    0.949905 0.525795 0.332385 0.157691
H6    H     H_    0.050432 0.476157 0.666913 0.158454
H7    H     H_    0.453192 0.223716 0.648373 0.152973
H8    H     H_    0.423193 0.774342 0.369415 0.162780
H9    H     H_    0.539026 0.219448 0.352666 0.163946
H10   H     H_    0.569168 0.780073 0.631281 0.152038
H11   H     H_    0.536011 0.058029 0.354543 0.175483
H12   H     H_    0.566407 0.941725 0.630088 0.176491
H13   H     H_    0.622568 0.555586 0.248600 0.149022
H14   H     H_    0.441272 0.374103 0.750638 0.137677
N1    N     N_R   0.500000 0.500020 0.258690 -0.197294
N2    N     N_R   0.500000 0.499980 0.741310 -0.193579
O1    O     O_R   0.500010 0.371450 0.581430 -0.594989
O2    O     O_R   0.499990 0.628550 0.418570 -0.575272
O3    O     O_R   0.500010 0.371460 0.418560 -0.579166
O4    O     O_R   0.499990 0.628540 0.581440 -0.591954
O5    O     O_R   0.379080 0.499990 0.581420 -0.575235
O6    O     O_R   0.620920 0.500010 0.418580 -0.594239
O7    O     O_R   0.379080 0.500000 0.418550 -0.580975
O8    O     O_R   0.620920 0.500000 0.581450 -0.560896
O9    O     O_3   0.063058 0.368256 0.386662 -0.578399
C39   C     C_3   0.999681 0.327744 0.330684 0.082838
H15   H     H_    0.978601 0.373450 0.272728 0.143848
H16   H     H_    0.944460 0.307573 0.375420 0.172661
C40   C     C_3   0.035295 0.244997 0.283752 -0.797960
H17   H     H_    0.056135 0.197695 0.340127 0.245799
H18   H     H_    0.986156 0.212718 0.238835 0.197382
H19   H     H_    0.089873 0.262671 0.237177 0.255333
O10   O     O_3   0.937474 0.633788 0.612743 -0.577275
C41   C     C_3   0.001008 0.673864 0.668884 0.083478
H20   H     H_    0.056443 0.693666 0.624292 0.171487
H21   H     H_    0.021688 0.628003 0.726884 0.146995
C42   C     C_3   0.965873 0.756842 0.715774 -0.794789
H22   H     H_    0.911103 0.739543 0.762218 0.256273
H23   H     H_    0.015152 0.788736 0.760816 0.197602
H24   H     H_    0.945468 0.804314 0.659364 0.246285
O11   O     O_3   0.935237 0.342869 0.562215 -0.576426
C43   C     C_3   0.998093 0.288262 0.601862 0.083072
H25   H     H_    0.019155 0.314945 0.672613 0.145510
H26   H     H_    0.053436 0.282046 0.552830 0.170447
C44   C     C_3   0.961789 0.196117 0.617984 -0.797724
H27   H     H_    0.940997 0.167441 0.548185 0.247187
H28   H     H_    0.010530 0.152585 0.649902 0.194794
H29   H     H_    0.907079 0.199394 0.667926 0.255487
O12   O     O_3   0.065983 0.658657 0.437223 -0.580362
C45   C     C_3   0.003823 0.714299 0.397983 0.090482
H30   H     H_    0.949454 0.722378 0.448073 0.173248
H31   H     H_    0.981090 0.687375 0.328017 0.147009
C46   C     C_3   0.042065 0.805325 0.379889 -0.811979
H32   H     H_    0.096011 0.800082 0.329059 0.252451
H33   H     H_    0.993948 0.849756 0.348219 0.201529
H34   H     H_    0.064531 0.834288 0.448865 0.243873
O13   O     O_3   0.439455 0.051100 0.666284 -0.591321
C47   C     C_3   0.351030 0.057334 0.674506 0.062962
H35   H     H_    0.319154 0.035468 0.606975 0.127723
H36   H     H_    0.332060 0.126435 0.691548 0.143124
C48   C     C_3   0.321120 0.997532 0.756022 -0.773012
H37   H     H_    0.350647 0.018291 0.824988 0.252005
H38   H     H_    0.251575 0.001866 0.763332 0.193151
H39   H     H_    0.338508 0.927842 0.740460 0.249455
O14   O     O_3   0.403779 0.947239 0.357326 -0.588395
C49   C     C_3   0.316638 0.937883 0.375719 0.065860
H40   H     H_    0.300616 0.957224 0.451130 0.127263
H41   H     H_    0.295765 0.868443 0.362869 0.149528
C50   C     C_3   0.268172 0.998037 0.307881 -0.774412
H42   H     H_    0.281614 0.979882 0.231800 0.251935
H43   H     H_    0.199475 0.990973 0.321465 0.195653
H44   H     H_    0.286943 0.068079 0.319973 0.251033
O15   O     O_3   0.643932 0.557801 0.061018 -0.589706
C51   C     C_3   0.699865 0.486020 0.052752 -0.328737
H45   H     H_    0.671836 0.431303 0.009480 0.159025
H46   H     H_    0.719498 0.461326 0.124906 0.149837
H47   H     H_    0.757393 0.509005 0.014483 0.198067
O16   O     O_3   0.437846 0.351590 0.938941 -0.594094
C52   C     C_3   0.499829 0.285112 0.937128 -0.320584
H48   H     H_    0.558966 0.307752 0.972673 0.153162
H49   H     H_    0.512996 0.262749 0.862151 0.160982
H50   H     H_    0.475920 0.227069 0.978059 0.199284

loop_
_geom_bond_atom_site_label_1
_geom_bond_atom_site_label_2
_ccdc_geom_bond_type
C25   C31   S    
C39   H16   S    
C23   C29   S    
C26   C32   S    
C46   H32   S    
C32   H5    S    
C9    H11   S    
C10   H12   S    
C37   O13   S    
O11   C43   S    
C44   H27   S    
C27   C33   S    
C26   O12   S    
Cu1   O8    S    
C48   H37   S    
Cu2   O7    S    
C41   H21   S    
C1    C5    S    
C15   H13   S    
C19   C21   A    
C18   H2    S    
C47   H35   S    
C2    O4    A    
C44   H29   S    
C39   C40   S    
C49   H40   S    
Cu1   O1    S    
Cu2   O6    S    
C11   C37   A    
O10   C41   S    
C3    H7    S    
C40   H18   S    
O16   C52   S    
C17   C19   A    
C14   O16   S    
C41   C42   S    
C31   C33   S    
C17   N1    A    
C18   C20   A    
C18   N2    A    
C25   C34   S    
C42   H23   S    
C39   H15   S    
C28   C34   S    
C24   O8    A    
Cu2   O3    S    
C21   C22   S    
C25   O11   S    
C2    C6    S    
C28   O10   S    
C20   H4    S    
C19   H3    S    
O13   C47   S    
C24   C30   S    
C52   H49   S    
Cu1   O5    S    
Cu2   O2    S    
C41   H20   S    
C44   H28   S    
C7    H9    S    
C4    C6    A    
C50   H44   S    
Cu1   Cu2   S    
C5    C7    A    
C6    C8    A    
C42   H22   S    
C31   H6    S    
C15   N1    A    
C40   H19   S    
C16   N2    A    
C27   O9    S    
C1    O1    A    
C26   C33   S    
C45   H31   S    
Cu1   N2    S    
C52   H48   S    
Cu2   N1    S    
C13   C21   A    
C16   H14   S    
C9    C11   A    
C10   C12   A    
C1    O3    A    
C4    C38   A    
O9    C39   S    
C46   H34   S    
C43   H26   S    
C13   C15   A    
C14   C16   A    
C47   C48   S    
C8    H10   S    
C45   C46   S    
O15   C51   S    
C4    H8    S    
C52   H50   S    
C7    C9    A    
C24   O6    A    
C27   C32   S    
C26   C28   S    
C28   C31   S    
C20   C22   A    
C3    C5    A    
C51   H46   S    
C11   C12   S    
C2    O2    A    
C51   H45   S    
C25   C27   S    
C43   C44   S    
O14   C49   S    
C29   C35   T    
C47   H36   S    
C48   H38   S    
C30   C36   T    
C14   C22   A    
C38   O14   S    
C50   H43   S    
C50   H42   S    
C42   H24   S    
C45   H30   S    
C46   H33   S    
C49   H41   S    
Cu1   O4    S    
C23   O7    A    
C33   C35   S    
C34   C36   S    
C12   C38   A    
C40   H17   S    
C17   H1    S    
C51   H47   S    
C23   O5    A    
C3    C37   A    
C8    C10   A    
C43   H25   S    
C48   H39   S    
O12   C45   S    
C13   O15   S    
C32   C34   S    
C49   C50   S    
