data_mof_unit_51633.cif
_audit_creation_date              2012-12-11T14:17:42-0500
_audit_creation_method            fapswitch 2.2
_symmetry_space_group_name_H-M    P1
_symmetry_Int_Tables_number       1
_space_group_crystal_system       triclinic
_cell_length_a                    11.323062
_cell_length_b                    11.268823
_cell_length_c                    19.117855
_cell_angle_alpha                 90.040631
_cell_angle_beta                  90.282626
_cell_angle_gamma                 120.603808
_cell_volume                      2099.56449296

loop_
_atom_site_label
_atom_site_type_symbol
_atom_type_description
_atom_site_fract_x
_atom_site_fract_y
_atom_site_fract_z
_atom_type_partial_charge
C1    C     C_R   0.526643 0.451007 0.144443 0.598661
C2    C     C_R   0.547202 0.072576 0.145201 0.589605
C3    C     C_R   0.924763 0.473767 0.144592 0.591476
C4    C     C_R   0.450867 0.526949 0.855690 0.599285
C5    C     C_R   0.073281 0.547572 0.854975 0.587914
C6    C     C_R   0.474515 0.926218 0.855017 0.589458
C7    C     C_R   0.392878 0.944989 0.456453 -0.175761
C8    C     C_R   0.029320 0.430181 0.459694 -0.141699
C9    C     C_R   0.578141 0.590460 0.459495 -0.130232
C10   C     C_R   0.049820 0.437250 0.531614 -0.147965
C11   C     C_R   0.378577 0.931065 0.529216 -0.143489
C12   C     C_R   0.546186 0.617070 0.525650 -0.159397
C13   C     C_R   0.745614 0.113260 0.584956 -0.072703
C14   C     C_R   0.886159 0.637628 0.585714 -0.068136
C15   C     C_R   0.240279 0.263725 0.564700 -0.084443
C16   C     C_R   0.952739 0.716008 0.447274 -0.097185
C17   C     C_R   0.760525 0.046606 0.446923 -0.083738
C18   C     C_R   0.352863 0.206068 0.453766 -0.085570
C19   C     C_R   0.867039 0.129603 0.559494 -0.118706
C20   C     C_R   0.869260 0.742310 0.558517 -0.115843
C21   C     C_R   0.179320 0.130056 0.540121 -0.141792
C22   C     C_R   0.907694 0.784824 0.490107 -0.158498
C23   C     C_R   0.874215 0.094795 0.490667 -0.155028
C24   C     C_R   0.234458 0.101495 0.483816 -0.126349
C25   C     C_R   0.540346 0.428169 0.361706 0.538566
C26   C     C_R   0.546611 0.063232 0.354178 0.539965
C27   C     C_R   0.933230 0.482029 0.355166 0.550587
C28   C     C_R   0.423878 0.540090 0.638320 0.545582
C29   C     C_R   0.062941 0.543451 0.646348 0.531730
C30   C     C_R   0.478756 0.933602 0.645489 0.536102
C31   C     C_R   0.483847 0.970761 0.928065 0.012220
C32   C     C_R   0.027925 0.512075 0.927871 0.013241
C33   C     C_R   0.485587 0.518308 0.928778 0.014517
C34   C     C_R   0.968416 0.482811 0.071481 0.013132
C35   C     C_R   0.511692 0.027147 0.072159 0.011116
C36   C     C_R   0.517771 0.486302 0.071551 0.015144
C37   C     C_R   0.375901 0.972640 0.965049 0.019996
C38   C     C_R   0.026806 0.402945 0.965743 0.022026
C39   C     C_R   0.597854 0.626041 0.966061 0.021275
C40   C     C_R   0.972058 0.375220 0.034437 0.021222
C41   C     C_R   0.403203 0.026623 0.034130 0.019407
C42   C     C_R   0.625889 0.597841 0.034512 0.022041
C43   C     C_R   0.599649 0.996942 0.036684 0.213107
C44   C     C_R   0.997745 0.601098 0.035580 0.209224
C45   C     C_R   0.397568 0.398628 0.036282 0.204753
C46   C     C_R   0.996447 0.599702 0.963150 0.213027
C47   C     C_R   0.601549 0.000045 0.964387 0.210200
C48   C     C_R   0.396791 0.398588 0.963870 0.203993
C49   C     C_R   0.245286 0.931235 0.936152 0.005672
C50   C     C_R   0.071227 0.316116 0.938090 -0.000722
C51   C     C_R   0.687760 0.757271 0.937714 0.003223
C52   C     C_R   0.931960 0.244779 0.063247 0.007131
C53   C     C_R   0.316628 0.070889 0.061880 0.000258
C54   C     C_R   0.757583 0.686875 0.062933 0.000336
C55   C     C_R   0.157869 0.964395 0.967956 -0.027970
C56   C     C_R   0.041205 0.196033 0.970621 -0.034149
C57   C     C_R   0.810231 0.845763 0.969538 -0.025819
C58   C     C_R   0.966912 0.157823 0.031939 -0.024495
C59   C     C_R   0.196485 0.039769 0.029367 -0.034173
C60   C     C_R   0.847318 0.808305 0.030864 -0.029114
C61   C     C_R   0.495008 0.986139 0.573407 0.003722
C62   C     C_R   0.004420 0.505801 0.575286 -0.004647
C63   C     C_R   0.444384 0.510455 0.565708 0.001741
C64   C     C_R   0.983153 0.510620 0.428450 0.001619
C65   C     C_R   0.522505 0.005848 0.426421 -0.002732
C66   C     C_R   0.515541 0.455272 0.434004 0.004708
C67   C     C_R   0.625874 0.050143 0.543250 0.020257
C68   C     C_R   0.945043 0.576779 0.544704 0.024214
C69   C     C_R   0.365017 0.374256 0.535947 0.044498
C70   C     C_R   0.959160 0.600571 0.472014 0.030144
C71   C     C_R   0.636883 0.035651 0.470819 0.038179
C72   C     C_R   0.413208 0.345294 0.474625 0.021992
Cr1   Cr    Cr6+3 0.768550 0.541320 0.250660 1.039797
Cr2   Cr    Cr6+3 0.458680 0.227230 0.250660 1.038012
Cr3   Cr    Cr6+3 0.772770 0.231450 0.250660 1.043697
Cr4   Cr    Cr6+3 0.541320 0.768550 0.749340 1.039110
Cr5   Cr    Cr6+3 0.227230 0.458680 0.749340 1.026885
Cr6   Cr    Cr6+3 0.231450 0.772770 0.749340 1.044111
H1    H     H_    0.202369 0.874334 0.889521 0.197804
H2    H     H_    0.130238 0.333154 0.892446 0.192857
H3    H     H_    0.671374 0.799820 0.891853 0.197142
H4    H     H_    0.873806 0.201654 0.109213 0.197633
H5    H     H_    0.333415 0.130119 0.107711 0.193134
H6    H     H_    0.799590 0.670897 0.109119 0.195788
H7    H     H_    0.063582 0.935695 0.941920 0.134295
H8    H     H_    0.073192 0.132655 0.945645 0.132045
H9    H     H_    0.876397 0.940826 0.944005 0.136511
H10   H     H_    0.939395 0.063757 0.058010 0.134466
H11   H     H_    0.133520 0.071746 0.054487 0.130034
H12   H     H_    0.942956 0.873857 0.056310 0.137303
H13   H     H_    0.303267 0.907200 0.423158 0.120856
H14   H     H_    0.054773 0.366390 0.428242 0.142651
H15   H     H_    0.651676 0.676000 0.428115 0.145284
H16   H     H_    0.104567 0.391703 0.552963 0.123017
H17   H     H_    0.276108 0.874569 0.550744 0.155306
H18   H     H_    0.599769 0.722031 0.545240 0.137634
H19   H     H_    0.743568 0.141723 0.638875 0.147055
H20   H     H_    0.859249 0.608974 0.639881 0.151317
H21   H     H_    0.179920 0.273846 0.604478 0.144924
H22   H     H_    0.990196 0.761522 0.396650 0.149669
H23   H     H_    0.769860 0.009926 0.396292 0.151478
H24   H     H_    0.396068 0.176435 0.413853 0.168717
H25   H     H_    0.953848 0.166414 0.594203 0.103698
H26   H     H_    0.831263 0.793878 0.591268 0.128125
H27   H     H_    0.086839 0.048938 0.564025 0.117882
H28   H     H_    0.901060 0.870264 0.469504 0.106215
H29   H     H_    0.968061 0.106236 0.470273 0.116085
H30   H     H_    0.183920 0.998126 0.463099 0.111594
O1    O     O_R   0.910960 0.572410 0.171010 -0.477100
O2    O     O_R   0.427590 0.338550 0.171010 -0.472186
O3    O     O_R   0.661450 0.089040 0.171010 -0.473257
O4    O     O_R   0.572410 0.910960 0.828990 -0.476526
O5    O     O_R   0.338550 0.427590 0.828990 -0.471564
O6    O     O_R   0.089040 0.661450 0.828990 -0.476800
O7    O     O_R   0.639750 0.528530 0.175600 -0.533689
O8    O     O_R   0.471470 0.111220 0.175600 -0.536879
O9    O     O_R   0.888780 0.360250 0.175600 -0.535165
O10   O     O_R   0.528530 0.639750 0.824400 -0.531952
O11   O     O_R   0.111220 0.471470 0.824400 -0.539417
O12   O     O_R   0.360250 0.888780 0.824400 -0.535646
O13   O     O_R   0.909330 0.572400 0.331540 -0.536333
O14   O     O_R   0.427600 0.336930 0.331540 -0.511034
O15   O     O_R   0.663070 0.090670 0.331540 -0.522534
O16   O     O_R   0.572400 0.909330 0.668460 -0.529689
O17   O     O_R   0.336930 0.427600 0.668460 -0.523948
O18   O     O_R   0.090670 0.663070 0.668460 -0.517729
O19   O     O_R   0.638240 0.528520 0.324410 -0.493610
O20   O     O_R   0.471480 0.109720 0.324410 -0.530834
O21   O     O_R   0.890280 0.361760 0.324410 -0.491786
O22   O     O_R   0.528520 0.638240 0.675590 -0.490078
O23   O     O_R   0.109720 0.471480 0.675590 -0.527072
O24   O     O_R   0.361760 0.890280 0.675590 -0.494966
O25   O     O_3   0.666667 0.333333 0.250630 -0.312273
O26   O     O_3   0.333333 0.666667 0.749370 -0.312159
Cl1   Cl    Cl    0.659655 0.902977 0.081615 -0.640580
Cl2   Cl    Cl    0.099203 0.755713 0.080487 -0.644637
Cl3   Cl    Cl    0.248626 0.358922 0.081776 -0.636738
Cl4   Cl    Cl    0.898372 0.653767 0.917384 -0.642397
Cl5   Cl    Cl    0.756404 0.096461 0.920287 -0.648378
Cl6   Cl    Cl    0.354731 0.247539 0.918465 -0.641088

loop_
_geom_bond_atom_site_label_1
_geom_bond_atom_site_label_2
_ccdc_geom_bond_type
C2    C35   S    
C44   Cl2   S    
C39   C51   A    
C55   C59   A    
C5    O6    A    
C19   C23   A    
Cr3   O9    S    
C54   H6    S    
C53   C59   A    
Cr6   O6    S    
C7    C11   A    
C17   C23   A    
C5    O11   A    
C34   C40   A    
Cr5   O23   S    
C10   H16   S    
Cr2   O25   S    
C18   H24   S    
C17   H23   S    
C9    C66   A    
Cr6   O24   S    
C3    O9    A    
C4    C33   S    
C19   H25   S    
Cr2   O20   S    
C63   C69   A    
C65   C71   A    
C51   C57   A    
C64   C70   A    
C35   C43   A    
C25   O14   A    
C51   H3    S    
C28   O22   A    
C46   Cl4   S    
C5    C32   S    
C6    C31   S    
C23   H29   S    
C31   C47   A    
C29   O18   A    
C52   H4    S    
C37   C41   A    
C4    O10   A    
C10   C62   A    
C32   C46   A    
Cr5   O5    S    
C6    O12   A    
C44   C46   A    
Cr5   O26   S    
C14   H20   S    
C39   C42   A    
C31   C37   A    
C18   C72   A    
C24   H30   S    
C15   C69   A    
C66   C72   A    
C2    O3    A    
C38   C50   A    
C48   Cl6   S    
Cr4   O16   S    
C14   C20   A    
C4    O5    A    
C16   C70   A    
C18   C24   A    
C15   H21   S    
C12   C63   A    
Cr4   O26   S    
C16   H22   S    
C13   C19   A    
C54   C60   A    
C3    C34   S    
C11   C61   A    
C40   C52   A    
Cr4   O10   S    
C57   H9    S    
C50   H2    S    
C59   H11   S    
C55   H7    S    
C69   C72   A    
Cr6   O12   S    
C1    O2    A    
C7    C65   A    
C37   C49   A    
C61   C67   A    
C56   H8    S    
C15   C21   A    
Cr4   O4    S    
Cr2   O8    S    
C45   Cl3   S    
C34   C44   A    
C36   C45   A    
C33   C39   A    
C26   O20   A    
C43   Cl1   S    
Cr6   O26   S    
C41   C53   A    
C52   C58   A    
C8    C64   A    
C8    H14   S    
C22   H28   S    
Cr2   O14   S    
C30   O16   A    
C17   C71   A    
C32   C38   A    
C27   O21   A    
Cr3   O15   S    
C21   C24   A    
C26   O15   A    
Cr6   O18   S    
C9    H15   S    
C7    H13   S    
Cr5   O17   S    
C28   O17   A    
C13   C67   A    
C45   C48   A    
C11   H17   S    
C33   C48   A    
C29   C62   S    
C16   C22   A    
C26   C65   S    
C6    O4    A    
C25   C66   S    
C20   C22   A    
Cr5   O11   S    
C49   C55   A    
C58   H10   S    
C36   C42   A    
Cr2   O2    S    
C2    O8    A    
Cr3   O25   S    
Cr1   O1    S    
C20   H26   S    
C60   H12   S    
Cr3   O3    S    
Cr1   O7    S    
C62   C68   A    
C53   H5    S    
C25   O19   A    
Cr1   O19   S    
C42   C54   A    
C38   C40   A    
C29   O23   A    
C3    O1    A    
C30   O24   A    
C56   C58   A    
C67   C71   A    
C13   H19   S    
C35   C41   A    
C9    C12   A    
C50   C56   A    
C27   C64   S    
C28   C63   S    
C49   H1    S    
C57   C60   A    
C8    C10   A    
Cr1   O25   S    
C30   C61   S    
C47   Cl5   S    
C27   O13   A    
C68   C70   A    
C14   C68   A    
C12   H18   S    
C1    O7    A    
C43   C47   A    
C21   H27   S    
Cr4   O22   S    
Cr3   O21   S    
C1    C36   S    
Cr1   O13   S    
