data_mof_unit_26688.cif
_audit_creation_date              2012-12-11T15:39:25-0500
_audit_creation_method            fapswitch 2.2
_symmetry_space_group_name_H-M    P1
_symmetry_Int_Tables_number       1
_space_group_crystal_system       triclinic
_cell_length_a                    6.957563
_cell_length_b                    15.163871
_cell_length_c                    16.560864
_cell_angle_alpha                 95.51542
_cell_angle_beta                  90.559069
_cell_angle_gamma                 90.490726
_cell_volume                      1738.97948396

loop_
_atom_site_label
_atom_site_type_symbol
_atom_type_description
_atom_site_fract_x
_atom_site_fract_y
_atom_site_fract_z
_atom_type_partial_charge
O1    O     O_R   0.633330 0.174290 0.828230 -0.535724
O2    O     O_R   0.366670 0.825710 0.171770 -0.535723
O3    O     O_R   0.301450 0.154140 0.662030 -0.518694
O4    O     O_R   0.698550 0.845860 0.337970 -0.518695
O5    O     O_R   0.133140 0.325730 0.671770 -0.535056
O6    O     O_R   0.866860 0.674270 0.328230 -0.535057
C1    C     C_R   0.469814 0.130399 0.634178 0.748361
C2    C     C_R   0.530186 0.869601 0.365822 0.748357
O7    O     O_R   0.303490 0.163670 0.827000 -0.533640
O8    O     O_R   0.696510 0.836330 0.173000 -0.533639
O9    O     O_R   0.135190 0.335320 0.837920 -0.543991
O10   O     O_R   0.864810 0.664680 0.162080 -0.543986
C3    C     C_R   0.472627 0.142844 0.853630 0.718518
C4    C     C_R   0.527373 0.857157 0.146371 0.718523
O11   O     O_R   0.631280 0.164690 0.662080 -0.519449
O12   O     O_R   0.368720 0.835310 0.337920 -0.519450
O13   O     O_3   0.467420 0.306310 0.753380 -0.381215
O14   O     O_3   0.532580 0.693690 0.246620 -0.381213
V1    V     V_3+5 0.191790 0.239560 0.749370 1.492887
V2    V     V_3+5 0.808210 0.760440 0.250630 1.492897
O15   O     O_R   0.805590 0.345870 0.837970 -0.548198
O16   O     O_R   0.194410 0.654130 0.162030 -0.548196
C5    C     C_R   0.975640 0.367476 0.867264 0.675772
C6    C     C_R   0.024360 0.632523 0.132737 0.675773
O17   O     O_R   0.803560 0.336340 0.672990 -0.537079
O18   O     O_R   0.196440 0.663660 0.327010 -0.537079
C7    C     C_R   0.972285 0.356657 0.645946 0.731783
C8    C     C_R   0.027715 0.643343 0.354054 0.731781
V3    V     V_3+5 0.692030 0.260450 0.750630 1.459799
V4    V     V_3+5 0.307970 0.739550 0.249370 1.459808
O19   O     O_3   0.966260 0.193700 0.746610 -0.339542
O20   O     O_3   0.033740 0.806300 0.253390 -0.339542
C9    C     C_1   0.982574 0.418679 0.583525 -0.197749
C10   C     C_1   0.017426 0.581321 0.416475 -0.197749
C11   C     C_1   0.993280 0.469932 0.531001 0.008223
C12   C     C_1   0.006720 0.530068 0.468999 0.008222
C13   C     C_3   0.925069 0.574332 0.977712 0.057226
C14   C     C_3   0.074931 0.425665 0.022288 0.057224
C15   C     C_3   0.098841 0.526159 0.936638 -0.192142
C16   C     C_3   0.901158 0.473839 0.063363 -0.192135
H1    H     H_    0.182160 0.546329 0.884533 0.110436
H2    H     H_    0.817832 0.453669 0.115466 0.110434
C17   C     C_3   0.989709 0.437258 0.938018 -0.044917
C18   C     C_3   0.010291 0.562739 0.061983 -0.044917
C19   C     C_3   0.815096 0.485355 0.978040 -0.161441
C20   C     C_3   0.184903 0.514643 0.021960 -0.161443
H3    H     H_    0.662625 0.474192 0.959324 0.108555
H4    H     H_    0.337375 0.525805 0.040675 0.108557
C21   C     C_3   0.668772 0.012709 0.537317 0.370530
C22   C     C_3   0.331228 0.987291 0.462683 0.370529
C23   C     C_3   0.560340 0.923117 0.524934 -0.236921
C24   C     C_3   0.439660 0.076883 0.475065 -0.236924
H5    H     H_    0.612728 0.859864 0.545304 0.146011
H6    H     H_    0.387271 0.140136 0.454696 0.146009
C25   C     C_3   0.518550 0.940389 0.436190 -0.108396
C26   C     C_3   0.481450 0.059611 0.563810 -0.108397
C27   C     C_3   0.628554 0.029572 0.448053 -0.163982
C28   C     C_3   0.371446 0.970428 0.551948 -0.163980
H7    H     H_    0.729109 0.056340 0.404851 0.178048
H8    H     H_    0.270891 0.943660 0.595149 0.178050
C29   C     C_1   0.483198 0.080513 0.915788 -0.180252
C30   C     C_1   0.516800 0.919491 0.084216 -0.180247
C31   C     C_1   0.493605 0.029631 0.968633 -0.004987
C32   C     C_1   0.506393 0.970375 0.031372 -0.004984
C33   C     C_R   0.830457 0.655717 0.951263 0.077988
C34   C     C_R   0.921705 0.707657 0.896887 -0.145836
C35   C     C_R   0.825460 0.778859 0.867620 -0.107423
C36   C     C_R   0.637357 0.798099 0.891787 -0.082212
C37   C     C_R   0.546578 0.747341 0.946610 -0.136735
C38   C     C_R   0.643641 0.677226 0.977188 -0.122909
H9    H     H_    0.066279 0.693017 0.876565 0.103199
H10   H     H_    0.895964 0.818519 0.825481 0.121315
H11   H     H_    0.562157 0.852446 0.868180 0.115804
H12   H     H_    0.400976 0.762338 0.965481 0.108356
H13   H     H_    0.571740 0.638568 0.019676 0.101060
C39   C     C_R   0.169564 0.344287 0.048740 0.077978
C40   C     C_R   0.356363 0.322771 0.022796 -0.122916
C41   C     C_R   0.453467 0.252676 0.053389 -0.136733
C42   C     C_R   0.362741 0.201939 0.108242 -0.082213
C43   C     C_R   0.174649 0.221182 0.132426 -0.107424
C44   C     C_R   0.078368 0.292367 0.103147 -0.145827
H14   H     H_    0.428223 0.361413 0.980283 0.101076
H15   H     H_    0.599063 0.237678 0.034507 0.108360
H16   H     H_    0.437977 0.147607 0.131860 0.115795
H17   H     H_    0.104183 0.181538 0.174588 0.121315
H18   H     H_    0.933809 0.307014 0.123487 0.103200
Br1   Br    Br    0.908497 0.025841 0.597233 -0.555399
Br2   Br    Br    0.091503 0.974158 0.402767 -0.555401

loop_
_geom_bond_atom_site_label_1
_geom_bond_atom_site_label_2
_ccdc_geom_bond_type
C14   C16   S    
O13   V3    S    
C21   Br1   S    
C11   C12   S    
O4    C2    A    
V1    O19   S    
C21   C27   S    
C15   H1    S    
C14   C39   S    
C40   C41   A    
C7    C9    S    
O9    V1    S    
O3    C1    A    
C42   H16   S    
C27   H7    S    
O12   V4    S    
C33   C38   A    
C4    C30   S    
C5    C17   S    
C35   H10   S    
C29   C31   T    
O7    C3    A    
C30   C32   T    
C9    C11   T    
O5    C7    A    
C41   H15   S    
O7    V1    S    
O6    C8    A    
O8    V2    S    
C36   C37   A    
C21   C23   S    
C13   C33   S    
C22   C24   S    
O3    V1    S    
O14   V4    S    
C23   C25   S    
C44   H18   S    
C22   Br2   S    
C24   H6    S    
C16   H2    S    
C34   C35   A    
C8    C10   S    
C2    O12   A    
C1    C26   S    
C2    C25   S    
C18   C20   S    
O11   V3    S    
C19   H3    S    
O17   V3    S    
C16   C19   S    
C20   H4    S    
C35   C36   A    
C22   C28   S    
C39   C40   A    
O8    C4    A    
C41   C42   A    
C15   C17   S    
C1    O11   A    
C36   H11   S    
O15   V3    S    
C31   C32   S    
C23   H5    S    
C43   H17   S    
C34   H9    S    
O10   V2    S    
O1    V3    S    
C37   H12   S    
C23   C28   S    
C17   C19   S    
C15   C20   S    
O18   V4    S    
C25   C27   S    
C6    C18   S    
O16   C6    A    
O1    C3    A    
C13   C19   S    
V2    O20   S    
O16   V4    S    
C43   C44   A    
C39   C44   A    
O5    V1    S    
O17   C7    A    
C21   C26   S    
O6    V2    S    
O10   C6    A    
O18   C8    A    
C22   C25   S    
O2    V4    S    
C13   C18   S    
O15   C5    A    
C14   C17   S    
V3    O19   S    
V4    O20   S    
C40   H14   S    
O9    C5    A    
O13   V1    S    
C10   C12   T    
C26   C28   S    
O14   V2    S    
C37   C38   A    
O2    C4    A    
C14   C20   S    
C24   C27   S    
C42   C43   A    
O4    V2    S    
C16   C18   S    
C3    C29   S    
C13   C15   S    
C33   C34   A    
C38   H13   S    
C28   H8    S    
C24   C26   S    
