data_mof_unit_29077.cif
_audit_creation_date              2012-12-10T20:48:19-0500
_audit_creation_method            fapswitch 2.2
_symmetry_space_group_name_H-M    P1
_symmetry_Int_Tables_number       1
_space_group_crystal_system       triclinic
_cell_length_a                    10.815841
_cell_length_b                    8.899778
_cell_length_c                    8.171735
_cell_angle_alpha                 90.004009
_cell_angle_beta                  89.002377
_cell_angle_gamma                 89.991388
_cell_volume                      786.480393113

loop_
_atom_site_label
_atom_site_type_symbol
_atom_type_description
_atom_site_fract_x
_atom_site_fract_y
_atom_site_fract_z
_atom_type_partial_charge
C1    C     C_R   0.499968 0.218313 0.499997 0.923616
C2    C     C_1   0.499996 0.934650 0.500007 -0.213611
C3    C     C_3   0.071526 0.658263 0.518374 0.162618
C4    C     C_3   0.925247 0.657209 0.492583 0.173498
C5    C     C_3   0.120965 0.486813 0.500432 -0.064593
C6    C     C_3   0.878188 0.483329 0.496490 -0.053275
C7    C     C_R   0.257569 0.490936 0.500973 0.874097
C8    C     C_R   0.741911 0.486886 0.498371 0.880733
C9    C     C_R   0.500006 0.781644 0.500003 0.910528
C10   C     C_1   0.499982 0.065307 0.499997 -0.203317
C11   C     C_3   0.068470 0.376349 0.646183 0.117230
C12   C     C_3   0.076361 0.422567 0.324883 0.213703
C13   C     C_3   0.922869 0.407734 0.665610 0.202425
C14   C     C_3   0.932107 0.385086 0.341279 0.124425
H1    H     H_    0.214667 0.343430 0.808428 0.219958
H2    H     H_    0.187588 0.203108 0.582993 0.167082
H3    H     H_    0.131130 0.189181 0.325411 0.200148
H4    H     H_    0.137692 0.269841 0.145800 0.158667
H5    H     H_    0.874637 0.172591 0.643083 0.202784
H6    H     H_    0.868730 0.240729 0.830049 0.158328
H7    H     H_    0.935305 0.160431 0.267049 0.175343
H8    H     H_    0.816324 0.204747 0.386827 0.169048
H9    H     H_    0.198913 0.748294 0.682271 0.188660
H10   H     H_    0.085464 0.657404 0.777832 0.232221
H11   H     H_    0.094799 0.868604 0.412376 0.207566
H12   H     H_    0.079775 0.331297 0.889470 0.135989
H13   H     H_    0.223989 0.766851 0.408962 0.173508
H14   H     H_    0.771683 0.758832 0.607985 0.185688
H15   H     H_    0.900783 0.858688 0.617042 0.198866
H16   H     H_    0.914307 0.676308 0.232179 0.249042
H17   H     H_    0.795948 0.752183 0.334255 0.186721
H18   H     H_    0.185357 0.574320 0.178769 0.240342
H19   H     H_    0.076619 0.498433 0.083335 0.167357
H20   H     H_    0.809122 0.492894 0.858474 0.231524
H21   H     H_    0.953247 0.518865 0.895146 0.174321
H22   H     H_    0.786175 0.364205 0.176260 0.214409
H23   H     H_    0.918864 0.357814 0.093437 0.137709
H24   H     H_    0.070338 0.146291 0.698632 0.176250
N1    N     N_1   0.500000 0.500030 0.073640 -0.048088
N2    N     N_3   0.911324 0.223506 0.370901 -0.470123
N3    N     N_3   0.104312 0.724818 0.678290 -0.466867
N4    N     N_3   0.128399 0.759369 0.394396 -0.440729
N5    N     N_3   0.866867 0.748651 0.624418 -0.416372
N6    N     N_3   0.891270 0.733600 0.338145 -0.467608
N7    N     N_1   0.500000 0.500030 0.926360 -0.048508
N8    N     N_3   0.128963 0.397355 0.805260 -0.480260
N9    N     N_3   0.094634 0.539928 0.197423 -0.442305
N10   N     N_3   0.893479 0.516114 0.799575 -0.425734
N11   N     N_3   0.871499 0.418300 0.184036 -0.465680
N12   N     N_3   0.092331 0.218208 0.601099 -0.468716
N13   N     N_3   0.151463 0.290983 0.269655 -0.444294
N14   N     N_3   0.852273 0.269041 0.708126 -0.460909
O1    O     O_R   0.500000 0.285340 0.636850 -0.618935
O2    O     O_R   0.500000 0.285340 0.363150 -0.617414
O3    O     O_R   0.314790 0.499970 0.636880 -0.635498
O4    O     O_R   0.314790 0.499970 0.363120 -0.619861
O5    O     O_R   0.685210 0.499970 0.636880 -0.610807
O6    O     O_R   0.685210 0.499970 0.363120 -0.641263
O7    O     O_R   0.500000 0.714650 0.636900 -0.615306
O8    O     O_R   0.500000 0.714650 0.363100 -0.615791
Zn1   Zn    Zn3+2 0.500000 0.499990 0.682780 0.961850
Zn2   Zn    Zn3+2 0.500000 0.499990 0.317220 0.959611

loop_
_geom_bond_atom_site_label_1
_geom_bond_atom_site_label_2
_ccdc_geom_bond_type
H11   N4    S    
O6    Zn2   S    
C13   N10   S    
C1    O2    A    
H22   N11   S    
C3    N4    S    
O5    Zn1   S    
H24   N12   S    
C4    N5    S    
C8    O5    A    
C6    C14   S    
C13   N14   S    
H23   N11   S    
H14   N5    S    
H9    N3    S    
C7    O3    A    
N1    N7    T    
C9    O8    A    
H8    N2    S    
H3    N13   S    
H6    N14   S    
C11   N12   S    
H15   N5    S    
C6    C13   S    
H10   N3    S    
C11   C13   S    
H13   N4    S    
H16   N6    S    
H7    N2    S    
C4    N6    S    
C7    O4    A    
C12   N9    S    
H21   N10   S    
O3    Zn1   S    
N7    Zn1   S    
C12   C14   S    
H4    N13   S    
C5    C11   S    
H19   N9    S    
H18   N9    S    
O4    Zn2   S    
O7    Zn1   S    
C14   N11   S    
H20   N10   S    
H17   N6    S    
H12   N8    S    
C14   N2    S    
C3    C4    S    
C2    C10   T    
C3    C5    S    
C12   N13   S    
C5    C12   S    
O8    Zn2   S    
C4    C6    S    
C5    C7    S    
N1    Zn2   S    
C1    O1    A    
C3    N3    S    
C11   N8    S    
C6    C8    S    
O2    Zn2   S    
H1    N8    S    
C8    O6    A    
C2    C9    S    
O1    Zn1   S    
H5    N14   S    
C1    C10   S    
H2    N12   S    
C9    O7    A    
