data_mof_unit_29231.cif
_audit_creation_date              2012-12-11T15:54:06-0500
_audit_creation_method            fapswitch 2.2
_symmetry_space_group_name_H-M    P1
_symmetry_Int_Tables_number       1
_space_group_crystal_system       triclinic
_cell_length_a                    10.658624
_cell_length_b                    10.695657
_cell_length_c                    17.06664
_cell_angle_alpha                 80.471014
_cell_angle_beta                  99.616287
_cell_angle_gamma                 118.377478
_cell_volume                      1679.42253906

loop_
_atom_site_label
_atom_site_type_symbol
_atom_type_description
_atom_site_fract_x
_atom_site_fract_y
_atom_site_fract_z
_atom_type_partial_charge
C1    C     C_R   0.384304 0.284014 0.632038 0.540089
C2    C     C_1   0.332924 0.186828 0.781496 -0.035010
C3    C     C_1   0.335935 0.663610 0.277668 -0.044333
C4    C     C_R   0.379720 0.646961 0.592427 0.536986
C5    C     C_1   0.323517 0.673199 0.206956 -0.042758
C6    C     C_R   0.867337 0.684865 0.167386 0.024087
C7    C     C_R   0.909380 0.598166 0.223916 0.036914
C8    C     C_R   0.899811 0.591522 0.303428 0.016997
C9    C     C_R   0.832031 0.781495 0.275467 -0.160675
C10   C     C_R   0.841877 0.787113 0.194249 -0.161822
C11   C     C_3   0.869508 0.443895 0.226904 -0.267499
C12   C     C_R   0.488670 0.727718 0.725217 -0.156477
C13   C     C_3   0.858598 0.434862 0.315158 -0.268883
C14   C     C_R   0.846490 0.672579 0.329324 0.016581
C15   C     C_R   0.337257 0.181734 0.155669 0.017915
C16   C     C_R   0.721215 0.587835 0.633263 0.534774
C17   C     C_R   0.263994 0.245985 0.179089 0.014825
C18   C     C_R   0.269017 0.257531 0.258198 0.034071
C19   C     C_R   0.441112 0.167194 0.292667 -0.166386
C20   C     C_R   0.438087 0.156536 0.211929 -0.163965
C21   C     C_3   0.111124 0.220373 0.163673 -0.271280
C22   C     C_3   0.118362 0.233947 0.251488 -0.267328
C23   C     C_R   0.477274 0.728767 0.804978 -0.154872
C24   C     C_R   0.345123 0.205016 0.316666 0.023708
C25   C     C_R   0.884968 0.699061 0.857178 0.544073
C26   C     C_R   0.314924 0.705836 0.898830 0.547202
C27   C     C_R   0.286183 0.118426 0.858284 0.552024
C28   C     C_R   0.353803 0.231673 0.397643 0.558485
C29   C     C_R   0.892659 0.693758 0.085955 0.545782
C30   C     C_R   0.313025 0.700935 0.123853 0.548839
C31   C     C_R   0.287659 0.111071 0.083648 0.550452
C32   C     C_R   0.365454 0.653936 0.360713 0.555291
C33   C     C_R   0.774763 0.623918 0.401038 0.559803
C34   C     C_3   0.075667 0.529913 0.766940 -0.235171
C35   C     C_R   0.342050 0.654642 0.833602 0.016099
C36   C     C_R   0.227858 0.555664 0.786917 0.011611
C37   C     C_R   0.240818 0.551532 0.708530 0.008782
C38   C     C_3   0.090245 0.523049 0.681180 -0.255400
C39   C     C_R   0.365681 0.649387 0.674536 0.016673
C40   C     C_1   0.773329 0.630458 0.712229 -0.053983
C41   C     C_1   0.819049 0.669445 0.777946 -0.058289
C42   C     C_1   0.364584 0.233598 0.714446 -0.039617
Cr1   Cr    Cr6+3 0.608440 0.389080 0.519680 1.014900
Cr2   Cr    Cr6+3 0.288640 0.400090 0.490760 1.010548
Cr3   Cr    Cr6+3 0.602940 0.710800 0.489510 1.015931
Cr4   Cr    Cr6+3 0.052530 0.947560 0.964210 1.019411
Cr5   Cr    Cr6+3 0.059970 0.626800 0.992920 1.007698
Cr6   Cr    Cr6+3 0.373320 0.938440 0.995370 1.019986
H1    H     H_    0.592207 0.793188 0.702740 0.149409
H2    H     H_    0.047396 0.132819 0.285351 0.142621
H3    H     H_    0.570143 0.800203 0.840963 0.142585
H4    H     H_    0.061991 0.623848 0.774172 0.163566
H5    H     H_    0.023919 0.414670 0.660887 0.155904
H6    H     H_    0.083042 0.611454 0.639316 0.154091
H7    H     H_    0.797771 0.851590 0.294032 0.139155
H8    H     H_    0.822662 0.865762 0.152557 0.126668
H9    H     H_    0.959302 0.428027 0.214046 0.142562
H10   H     H_    0.998588 0.426271 0.795825 0.152256
H11   H     H_    0.764751 0.382702 0.192269 0.142455
H12   H     H_    0.747250 0.365402 0.330648 0.164986
H13   H     H_    0.941918 0.412278 0.353731 0.141105
H14   H     H_    0.512599 0.139416 0.336176 0.129449
H15   H     H_    0.502563 0.113353 0.195484 0.142050
H16   H     H_    0.033553 0.111286 0.147655 0.161378
H17   H     H_    0.099831 0.308718 0.123928 0.143660
H18   H     H_    0.113609 0.330691 0.262885 0.142949
O1    O     O_R   0.754020 0.497590 0.609930 -0.512573
O2    O     O_R   0.406180 0.826930 0.920660 -0.517293
O3    O     O_R   0.358620 0.062870 0.901950 -0.494123
O4    O     O_R   0.481420 0.271390 0.600630 -0.494479
O5    O     O_R   0.163910 0.085460 0.050210 -0.524049
O6    O     O_R   0.935200 0.815170 0.045770 -0.507877
O7    O     O_R   0.916120 0.596690 0.069430 -0.519404
O8    O     O_R   0.192310 0.631200 0.086170 -0.508431
O9    O     O_R   0.406770 0.819480 0.096420 -0.515684
O10   O     O_R   0.359170 0.055960 0.064880 -0.509251
O11   O     O_3   0.161940 0.837600 0.984160 -0.247371
O12   O     O_R   0.295080 0.533620 0.397890 -0.504189
O13   O     O_R   0.263810 0.254550 0.589590 -0.496408
O14   O     O_R   0.300820 0.531200 0.560890 -0.513106
O15   O     O_R   0.491480 0.744020 0.564270 -0.523474
O16   O     O_R   0.726290 0.693800 0.583010 -0.493194
O17   O     O_R   0.747830 0.500190 0.434090 -0.520862
O18   O     O_R   0.475680 0.273800 0.437630 -0.500314
O19   O     O_R   0.257620 0.257160 0.413750 -0.513975
O20   O     O_R   0.485280 0.746620 0.388440 -0.509920
O21   O     O_R   0.720550 0.696220 0.420010 -0.500169
O22   O     O_3   0.500010 0.499990 0.499980 -0.286309
O23   O     O_R   0.163320 0.092900 0.874450 -0.505043
O24   O     O_R   0.934650 0.822080 0.882840 -0.491129
O25   O     O_R   0.915520 0.604140 0.893670 -0.520328
O26   O     O_R   0.191760 0.638110 0.923230 -0.504685

loop_
_geom_bond_atom_site_label_1
_geom_bond_atom_site_label_2
_ccdc_geom_bond_type
C8    C13   S    
C28   O18   A    
Cr1   O17   S    
Cr5   O26   S    
Cr6   O10   S    
C19   C20   A    
Cr6   O3    S    
C14   C33   S    
C12   H1    S    
C7    C8    A    
Cr4   O23   S    
C7    C11   S    
C12   C23   A    
C25   O24   A    
C18   C24   A    
Cr1   O22   S    
C36   C37   A    
Cr3   O21   S    
C4    O14   A    
C30   O8    A    
C29   O7    A    
C19   H14   S    
C26   O26   A    
C22   H18   S    
C21   H16   S    
C4    O15   A    
Cr3   O16   S    
C27   O23   A    
C2    C27   S    
C9    H7    S    
C10   H8    S    
C9    C10   A    
Cr4   O6    S    
C27   O3    A    
C22   H2    S    
C29   O6    A    
C31   O5    A    
C20   H15   S    
C34   C38   S    
C21   C22   S    
Cr1   O18   S    
Cr6   O9    S    
C11   H11   S    
C15   C20   A    
C25   O25   A    
Cr2   O14   S    
Cr3   O22   S    
Cr5   O7    S    
C25   C41   S    
C13   H12   S    
C17   C21   S    
C35   C36   A    
Cr6   O11   S    
C9    C14   A    
C37   C38   S    
C1    C42   S    
C23   H3    S    
C38   H6    S    
C4    C39   S    
C32   O20   A    
C16   O16   A    
C17   C18   A    
C16   O1    A    
Cr6   O2    S    
C33   O17   A    
Cr4   O5    S    
C16   C40   S    
C40   C41   T    
Cr1   O4    S    
C23   C35   A    
C1    O13   A    
Cr5   O11   S    
Cr2   O19   S    
C5    C30   S    
C15   C17   A    
C8    C14   A    
C21   H17   S    
C18   C22   S    
Cr5   O25   S    
Cr2   O13   S    
Cr3   O15   S    
C24   C28   S    
Cr5   O8    S    
C3    C5    T    
C6    C10   A    
Cr4   O11   S    
C15   C31   S    
C6    C7    A    
Cr4   O24   S    
C34   H4    S    
C1    O4    A    
C26   O2    A    
C12   C39   A    
Cr2   O12   S    
C19   C24   A    
C33   O21   A    
C37   C39   A    
C11   H9    S    
C30   O9    A    
C11   C13   S    
C31   O10   A    
C38   H5    S    
C2    C42   T    
Cr3   O20   S    
C34   C36   S    
C3    C32   S    
C32   O12   A    
C26   C35   S    
C6    C29   S    
C13   H13   S    
Cr1   O1    S    
C28   O19   A    
C34   H10   S    
Cr2   O22   S    
