data_mof_unit_41943.cif
_audit_creation_date              2012-12-10T18:05:43-0500
_audit_creation_method            fapswitch 2.2
_symmetry_space_group_name_H-M    P1
_symmetry_Int_Tables_number       1
_space_group_crystal_system       triclinic
_cell_length_a                    10.965204
_cell_length_b                    10.792343
_cell_length_c                    9.671539
_cell_angle_alpha                 91.492209
_cell_angle_beta                  90.382914
_cell_angle_gamma                 92.258486
_cell_volume                      1143.2213236

loop_
_atom_site_label
_atom_site_type_symbol
_atom_type_description
_atom_site_fract_x
_atom_site_fract_y
_atom_site_fract_z
_atom_type_partial_charge
C1    C     C_R   0.499370 0.262557 0.498877 0.808038
C2    C     C_R   0.500630 0.737443 0.501123 0.808039
C3    C     C_R   0.871495 0.493265 0.503947 -0.093935
C4    C     C_R   0.128505 0.506734 0.496053 -0.093935
C5    C     C_R   0.940667 0.493265 0.627731 0.026258
C6    C     C_R   0.059333 0.506734 0.372269 0.026258
C7    C     C_R   0.536144 0.062470 0.380878 -0.131823
C8    C     C_R   0.463856 0.937530 0.619122 -0.131823
C9    C     C_R   0.537354 0.934388 0.382469 -0.150298
C10   C     C_R   0.462646 0.065611 0.617531 -0.150297
C11   C     C_R   0.501309 0.871572 0.501673 -0.031665
C12   C     C_R   0.498691 0.128427 0.498327 -0.031665
C13   C     C_R   0.451591 0.400915 0.068079 0.356755
C14   C     C_R   0.548409 0.599085 0.931921 0.356755
C15   C     C_R   0.453889 0.400985 0.921306 -0.102318
C16   C     C_R   0.546111 0.599015 0.078694 -0.102318
C17   C     C_R   0.262638 0.503321 0.498885 0.801261
C18   C     C_R   0.737362 0.496679 0.501115 0.801261
C19   C     C_R   0.221233 0.647474 0.067886 -0.152681
C20   C     C_R   0.778767 0.352526 0.932114 -0.152681
C21   C     C_R   0.171526 0.634065 0.199207 -0.028785
C22   C     C_R   0.828474 0.365935 0.800793 -0.028785
C23   C     C_R   0.112955 0.521392 0.234363 0.083473
C24   C     C_R   0.887045 0.478608 0.765637 0.083473
C25   C     C_R   0.100460 0.424263 0.135827 -0.115672
C26   C     C_R   0.899540 0.575736 0.864172 -0.115672
C27   C     C_R   0.150303 0.437429 0.004565 0.308846
C28   C     C_R   0.849697 0.562571 0.995435 0.308846
C29   C     C_R   0.211651 0.549177 0.971266 -0.220939
C30   C     C_R   0.788349 0.450823 0.028734 -0.220939
C31   C     C_R   0.932894 0.496506 0.378474 -0.185868
C32   C     C_R   0.067106 0.503493 0.621525 -0.185868
Cu1   Cu    Cu3+1 0.500000 0.500020 0.640660 0.993538
Cu2   Cu    Cu3+1 0.500000 0.499980 0.359340 0.993538
H1    H     H_    0.255335 0.559842 0.872591 0.174928
H2    H     H_    0.744664 0.440157 0.127409 0.174928
H3    H     H_    0.415013 0.322127 0.863049 0.198543
H4    H     H_    0.584986 0.677873 0.136951 0.198543
H5    H     H_    0.268765 0.733374 0.041568 0.160168
H6    H     H_    0.731235 0.266626 0.958432 0.160168
H7    H     H_    0.179674 0.710509 0.273954 0.136025
H8    H     H_    0.820326 0.289491 0.726046 0.136025
H9    H     H_    0.054019 0.337665 0.162041 0.171576
H10   H     H_    0.945981 0.662335 0.837959 0.171576
H11   H     H_    0.882221 0.493695 0.283596 0.180201
H12   H     H_    0.117779 0.506305 0.716404 0.180201
H13   H     H_    0.566033 0.109698 0.288870 0.178352
H14   H     H_    0.433967 0.890302 0.711130 0.178352
H15   H     H_    0.567431 0.884753 0.290854 0.171728
H16   H     H_    0.432569 0.115247 0.709146 0.171728
N1    N     N_R   0.500030 0.500030 0.852070 -0.213217
N2    N     N_R   0.499970 0.499970 0.147930 -0.213216
O1    O     O_R   0.499990 0.319660 0.618740 -0.600422
O2    O     O_R   0.500010 0.680340 0.381260 -0.600421
O3    O     O_R   0.499990 0.319630 0.381170 -0.544508
O4    O     O_R   0.500010 0.680370 0.618830 -0.544508
O5    O     O_R   0.319650 0.500020 0.618780 -0.586070
O6    O     O_R   0.680350 0.499980 0.381220 -0.586070
O7    O     O_R   0.319640 0.500000 0.381210 -0.552948
O8    O     O_R   0.680360 0.500000 0.618790 -0.552949
Br1   Br    Br    0.139908 0.298434 0.877076 -0.543674
Br2   Br    Br    0.860092 0.701566 0.122924 -0.543674
Br3   Br    Br    0.366920 0.259639 0.143009 -0.494869
Br4   Br    Br    0.633080 0.740361 0.856991 -0.494869

loop_
_geom_bond_atom_site_label_1
_geom_bond_atom_site_label_2
_ccdc_geom_bond_type
C17   O5    A    
Cu1   O5    S    
C8    H14   S    
C28   Br2   S    
C14   C16   A    
C15   N1    A    
Cu1   N1    S    
C13   N2    A    
C29   H1    S    
Cu2   N2    S    
C14   N1    A    
C13   Br3   S    
C30   H2    S    
C5    C32   A    
C14   Br4   S    
C25   H9    S    
Cu1   O4    S    
C28   C30   A    
Cu1   Cu2   S    
C1    O3    A    
C26   H10   S    
Cu2   O3    S    
C10   H16   S    
C2    O4    A    
C3    C31   A    
C9    C11   A    
C22   H8    S    
C1    C12   S    
C19   H5    S    
C17   O7    A    
C8    C11   A    
C21   H7    S    
C4    C17   S    
C10   C12   A    
C18   O8    A    
C19   C21   A    
C24   C26   A    
Cu2   O2    S    
Cu1   O8    S    
C6    C31   A    
C13   C15   A    
C21   C23   A    
Cu1   O1    S    
C7    C12   A    
C20   H6    S    
C22   C24   A    
C2    O2    A    
C27   C29   A    
C32   H12   S    
C2    C11   S    
C4    C32   A    
C19   C29   A    
C7    C9    A    
C23   C25   A    
C9    H15   S    
C3    C18   S    
C4    C6    A    
C31   H11   S    
C16   H4    S    
Cu2   O6    S    
C1    O1    A    
C5    C24   S    
C20   C30   A    
C27   Br1   S    
C6    C23   S    
Cu2   O7    S    
C26   C28   A    
C18   O6    A    
C8    C10   A    
C15   H3    S    
C16   N2    A    
C20   C22   A    
C3    C5    A    
C25   C27   A    
C7    H13   S    
