data_mof_unit_44890.cif
_audit_creation_date              2012-10-26T19:58:21-0400
_audit_creation_method            fapswitch 2.2
_symmetry_space_group_name_H-M    P1
_symmetry_Int_Tables_number       1
_space_group_crystal_system       triclinic
_cell_length_a                    7.437423
_cell_length_b                    8.734438
_cell_length_c                    13.458824
_cell_angle_alpha                 94.236108
_cell_angle_beta                  78.528804
_cell_angle_gamma                 102.949646
_cell_volume                      834.658948461

loop_
_atom_site_label
_atom_site_type_symbol
_atom_type_description
_atom_site_fract_x
_atom_site_fract_y
_atom_site_fract_z
_atom_type_partial_charge
C1    C     C_R   0.544806 0.799805 0.503201 0.587594
C2    C     C_R   0.347700 0.409437 0.796504 -0.087157
C3    C     C_2   0.570409 0.966821 0.504987 0.326894
C4    C     C_R   0.400497 0.466836 0.691235 0.524946
C5    C     C_2   0.429300 0.033216 0.495616 0.333385
C6    C     C_R   0.455119 0.200185 0.496952 0.578934
C7    C     C_R   0.598273 0.504696 0.306307 0.548809
C8    C     C_R   0.873048 0.611021 0.047089 -0.108499
C9    C     C_R   0.651329 0.509742 0.195967 0.040633
C10   C     C_R   0.159314 0.346049 0.835795 -0.114672
C11   C     C_R   0.100912 0.317863 0.938758 0.364674
C12   C     C_R   0.422776 0.410810 0.966622 -0.030522
C13   C     C_R   0.228006 0.360973 0.004447 -0.052680
C14   C     C_R   0.483695 0.419856 0.860094 -0.018843
C15   C     C_R   0.559528 0.459765 0.030243 0.087001
C16   C     C_R   0.743433 0.539530 0.986261 0.018539
C17   C     C_R   0.802571 0.530338 0.881816 -0.032161
C18   C     C_R   0.680326 0.445169 0.822450 0.279512
C19   C     C_R   0.522184 0.431379 0.134717 0.242163
C20   C     C_R   0.824850 0.600348 0.151701 -0.145929
Cu1   Cu    Cu3+1 0.321300 0.483160 0.488710 1.073902
Cu2   Cu    Cu3+1 0.678700 0.516840 0.511290 1.084729
F1    F     F_    0.256875 0.947126 0.484477 -0.609350
F2    F     F_    0.917468 0.257201 0.976273 -0.613052
F3    F     F_    0.742701 0.052934 0.516364 -0.610577
H1    H     H_    0.924638 0.660212 0.197960 0.150877
H2    H     H_    0.011851 0.618054 0.579162 0.270376
H3    H     H_    0.988066 0.381790 0.420938 0.258599
H4    H     H_    0.949288 0.570842 0.848328 0.121415
H5    H     H_    0.012610 0.673441 0.013515 0.126454
H6    H     H_    0.056598 0.321370 0.786957 0.208307
H7    H     H_    0.168512 0.358160 0.084056 0.167290
H8    H     H_    0.287733 0.344354 0.221019 0.332899
H9    H     H_    0.659763 0.279065 0.719341 0.353454
N1    N     N_2   0.947230 0.542220 0.528320 -0.201307
N2    N     N_2   0.052770 0.457780 0.471680 -0.226807
O1    O     O_R   0.383920 0.714220 0.492660 -0.482844
O2    O     O_3   0.757861 0.368758 0.736662 -0.658223
O3    O     O_R   0.685730 0.742660 0.511730 -0.447793
O4    O     O_R   0.275440 0.478800 0.636790 -0.510299
O5    O     O_R   0.577250 0.507240 0.655860 -0.477456
O6    O     O_R   0.314270 0.257340 0.488270 -0.444485
O7    O     O_R   0.616080 0.285780 0.507340 -0.486852
O8    O     O_R   0.422750 0.492760 0.344140 -0.524671
O9    O     O_R   0.724560 0.521200 0.363210 -0.522572
O10   O     O_3   0.384688 0.303939 0.171426 -0.674637

loop_
_geom_bond_atom_site_label_1
_geom_bond_atom_site_label_2
_ccdc_geom_bond_type
C15   C16   A    
C2    C4    S    
H8    O10   S    
Cu1   O8    S    
C17   H4    S    
C14   C18   A    
C13   H7    S    
N1    N2    D    
C5    F1    S    
C12   C15   A    
C1    O1    A    
C8    H5    S    
C17   C18   A    
C18   O2    S    
C19   O10   S    
C8    C16   A    
Cu1   N2    S    
C7    O8    A    
C15   C19   A    
Cu2   N1    S    
C11   C13   A    
C8    C20   A    
Cu1   O4    S    
C20   H1    S    
Cu2   O3    S    
C7    O9    A    
Cu1   Cu2   S    
C12   C14   A    
C6    O7    A    
C6    O6    A    
C5    C6    S    
C2    C14   A    
Cu2   O5    S    
C4    O5    A    
C1    O3    A    
Cu1   O6    S    
C2    C10   A    
C3    C5    D    
C11   F2    S    
C3    F3    S    
Cu2   O9    S    
Cu1   O1    S    
C12   C13   A    
H3    N2    S    
C10   C11   A    
C7    C9    S    
C9    C20   A    
H2    N1    S    
H9    O2    S    
C10   H6    S    
C9    C19   A    
Cu2   O7    S    
C4    O4    A    
C16   C17   A    
C1    C3    S    
