data_mof_unit_27310.cif
_audit_creation_date              2013-03-05T17:02:05-0500
_audit_creation_method            fapswitch 2.2
_symmetry_space_group_name_H-M    P1
_symmetry_Int_Tables_number       1
_space_group_crystal_system       triclinic
_cell_length_a                    10.551731
_cell_length_b                    16.197038
_cell_length_c                    16.612119
_cell_angle_alpha                 89.518592
_cell_angle_beta                  90.090716
_cell_angle_gamma                 92.936669
_cell_volume                      2835.2935141

loop_
_atom_site_label
_atom_site_type_symbol
_atom_site_description
_atom_site_fract_x
_atom_site_fract_y
_atom_site_fract_z
_atom_type_partial_charge
O1    O     O_R   0.494440 0.422540 0.612660 -0.654869
O2    O     O_R   0.505560 0.577460 0.387340 -0.647100
O3    O     O_R   0.504420 0.561850 0.618900 -0.560374
O4    O     O_R   0.495580 0.438150 0.381100 -0.550837
C1    C     C_R   0.494628 0.490278 0.653287 0.923798
C2    C     C_R   0.504642 0.509871 0.346730 0.920929
O5    O     O_R   0.681060 0.430360 0.496900 -0.595625
O6    O     O_R   0.318940 0.569640 0.503100 -0.612032
O7    O     O_R   0.691040 0.569670 0.503140 -0.585665
O8    O     O_R   0.308960 0.430330 0.496860 -0.591758
C3    C     C_R   0.742516 0.500201 0.496456 0.943696
C4    C     C_R   0.257522 0.499723 0.502559 0.948920
Zn1   Zn    Zn3+2 0.493340 0.406980 0.495830 1.029473
Zn2   Zn    Zn3+2 0.506660 0.593020 0.504170 1.023473
C5    C     C_3   0.950941 0.473206 0.570134 -0.291019
C6    C     C_3   0.049554 0.525715 0.427449 -0.314736
C7    C     C_3   0.040126 0.549740 0.556354 0.396547
C8    C     C_3   0.960104 0.449368 0.441298 0.396109
H1    H     H_    0.908025 0.452972 0.628493 0.181722
H2    H     H_    0.092646 0.545916 0.369131 0.184722
C9    C     C_3   0.123126 0.499552 0.502510 -0.134670
C10   C     C_3   0.877144 0.499722 0.495183 -0.131723
C11   C     C_3   0.035277 0.421787 0.514922 -0.231155
C12   C     C_3   0.965316 0.577238 0.482524 -0.217536
H3    H     H_    0.066029 0.358352 0.527192 0.190017
H4    H     H_    0.936930 0.640202 0.466763 0.217357
C13   C     C_R   0.469486 0.487652 0.739210 -0.127498
C14   C     C_R   0.525217 0.514012 0.260463 -0.125489
C15   C     C_R   0.410000 0.553967 0.773779 -0.152820
C16   C     C_R   0.592392 0.452471 0.223590 -0.124354
C17   C     C_R   0.388062 0.556287 0.856193 0.083512
C18   C     C_R   0.610200 0.452776 0.140538 0.089960
C19   C     C_R   0.428477 0.490798 0.904424 0.183764
C20   C     C_R   0.558575 0.516296 0.094505 0.185738
C21   C     C_R   0.475764 0.419456 0.868807 0.306531
C22   C     C_R   0.503842 0.583647 0.132633 0.308993
C23   C     C_R   0.497690 0.419087 0.785958 -0.298542
C24   C     C_R   0.485335 0.581038 0.215648 -0.292614
N1    N     N_2   0.436602 0.501258 0.988178 -0.127142
N2    N     N_2   0.549468 0.507408 0.010562 -0.135312
H5    H     H_    0.630318 0.403678 0.259605 0.235127
H6    H     H_    0.381775 0.604873 0.736452 0.221940
H7    H     H_    0.537175 0.365884 0.758118 0.195100
H8    H     H_    0.440197 0.631139 0.245262 0.200646
N3    N     N_R   0.515540 0.716920 0.509720 -0.160120
N4    N     N_R   0.484460 0.283080 0.490280 -0.155869
C25   C     C_R   0.416617 0.755023 0.475719 -0.091059
C26   C     C_R   0.519939 0.241495 0.557557 -0.123138
C27   C     C_R   0.414007 0.841896 0.470176 0.053680
C28   C     C_R   0.504803 0.154681 0.563556 0.039301
C29   C     C_R   0.519261 0.891761 0.499578 0.211523
C30   C     C_R   0.460756 0.108535 0.496245 0.229872
C31   C     C_R   0.621370 0.850687 0.535086 -0.068677
C32   C     C_R   0.427203 0.152377 0.425780 -0.067344
C33   C     C_R   0.615749 0.762715 0.541426 0.365075
C34   C     C_R   0.436611 0.240432 0.425213 0.398158
N5    N     N_2   0.533270 0.980639 0.489947 -0.172149
N6    N     N_2   0.436724 0.020414 0.502612 -0.162200
H9    H     H_    0.554950 0.276365 0.608859 0.170280
H10   H     H_    0.338979 0.717125 0.450879 0.176699
N7    N     N_R   0.080314 0.605287 0.621223 0.210162
O9    O     O_R   0.995430 0.638462 0.665498 -0.307024
O10   O     O_R   0.199816 0.621121 0.636390 -0.436328
N8    N     N_R   0.919366 0.393368 0.376973 0.204379
O11   O     O_R   0.003817 0.357538 0.334524 -0.331932
O12   O     O_R   0.799692 0.376893 0.362878 -0.428634
C35   C     C_3   0.734769 0.901438 0.567938 -0.321754
C36   C     C_3   0.828842 0.926197 0.501183 -0.792150
H11   H     H_    0.863333 0.870538 0.471361 0.278865
H12   H     H_    0.783790 0.965488 0.455346 0.261335
H13   H     H_    0.911341 0.961946 0.527306 0.241399
H14   H     H_    0.703423 0.957862 0.597295 0.192731
H15   H     H_    0.784196 0.868004 0.616242 0.251780
C37   C     C_3   0.374170 0.105933 0.353507 -0.361124
C38   C     C_3   0.230466 0.091414 0.360271 -0.794733
H16   H     H_    0.204542 0.059973 0.417996 0.256661
H17   H     H_    0.183716 0.151248 0.357300 0.298529
H18   H     H_    0.194903 0.052129 0.309784 0.253016
H19   H     H_    0.396554 0.139577 0.296581 0.256807
H20   H     H_    0.420842 0.046657 0.347130 0.205784
N9    N     N_R   0.714495 0.721291 0.581738 0.222563
O13   O     O_R   0.689556 0.679826 0.647634 -0.346295
O14   O     O_R   0.831710 0.733112 0.558717 -0.413847
N10   N     N_R   0.387301 0.285113 0.358656 0.222302
O15   O     O_R   0.446582 0.288002 0.290063 -0.433663
O16   O     O_R   0.279798 0.320181 0.365509 -0.337648
C39   C     C_3   0.685142 0.385701 0.102760 -0.387646
C40   C     C_3   0.628583 0.298917 0.121870 -0.624649
H21   H     H_    0.651437 0.280963 0.184664 0.255410
H22   H     H_    0.523989 0.295932 0.114298 0.307911
H23   H     H_    0.669778 0.253583 0.080911 0.254690
H24   H     H_    0.691215 0.393299 0.036409 0.248202
H25   H     H_    0.784039 0.390933 0.125978 0.221851
C41   C     C_3   0.321590 0.628787 0.890737 -0.360183
C42   C     C_3   0.391920 0.711574 0.871486 -0.673718
H26   H     H_    0.495343 0.708072 0.882190 0.296084
H27   H     H_    0.376779 0.729422 0.807654 0.235951
H28   H     H_    0.355018 0.760571 0.910083 0.267016
H29   H     H_    0.224409 0.629360 0.864908 0.224246
H30   H     H_    0.310123 0.622744 0.956901 0.254858
N11   N     N_R   0.499855 0.347498 0.916432 0.206424
O17   O     O_R   0.582345 0.295768 0.892891 -0.403848
O18   O     O_R   0.427197 0.327575 0.977474 -0.380602
N12   N     N_R   0.470859 0.655380 0.087568 0.205702
O19   O     O_R   0.544958 0.683369 0.029988 -0.389277
O20   O     O_R   0.379614 0.700215 0.111780 -0.397940
C43   C     C_3   0.527915 0.113707 0.643863 -0.389680
C44   C     C_3   0.403130 0.093162 0.687718 -0.774890
H31   H     H_    0.351858 0.150405 0.697778 0.261157
H32   H     H_    0.341813 0.049010 0.652380 0.258191
H33   H     H_    0.422909 0.064436 0.747043 0.260225
H34   H     H_    0.579123 0.056614 0.635597 0.215409
H35   H     H_    0.588763 0.154910 0.682736 0.213386
C45   C     C_3   0.300290 0.876156 0.428912 -0.395826
C46   C     C_3   0.192285 0.886398 0.488391 -0.797510
H36   H     H_    0.160967 0.825562 0.514962 0.283936
H37   H     H_    0.222666 0.929121 0.537473 0.267234
H38   H     H_    0.110675 0.912245 0.456384 0.240415
H39   H     H_    0.325343 0.934994 0.398192 0.232488
H40   H     H_    0.265799 0.833745 0.380377 0.204568

loop_
_geom_bond_atom_site_label_1
_geom_bond_atom_site_label_2
_geom_bond_distance
_ccdc_geom_bond_type
C39   C40   1.529673 S    
C6    C9    1.535841 S    
C15   H6    1.081221 S    
C13   C15   1.399307 A    
C43   H34   1.104324 S    
C42   H26   1.109640 S    
O7    Zn2   2.001004 S    
N12   O20   1.301495 A    
C45   C46   1.525867 S    
C42   H28   1.110652 S    
C25   C27   1.411009 A    
O5    C3    1.274723 A    
C19   N1    1.404970 S    
C20   N2    1.405711 S    
C21   C23   1.396088 A    
N10   O16   1.299938 A    
Zn1   N4    2.007086 S    
C46   H36   1.111211 S    
C44   H31   1.111103 S    
C35   H14   1.105186 S    
N3    C25   1.359313 A    
O4    Zn1   1.967405 S    
N7    O10   1.298545 A    
C43   H35   1.112037 S    
C7    N7    1.458179 S    
C25   H10   1.081583 S    
C32   C37   1.513414 S    
C5    C10   1.537292 S    
C2    C14   1.450251 S    
C36   H11   1.110089 S    
C46   H37   1.110096 S    
C28   C30   1.414848 A    
C43   C44   1.526192 S    
C17   C19   1.407104 A    
C16   H5    1.079986 S    
C34   N10   1.428364 S    
C35   H15   1.108812 S    
C14   C24   1.393604 A    
C33   N9    1.430427 S    
C45   H39   1.097706 S    
O6    C4    1.275721 A    
C26   C28   1.409719 A    
C27   C45   1.508914 S    
C6    C12   1.554022 S    
C1    C13   1.452104 S    
C39   H24   1.109651 S    
O2    C2    1.290334 A    
C31   C35   1.519860 S    
N12   O19   1.300213 A    
N9    O14   1.299475 A    
C30   C32   1.417864 A    
N9    O13   1.299643 A    
Zn2   N3    2.007086 S    
C32   C34   1.424546 A    
C31   C33   1.426096 A    
C30   N6    1.439826 S    
N4    C26   1.361894 A    
C7    C12   1.532806 S    
C37   C38   1.526665 S    
C8    C11   1.532535 S    
N11   O17   1.301496 A    
N10   O15   1.300084 A    
O4    C2    1.289285 A    
N1    N2    1.246419 D    
C27   C29   1.427355 A    
C18   C39   1.516745 S    
C4    C9    1.417975 S    
C7    C9    1.521679 S    
C35   C36   1.526798 S    
C29   C31   1.419937 A    
N8    O12   1.298538 A    
C23   H7    1.083581 S    
C5    H1    1.110490 S    
C38   H16   1.110004 S    
C24   H8    1.083729 S    
O7    C3    1.279976 A    
C40   H23   1.110458 S    
C41   H30   1.108921 S    
C6    H2    1.110487 S    
C46   H38   1.109626 S    
C41   C42   1.530553 S    
C38   H17   1.110446 S    
O3    Zn2   1.967406 S    
O8    C4    1.277218 A    
C29   N5    1.447128 S    
C36   H12   1.110175 S    
C40   H22   1.109231 S    
C37   H19   1.107188 S    
C9    C11   1.537816 S    
C28   C43   1.510077 S    
C10   C12   1.537090 S    
O1    Zn1   1.959128 S    
O3    C1    1.287495 A    
O1    C1    1.292847 A    
C26   H9    1.080502 S    
N11   O18   1.300685 A    
C5    C7    1.533313 S    
O6    Zn2   1.997577 S    
C8    C10   1.523373 S    
C12   H4    1.106741 S    
C21   N11   1.436385 S    
O8    Zn1   2.001004 S    
C42   H27   1.110202 S    
C17   C41   1.515657 S    
C3    C10   1.421166 S    
C44   H33   1.110343 S    
C22   N12   1.434391 S    
N8    O11   1.299995 A    
C22   C24   1.393104 A    
C14   C16   1.398294 A    
C15   C17   1.389997 A    
C16   C18   1.392630 A    
C8    N8    1.457474 S    
N5    N6    1.251924 D    
C41   H29   1.111405 S    
C13   C23   1.394125 A    
C36   H13   1.110293 S    
C39   H25   1.111368 S    
C5    C11   1.555029 S    
C19   C21   1.416251 A    
C44   H32   1.110443 S    
C20   C22   1.414952 A    
C11   H3    1.110364 S    
N7    O9    1.299984 A    
O2    Zn2   1.959128 S    
C38   H18   1.110225 S    
O5    Zn1   1.997579 S    
C40   H21   1.110027 S    
N3    C33   1.367506 A    
C6    C8    1.532729 S    
N4    C34   1.369494 A    
C37   H20   1.107181 S    
C45   H40   1.112280 S    
C18   C20   1.408149 A    
