data_mof_unit_11652.cif
_audit_creation_date              2012-12-11T16:45:21-0500
_audit_creation_method            fapswitch 2.2
_symmetry_space_group_name_H-M    P1
_symmetry_Int_Tables_number       1
_space_group_crystal_system       triclinic
_cell_length_a                    19.873555
_cell_length_b                    17.266974
_cell_length_c                    15.368494
_cell_angle_alpha                 89.865553
_cell_angle_beta                  53.032231
_cell_angle_gamma                 90.009201
_cell_volume                      4213.60362687

loop_
_atom_site_label
_atom_site_type_symbol
_atom_type_description
_atom_site_fract_x
_atom_site_fract_y
_atom_site_fract_z
_atom_type_partial_charge
C1    C     C_R   0.849180 0.680635 0.028160 -0.127923
C2    C     C_R   0.149753 0.681526 0.973634 -0.135890
C3    C     C_R   0.349841 0.181071 0.027065 -0.131096
C4    C     C_R   0.650084 0.181318 0.973166 -0.134232
C5    C     C_R   0.884955 0.316457 0.303897 0.068831
C6    C     C_R   0.115946 0.316776 0.696303 0.069536
C7    C     C_R   0.385134 0.816318 0.303671 0.071101
C8    C     C_R   0.618216 0.818707 0.695585 0.062734
C9    C     C_R   0.848306 0.311667 0.933718 0.087061
C10   C     C_R   0.152228 0.311823 0.065790 0.088192
C11   C     C_R   0.347854 0.811927 0.934236 0.086580
C12   C     C_R   0.651790 0.811645 0.066527 0.085225
C13   C     C_R   0.815085 0.640931 0.323509 0.067148
C14   C     C_R   0.188144 0.638849 0.674539 0.060124
C15   C     C_R   0.313018 0.139285 0.325498 0.061863
C16   C     C_R   0.688240 0.138887 0.674567 0.060075
C17   C     C_R   0.759225 0.666485 0.510079 -0.014411
C18   C     C_R   0.281564 0.639733 0.471394 0.039197
C19   C     C_R   0.225703 0.142925 0.527734 0.022734
C20   C     C_R   0.782630 0.139364 0.471229 0.040086
C21   C     C_R   0.751207 0.673824 0.426174 0.058432
C22   C     C_R   0.263045 0.665249 0.570654 0.045735
C23   C     C_R   0.240203 0.166343 0.429801 0.046954
C24   C     C_R   0.763369 0.165230 0.570766 0.044554
C25   C     C_R   0.189166 0.224861 0.433881 -0.183762
C26   C     C_R   0.811531 0.226263 0.567959 -0.186849
C27   C     C_R   0.686131 0.718470 0.440866 -0.190186
C28   C     C_R   0.311689 0.725895 0.567594 -0.187727
C29   C     C_R   0.139634 0.270458 0.527085 -0.198129
C30   C     C_R   0.860962 0.272015 0.474386 -0.197586
C31   C     C_R   0.636314 0.763434 0.534429 -0.199614
C32   C     C_R   0.361198 0.771589 0.473991 -0.199978
C33   C     C_R   0.141484 0.257443 0.615860 0.046018
C34   C     C_R   0.861760 0.256837 0.383945 0.042315
C35   C     C_R   0.652735 0.762816 0.611283 0.055193
C36   C     C_R   0.361574 0.756728 0.383810 0.043276
C37   C     C_R   0.710546 0.710840 0.601300 0.010848
C38   C     C_R   0.328259 0.686226 0.380490 0.032115
C39   C     C_R   0.178324 0.189111 0.618275 0.023153
C40   C     C_R   0.829243 0.185902 0.380342 0.033299
C41   C     C_3   0.780075 0.722378 0.613414 0.026438
C42   C     C_3   0.282238 0.659719 0.335126 -0.011208
C43   C     C_3   0.227814 0.167658 0.660570 0.015157
C44   C     C_3   0.784433 0.158163 0.333861 -0.011835
C45   C     C_R   0.898908 0.302845 0.206563 -0.155152
C46   C     C_R   0.101408 0.303009 0.793871 -0.154395
C47   C     C_R   0.398917 0.802812 0.206458 -0.154944
C48   C     C_R   0.604663 0.803780 0.792214 -0.135024
C49   C     C_3   0.835468 0.672169 0.510712 0.016841
C50   C     C_3   0.231582 0.605829 0.434927 -0.016157
C51   C     C_3   0.279576 0.113910 0.561551 -0.004158
C52   C     C_3   0.733873 0.104247 0.433672 -0.015638
C53   C     C_2   0.765728 0.197383 0.989868 -0.236240
C54   C     C_2   0.234511 0.197528 0.009975 -0.236554
C55   C     C_2   0.264859 0.697999 0.991069 -0.236717
C56   C     C_2   0.732682 0.696322 0.012840 -0.237079
C57   C     C_2   0.307493 0.752929 0.914299 0.031153
C58   C     C_2   0.691319 0.752302 0.087858 0.030433
C59   C     C_2   0.808168 0.252567 0.913437 0.030597
C60   C     C_2   0.192314 0.252626 0.086159 0.030357
C61   C     C_R   0.867654 0.387086 0.895198 -0.134914
C62   C     C_R   0.132831 0.387139 0.104293 -0.135687
C63   C     C_R   0.367224 0.887325 0.895663 -0.134445
C64   C     C_R   0.632528 0.887060 0.104684 -0.136336
C65   C     C_R   0.860585 0.577936 0.313859 -0.147922
C66   C     C_R   0.140306 0.576974 0.686612 -0.124980
C67   C     C_R   0.359805 0.076792 0.313385 -0.152398
C68   C     C_R   0.640408 0.077017 0.686621 -0.127115
C69   C     C_R   0.875459 0.300110 0.995824 -0.141960
C70   C     C_R   0.124766 0.300256 0.004065 -0.143388
C71   C     C_R   0.375293 0.800199 0.995993 -0.141429
C72   C     C_R   0.624564 0.800170 0.004469 -0.132974
C73   C     C_R   0.855056 0.675236 0.222248 -0.141095
C74   C     C_R   0.146815 0.673780 0.776461 -0.123841
C75   C     C_R   0.353977 0.174311 0.223507 -0.123204
C76   C     C_R   0.646778 0.173830 0.776490 -0.123826
C77   C     C_R   0.904119 0.393653 0.305006 -0.139472
C78   C     C_R   0.096022 0.393632 0.695048 -0.156259
C79   C     C_R   0.404512 0.893405 0.304732 -0.147975
C80   C     C_R   0.596538 0.894368 0.694732 -0.172565
C81   C     C_R   0.836526 0.586713 0.939239 0.036069
C82   C     C_R   0.162146 0.587589 0.063188 0.032472
C83   C     C_R   0.337459 0.087389 0.937528 0.036725
C84   C     C_R   0.662507 0.087303 0.062566 0.034659
C85   C     C_R   0.799229 0.653102 0.000702 0.118063
C86   C     C_R   0.199012 0.654423 0.002402 0.123438
C87   C     C_R   0.300432 0.153932 0.998585 0.120528
C88   C     C_R   0.699560 0.154024 0.001532 0.122156
H1    H     H_    0.848019 0.737487 0.057767 0.104341
H2    H     H_    0.150493 0.738614 0.944518 0.104668
H3    H     H_    0.348930 0.237974 0.056424 0.104488
H4    H     H_    0.650952 0.238417 0.944004 0.104493
H5    H     H_    0.107465 0.320025 0.524722 0.116338
H6    H     H_    0.890302 0.323417 0.477990 0.116834
H7    H     H_    0.589787 0.802091 0.542943 0.119390
H8    H     H_    0.390991 0.822725 0.477365 0.115748
H9    H     H_    0.769651 0.191268 0.056931 0.113620
H10   H     H_    0.230647 0.191699 0.942859 0.115035
H11   H     H_    0.268509 0.692171 0.058399 0.113947
H12   H     H_    0.728088 0.689703 0.946455 0.116146
H13   H     H_    0.907105 0.247645 0.169102 0.115392
H14   H     H_    0.093812 0.247742 0.831257 0.113706
H15   H     H_    0.406872 0.747634 0.169054 0.114627
H16   H     H_    0.604456 0.748058 0.824611 0.103224
H17   H     H_    0.866302 0.410537 0.831088 0.102099
H18   H     H_    0.134650 0.410541 0.167925 0.100862
H19   H     H_    0.365420 0.910969 0.832007 0.101413
H20   H     H_    0.634045 0.910458 0.168562 0.101259
H21   H     H_    0.846987 0.538672 0.377190 0.103642
H22   H     H_    0.153811 0.534880 0.627437 0.114652
H23   H     H_    0.345342 0.034293 0.372714 0.106169
H24   H     H_    0.654147 0.034880 0.627447 0.115346
H25   H     H_    0.882837 0.245838 0.024507 0.090294
H26   H     H_    0.117389 0.246014 0.975559 0.092041
H27   H     H_    0.382596 0.745887 0.024675 0.090628
H28   H     H_    0.616932 0.745902 0.976316 0.089524
H29   H     H_    0.838967 0.729622 0.204614 0.094833
H30   H     H_    0.165148 0.726432 0.794419 0.091621
H31   H     H_    0.336232 0.227475 0.205588 0.090189
H32   H     H_    0.665001 0.226533 0.794476 0.091157
H33   H     H_    0.912368 0.420448 0.361501 0.080173
H34   H     H_    0.088102 0.420163 0.637964 0.087364
H35   H     H_    0.413005 0.920013 0.361116 0.080267
H36   H     H_    0.589985 0.920793 0.636313 0.093667
H37   H     H_    0.194169 0.240837 0.362089 0.124657
H38   H     H_    0.803892 0.244257 0.640762 0.124746
H39   H     H_    0.678026 0.722709 0.377371 0.130049
H40   H     H_    0.304431 0.743617 0.640244 0.124693
N1    N     N_R   0.908660 0.628630 0.995840 -0.055251
N2    N     N_R   0.091340 0.628630 0.004160 -0.055588
N3    N     N_R   0.408660 0.128630 0.995840 -0.055765
N4    N     N_R   0.591340 0.128630 0.004160 -0.055724
N5    N     N_R   0.922310 0.368460 0.151950 -0.038608
N6    N     N_R   0.077690 0.368460 0.848050 -0.038523
N7    N     N_R   0.422310 0.868460 0.151950 -0.038530
N8    N     N_R   0.577690 0.868460 0.848050 -0.040529
N9    N     N_R   0.903470 0.421430 0.936420 -0.034612
N10   N     N_R   0.096530 0.421430 0.063580 -0.034687
N11   N     N_R   0.403470 0.921430 0.936420 -0.034342
N12   N     N_R   0.596530 0.921430 0.063580 -0.035276
N13   N     N_R   0.927500 0.575670 0.211370 -0.045033
N14   N     N_R   0.072500 0.575670 0.788630 -0.043988
N15   N     N_R   0.427500 0.075670 0.211370 -0.042459
N16   N     N_R   0.572500 0.075670 0.788630 -0.043369
N17   N     N_R   0.908660 0.365680 0.995820 -0.039553
N18   N     N_R   0.091340 0.365680 0.004180 -0.039834
N19   N     N_R   0.408660 0.865680 0.995820 -0.039716
N20   N     N_R   0.591340 0.865680 0.004180 -0.041273
N21   N     N_R   0.922310 0.631420 0.151980 -0.040065
N22   N     N_R   0.077690 0.631420 0.848020 -0.042073
N23   N     N_R   0.422310 0.131420 0.151980 -0.040629
N24   N     N_R   0.577690 0.131420 0.848020 -0.042209
N25   N     N_R   0.927500 0.426330 0.211360 -0.036058
N26   N     N_R   0.072500 0.426330 0.788640 -0.037167
N27   N     N_R   0.427500 0.926330 0.211360 -0.036066
N28   N     N_R   0.572500 0.926330 0.788640 -0.037060
N29   N     N_R   0.903470 0.570760 0.936440 -0.050496
N30   N     N_R   0.096530 0.570760 0.063560 -0.051507
N31   N     N_R   0.403470 0.070760 0.936440 -0.050273
N32   N     N_R   0.596530 0.070760 0.063560 -0.050971
Ni1   Ni    Ni4+2 1.000000 0.630300 0.000000 0.200763
Ni2   Ni    Ni4+2 0.500000 0.130300 0.000000 0.201865
Ni3   Ni    Ni4+2 0.000000 0.369700 0.000000 0.205068
Ni4   Ni    Ni4+2 0.500000 0.869700 0.000000 0.204557
Ni5   Ni    Ni4+2 0.988090 0.497570 0.863760 0.214645
Ni6   Ni    Ni4+2 0.011910 0.497570 0.136240 0.206974
Ni7   Ni    Ni4+2 0.488090 0.997570 0.863760 0.214116
Ni8   Ni    Ni4+2 0.511910 0.997570 0.136240 0.208392
N33   N     N_3   0.809789 0.802849 0.599032 -0.200954
H41   H     H_    0.773648 0.831122 0.674129 0.128560
H42   H     H_    0.801685 0.833284 0.547007 0.105077
N34   N     N_3   0.229691 0.718992 0.333333 -0.218798
H43   H     H_    0.258551 0.738879 0.253954 0.114124
H44   H     H_    0.220381 0.766537 0.381474 0.115387
N35   N     N_3   0.278592 0.230774 0.658767 -0.204582
H45   H     H_    0.248001 0.254501 0.736409 0.115194
H46   H     H_    0.288251 0.275035 0.605713 0.114839
N36   N     N_3   0.731493 0.216432 0.331155 -0.219929
H47   H     H_    0.760334 0.235787 0.251549 0.112852
H48   H     H_    0.721519 0.264431 0.378963 0.115248
N37   N     N_3   0.759912 0.688203 0.714230 -0.225582
H49   H     H_    0.731706 0.633804 0.728938 0.093367
H50   H     H_    0.816009 0.681107 0.705293 0.119409
N38   N     N_3   0.337178 0.619549 0.230142 -0.230142
H51   H     H_    0.377986 0.581759 0.230894 0.118386
H52   H     H_    0.299571 0.586873 0.217289 0.105644
N39   N     N_3   0.176620 0.127795 0.766575 -0.232823
H53   H     H_    0.136601 0.087119 0.768710 0.116011
H54   H     H_    0.216792 0.098508 0.778049 0.105920
N40   N     N_3   0.840571 0.118085 0.229019 -0.229835
H55   H     H_    0.881482 0.080993 0.230561 0.118625
H56   H     H_    0.803848 0.084672 0.215377 0.105104
N41   N     N_3   0.907995 0.714633 0.417619 -0.199656
H57   H     H_    0.887345 0.757875 0.390988 0.109059
H58   H     H_    0.945181 0.677295 0.351746 0.112435
N42   N     N_3   0.140597 0.621938 0.508058 -0.220016
H59   H     H_    0.129673 0.679224 0.535411 0.121232
H60   H     H_    0.115701 0.614552 0.464974 0.113137
N43   N     N_3   0.369476 0.135668 0.489628 -0.207367
H61   H     H_    0.379846 0.181456 0.438191 0.119448
H62   H     H_    0.406960 0.088905 0.441950 0.092442
N44   N     N_3   0.642669 0.119354 0.505716 -0.220439
H63   H     H_    0.630791 0.176688 0.532995 0.120858
H64   H     H_    0.618553 0.111074 0.461845 0.110970
N45   N     N_3   0.860313 0.598087 0.531632 -0.216398
H65   H     H_    0.910010 0.573180 0.458496 0.090972
H66   H     H_    0.810351 0.558544 0.568083 0.090384
N46   N     N_3   0.249941 0.523398 0.406220 -0.218218
H67   H     H_    0.203997 0.499520 0.401249 0.097177
H68   H     H_    0.249065 0.492751 0.465492 0.102390
N47   N     N_3   0.265586 0.031629 0.593453 -0.221171
H69   H     H_    0.313241 0.011921 0.597828 0.098438
H70   H     H_    0.265588 0.997528 0.537593 0.096625
N48   N     N_3   0.753467 0.021907 0.405263 -0.218332
H71   H     H_    0.709559 0.997737 0.396600 0.098365
H72   H     H_    0.749936 0.991443 0.466604 0.099279
N49   N     N_3   0.308858 0.756868 0.819860 -0.210758
H73   H     H_    0.282934 0.809821 0.820810 0.076992
H74   H     H_    0.371836 0.756441 0.751062 0.105827
N50   N     N_3   0.690647 0.757077 0.181704 -0.211080
H75   H     H_    0.717572 0.809913 0.178941 0.079368
H76   H     H_    0.627794 0.757516 0.250820 0.104501
N51   N     N_3   0.809314 0.256804 0.819190 -0.210960
H77   H     H_    0.783165 0.309739 0.820590 0.076984
H78   H     H_    0.872253 0.256631 0.750286 0.108096
N52   N     N_3   0.191025 0.256482 0.180523 -0.210910
H79   H     H_    0.217235 0.309397 0.179115 0.076967
H80   H     H_    0.128055 0.256097 0.249348 0.107564
N53   N     N_3   0.815806 0.547974 0.876295 -0.226233
H81   H     H_    0.752409 0.531876 0.929003 0.099332
H82   H     H_    0.822288 0.587646 0.820311 0.083664
N54   N     N_3   0.180867 0.549998 0.129118 -0.229120
H83   H     H_    0.244458 0.534501 0.078512 0.098314
H84   H     H_    0.172736 0.590269 0.185403 0.087110
N55   N     N_3   0.318515 0.050022 0.871873 -0.227955
H85   H     H_    0.254900 0.034404 0.922612 0.096456
H86   H     H_    0.326725 0.090487 0.815520 0.091004
N56   N     N_3   0.681620 0.049435 0.127927 -0.228877
H87   H     H_    0.745093 0.033644 0.076857 0.097973
H88   H     H_    0.674089 0.089595 0.183929 0.087338

loop_
_geom_bond_atom_site_label_1
_geom_bond_atom_site_label_2
_ccdc_geom_bond_type
N12   Ni8   S    
C15   C75   A    
C44   N36   S    
N40   H55   S    
C34   C40   A    
N25   Ni6   S    
N43   H62   S    
C69   N17   A    
N33   H41   S    
C83   C87   A    
N51   H77   S    
N14   N22   A    
C43   C51   S    
N12   N20   A    
N9    Ni5   S    
N36   H47   S    
C84   N32   A    
N13   N21   A    
C4    N4    A    
C13   C65   A    
N37   H49   S    
N38   H51   S    
C46   H14   S    
C69   H25   S    
N13   Ni6   S    
C33   C39   A    
C11   C71   A    
N44   H64   S    
C37   C41   S    
C9    C61   A    
C14   C74   A    
N9    N17   A    
C35   C37   A    
C24   C26   A    
C38   C42   S    
C1    N1    A    
N19   Ni4   S    
C7    C36   S    
C26   H38   S    
C54   C87   S    
C12   C64   A    
N48   H72   S    
C6    C78   A    
C76   N24   A    
C19   C39   A    
C64   N12   A    
C48   H16   S    
C16   C76   A    
C29   C33   A    
N7    N27   A    
N6    Ni3   S    
C25   C29   A    
C3    H3    S    
C68   H24   S    
C2    C86   A    
C41   C49   S    
C2    H2    S    
C25   H37   S    
N53   H82   S    
C81   N29   A    
C77   N25   A    
C4    C88   A    
C43   N35   S    
C57   N49   S    
C20   C24   A    
N38   H52   S    
N46   H67   S    
N41   H58   S    
C66   N14   A    
N40   H56   S    
N55   H85   S    
N26   Ni5   S    
C80   N28   A    
C16   C68   A    
N10   Ni6   S    
C61   H17   S    
C60   N52   S    
N41   H57   S    
C81   C85   A    
C12   C58   S    
C44   C52   S    
C15   C23   S    
C21   C27   A    
C67   N15   A    
N43   H61   S    
C16   C24   S    
C5    C45   A    
C59   N51   S    
C1    C85   A    
N55   H86   S    
C41   N37   S    
C10   C62   A    
C50   N42   S    
N31   Ni7   S    
N5    Ni3   S    
N1    N29   A    
N50   H75   S    
C22   C28   A    
N34   H44   S    
C64   H20   S    
N56   H88   S    
N37   H50   S    
C53   C59   D    
C74   H30   S    
C44   N40   S    
N5    N25   A    
C73   H29   S    
N44   H63   S    
C30   C34   A    
N16   Ni7   S    
C3    C87   A    
N20   Ni4   S    
C28   C32   A    
C79   H35   S    
C47   H15   S    
N35   H46   S    
C17   C49   S    
C77   H33   S    
N45   H65   S    
N48   H71   S    
C78   N26   A    
C54   C60   D    
N17   Ni3   S    
N28   Ni7   S    
C42   N38   S    
N49   H73   S    
C82   C86   A    
C41   N33   S    
C70   H26   S    
C51   N43   S    
C75   H31   S    
C9    C59   S    
C8    C35   S    
C7    C47   A    
C19   C23   A    
C8    C48   A    
N53   H81   S    
C19   C51   S    
C46   N6    A    
C65   N13   A    
N47   H69   S    
N7    Ni4   S    
C43   N39   S    
N27   Ni8   S    
N11   N19   A    
N23   Ni2   S    
C15   C67   A    
C5    C34   S    
N54   H84   S    
C14   C66   A    
C71   H27   S    
C76   H32   S    
C62   N10   A    
N11   Ni7   S    
C65   H21   S    
C71   N19   A    
C83   N55   S    
C42   N34   S    
C42   C50   S    
C70   N18   A    
C10   C70   A    
N2    Ni1   S    
N42   H60   S    
N47   H70   S    
C13   C73   A    
C52   N48   S    
C26   C30   A    
N52   H80   S    
C55   C57   D    
C27   C31   A    
C9    C69   A    
C3    N3    A    
N21   Ni1   S    
C17   C37   A    
C63   H19   S    
C32   C36   A    
N34   H43   S    
C18   C50   S    
C7    C79   A    
N29   Ni5   S    
N8    Ni4   S    
C67   H23   S    
N22   Ni1   S    
C82   N54   S    
N56   H87   S    
N3    N31   A    
C1    H1    S    
C6    C46   A    
C47   N7    A    
C18   C22   A    
C20   C40   A    
C48   N8    A    
C84   N56   S    
C84   C88   A    
C49   N45   S    
N42   H59   S    
N36   H48   S    
N51   H78   S    
C62   H18   S    
C63   N11   A    
C45   N5    A    
N49   H74   S    
C20   C52   S    
N18   Ni3   S    
C72   H28   S    
C11   C63   A    
N3    Ni2   S    
C6    C33   S    
N2    N30   A    
N50   H76   S    
C10   C60   S    
C53   H9    S    
C14   C22   S    
C55   C86   S    
C36   C38   A    
C18   C38   A    
C74   N22   A    
N39   H53   S    
C30   H6    S    
N35   H45   S    
C72   N20   A    
C28   H40   S    
C13   C21   S    
N14   Ni5   S    
C29   H5    S    
C32   H8    S    
N4    Ni2   S    
C61   N9    A    
C56   C85   S    
N6    N26   A    
C49   N41   S    
N10   N18   A    
C82   N30   A    
N1    Ni1   S    
C31   C35   A    
N15   N23   A    
N54   H83   S    
C2    N2    A    
C56   C58   D    
C58   N50   S    
C68   N16   A    
C53   C88   S    
C52   N44   S    
N32   Ni8   S    
N8    N28   A    
C12   C72   A    
C78   H34   S    
C17   C21   A    
C27   H39   S    
N39   H54   S    
C80   H36   S    
C31   H7    S    
C79   N27   A    
N30   Ni6   S    
C51   N47   S    
C40   C44   S    
C23   C25   A    
C83   N31   A    
C66   H22   S    
N46   H68   S    
N52   H79   S    
C73   N21   A    
C39   C43   S    
C55   H11   S    
C75   N23   A    
C8    C80   A    
C56   H12   S    
C54   H10   S    
C81   N53   S    
N15   Ni8   S    
C11   C57   S    
N45   H66   S    
C5    C77   A    
N4    N32   A    
N24   Ni2   S    
N16   N24   A    
C50   N46   S    
C4    H4    S    
N33   H42   S    
C45   H13   S    
