data_mof_unit_56777.cif
_audit_creation_date              2013-03-05T15:41:12-0500
_audit_creation_method            fapswitch 2.2
_symmetry_space_group_name_H-M    P1
_symmetry_Int_Tables_number       1
_space_group_crystal_system       triclinic
_cell_length_a                    15.85423
_cell_length_b                    8.687305
_cell_length_c                    7.486044
_cell_angle_alpha                 103.064274
_cell_angle_beta                  94.114849
_cell_angle_gamma                 92.21719
_cell_volume                      1000.18009872

loop_
_atom_site_label
_atom_site_type_symbol
_atom_site_description
_atom_site_fract_x
_atom_site_fract_y
_atom_site_fract_z
_atom_type_partial_charge
O1    O     O_R   0.506050 0.286130 0.619770 -0.584431
O2    O     O_R   0.490330 0.256780 0.308370 -0.585059
C1    C     C_R   0.497510 0.199861 0.453288 0.875626
O3    O     O_R   0.387300 0.514690 0.655770 -0.586496
O4    O     O_R   0.371580 0.485340 0.344370 -0.576471
C2    C     C_R   0.340447 0.499857 0.502466 0.811937
Cu1   Cu    Cu3+1 0.509300 0.517380 0.684380 0.981230
Cu2   Cu    Cu3+1 0.490700 0.482620 0.315620 0.970205
O5    O     O_R   0.509670 0.743220 0.691630 -0.582930
O6    O     O_R   0.493950 0.713870 0.380230 -0.585431
O7    O     O_R   0.628420 0.514660 0.655630 -0.555093
O8    O     O_R   0.612700 0.485310 0.344230 -0.578664
C3    C     C_R   0.502533 0.800141 0.546710 0.882386
C4    C     C_R   0.659546 0.500193 0.497565 0.822300
C5    C     C_3   0.051299 0.421378 0.655309 -0.404206
C6    C     C_3   0.042106 0.413028 0.315107 -0.356363
C7    C     C_3   0.944397 0.407888 0.314074 -0.390170
H1    H     H_    0.927975 0.292016 0.614089 0.167689
H2    H     H_    0.072227 0.298053 0.631532 0.162471
H3    H     H_    0.062142 0.472602 0.206851 0.218255
H4    H     H_    0.063507 0.290037 0.280787 0.180232
H5    H     H_    0.919532 0.282454 0.287777 0.189066
H6    H     H_    0.916070 0.455507 0.200745 0.285751
C8    C     C_1   0.749014 0.500267 0.493066 -0.074398
C9    C     C_3   0.083272 0.502503 0.506348 0.191963
C10   C     C_3   0.952992 0.417703 0.648804 0.173169
C11   C     C_3   0.917192 0.502387 0.499767 0.081069
C12   C     C_3   0.957113 0.676158 0.544409 0.222770
C13   C     C_3   0.055221 0.674906 0.545282 -0.426268
C14   C     C_1   0.824631 0.500932 0.493978 0.045631
C15   C     C_1   0.175462 0.501489 0.508446 -0.062223
C16   C     C_1   0.250996 0.500742 0.507486 -0.164063
H7    H     H_    0.084437 0.741647 0.681913 0.159802
H8    H     H_    0.079008 0.735894 0.441575 0.207078
H9    H     H_    0.942193 0.735398 0.685750 0.171728
H10   H     H_    0.080129 0.485334 0.793391 0.210145
C17   C     C_2   0.496343 0.031806 0.427256 -0.354582
H11   H     H_    0.489362 0.960076 0.287161 0.180647
C18   C     C_2   0.503756 0.968199 0.572740 -0.351168
H12   H     H_    0.510744 0.039930 0.712835 0.181863
N1    N     N_2   0.476670 0.456430 0.038530 -0.216783
H13   H     H_    0.434891 0.376559 0.949101 0.224675
N2    N     N_2   0.523330 0.543570 0.961470 -0.209115
H14   H     H_    0.565116 0.623430 0.050896 0.238327
Cl1   Cl    Cl    0.918819 0.503546 0.869602 -0.636680
N3    N     N_R   0.921775 0.769544 0.418910 0.123766
O9    O     O_R   0.874152 0.885272 0.480673 -0.363715
O10   O     O_R   0.942350 0.746728 0.250179 -0.315471

loop_
_geom_bond_atom_site_label_1
_geom_bond_atom_site_label_2
_geom_bond_distance
_ccdc_geom_bond_type
C9    C15   1.460938 S    
O4    Cu2   1.916510 S    
C2    C16   1.421627 S    
N2    H14   1.029169 S    
C6    H4    1.113191 S    
Cu1   N2    2.029902 S    
N1    H13   1.029160 S    
C7    H5    1.113649 S    
H1    C10   1.113764 S    
Cu2   O8    1.929353 S    
C6    H3    1.113265 S    
O2    C1    1.289779 A    
Cu1   Cu2   2.701522 S    
C17   C18   1.328165 D    
C7    H6    1.100432 S    
C11   C14   1.464482 S    
C5    H2    1.113266 S    
N1    N2    1.291678 D    
C12   N3    1.469319 S    
C10   C11   1.555841 S    
C17   H11   1.087658 S    
O3    Cu1   1.929352 S    
Cu2   O6    1.954882 S    
C12   C13   1.555446 S    
O8    C4    1.299643 A    
Cu1   O7    1.916510 S    
N3    O10   1.300819 A    
C9    C13   1.548765 S    
O4    C2    1.296697 A    
O7    C4    1.296478 A    
C8    C14   1.198163 T    
C5    C9    1.551101 S    
C3    C18   1.427770 S    
C7    C11   1.545934 S    
C13   H7    1.113556 S    
C5    H10   1.113115 S    
C6    C9    1.550265 S    
Cu2   N1    2.029903 S    
C1    C17   1.427774 S    
O3    C2    1.299561 A    
C4    C8    1.421232 S    
C18   H12   1.087658 S    
Cu1   O5    1.950158 S    
O5    C3    1.289774 A    
N3    O9    1.301266 A    
C5    C10   1.554714 S    
C10   Cl1   1.784452 S    
O1    C1    1.295728 A    
O1    Cu1   1.954882 S    
C13   H8    1.112736 S    
O2    Cu2   1.950158 S    
C15   C16   1.198343 T    
C12   H9    1.113333 S    
C6    C7    1.547421 S    
C11   C12   1.568058 S    
O6    C3    1.295731 A    
