data_mof_unit_64105.cif
_audit_creation_date              2012-12-10T20:22:44-0500
_audit_creation_method            fapswitch 2.2
_symmetry_space_group_name_H-M    P1
_symmetry_Int_Tables_number       1
_space_group_crystal_system       triclinic
_cell_length_a                    25.660907
_cell_length_b                    36.280271
_cell_length_c                    22.22833
_cell_angle_alpha                 90.025939
_cell_angle_beta                  125.264279
_cell_angle_gamma                 89.945045
_cell_volume                      16896.7866881

loop_
_atom_site_label
_atom_site_type_symbol
_atom_type_description
_atom_site_fract_x
_atom_site_fract_y
_atom_site_fract_z
_atom_type_partial_charge
C1    C     C_R   0.858151 0.750029 0.000079 0.789505
C2    C     C_3   0.241622 0.783716 0.018154 -0.170995
C3    C     C_1   0.500005 0.611483 0.999959 -0.126939
C4    C     C_R   0.999998 0.849002 0.000015 0.822430
C5    C     C_R   0.000002 0.150998 0.999985 0.821827
C6    C     C_R   0.499998 0.349001 0.000014 0.821871
C7    C     C_R   0.500001 0.650999 0.999985 0.822574
C8    C     C_R   0.000028 0.651010 0.000019 0.805906
C9    C     C_R   0.999972 0.348990 0.999983 0.806611
C10   C     C_R   0.500027 0.151010 0.000017 0.806721
C11   C     C_R   0.499973 0.848990 0.999981 0.805808
C12   C     C_R   0.941662 0.480736 0.952674 0.289045
C13   C     C_3   0.241718 0.216273 0.018128 -0.172557
C14   C     C_R   0.058343 0.519267 0.047385 0.289133
C15   C     C_R   0.059019 0.480716 0.036952 0.292285
C16   C     C_R   0.940988 0.519286 0.963116 0.291984
C17   C     C_R   0.441857 0.980742 0.951531 0.289122
C18   C     C_R   0.558127 0.019256 0.048423 0.289017
C19   C     C_R   0.559040 0.980706 0.038153 0.291909
C20   C     C_R   0.440944 0.019294 0.961790 0.292212
C21   C     C_R   0.000426 0.461561 0.993751 -0.250801
C22   C     C_R   0.999580 0.538441 0.006305 -0.250780
C23   C     C_R   0.500552 0.961559 0.993797 -0.250865
C24   C     C_3   0.733697 0.759103 0.932610 -0.174585
C25   C     C_R   0.499434 0.038440 0.006155 -0.250817
C26   C     C_1   0.000315 0.421684 0.996191 0.275460
C27   C     C_1   0.999686 0.578318 0.003843 0.275345
C28   C     C_1   0.500371 0.921682 0.996201 0.275335
C29   C     C_1   0.499622 0.078317 0.003769 0.275444
C30   C     C_1   0.999830 0.611528 0.001663 -0.043256
C31   C     C_1   0.000169 0.388473 0.998353 -0.043201
C32   C     C_1   0.499818 0.111528 0.001641 -0.043186
C33   C     C_1   0.500181 0.888472 0.998345 -0.043166
C34   C     C_3   0.257827 0.725238 0.049512 -0.122465
C35   C     C_3   0.258378 0.716284 0.981846 -0.170636
C36   C     C_3   0.742172 0.274761 0.950487 -0.122405
C37   C     C_3   0.776535 0.716280 0.018159 -0.171257
C38   C     C_3   0.257717 0.274743 0.049502 -0.123630
C39   C     C_3   0.757829 0.225240 0.049515 -0.122675
C40   C     C_3   0.242173 0.774761 0.950489 -0.122451
C41   C     C_3   0.242282 0.225258 0.950496 -0.123563
C42   C     C_3   0.723465 0.783719 0.981842 -0.171415
C43   C     C_3   0.763429 0.662730 0.577474 -0.259974
C44   C     C_3   0.247425 0.334608 0.420646 -0.259755
C45   C     C_3   0.328536 0.718781 0.421706 -0.276056
C46   C     C_3   0.741621 0.283716 0.018152 -0.170742
C47   C     C_3   0.670629 0.280110 0.577952 -0.276046
C48   C     C_3   0.247881 0.164663 0.574671 -0.258951
C49   C     C_3   0.737382 0.837413 0.423372 -0.259528
C50   C     C_3   0.827132 0.220880 0.418828 -0.276502
C51   C     C_3   0.169394 0.782246 0.575325 -0.275398
C52   C     C_3   0.766303 0.740896 0.067391 -0.174557
C53   C     C_3   0.258281 0.283728 0.981871 -0.172585
C54   C     C_3   0.800790 0.250119 0.999773 0.043412
C55   C     C_3   0.199211 0.749881 0.000228 0.043348
C56   C     C_3   0.199184 0.250096 0.000176 0.039990
C57   C     C_R   0.141892 0.250016 0.000008 0.790068
C58   C     C_3   0.801023 0.750115 0.000239 0.040494
C59   C     C_3   0.300789 0.750118 0.999773 0.043307
C60   C     C_3   0.699211 0.249882 0.000228 0.043313
C61   C     C_3   0.698978 0.749884 0.999762 0.040477
C62   C     C_3   0.300815 0.249905 0.999823 0.040040
C63   C     C_3   0.801095 0.259097 0.067394 -0.179553
C64   C     C_3   0.198904 0.740905 0.932606 -0.179340
C65   C     C_3   0.198892 0.259104 0.932591 -0.172761
C66   C     C_3   0.791692 0.774754 0.049515 -0.124445
C67   C     C_3   0.301095 0.759094 0.067394 -0.179572
C68   C     C_R   0.141909 0.749973 0.000038 0.785205
C69   C     C_3   0.698905 0.240904 0.932607 -0.179418
C70   C     C_3   0.708309 0.725245 0.950486 -0.124258
C71   C     C_3   0.301107 0.240896 0.067408 -0.172744
C72   C     C_R   0.703698 0.722677 0.461005 -0.366623
C73   C     C_R   0.300139 0.275197 0.539000 -0.365623
C74   C     C_R   0.303466 0.726975 0.539014 -0.362812
C75   C     C_R   0.696097 0.272715 0.460978 -0.361187
C76   C     C_R   0.199744 0.224831 0.460982 -0.367436
C77   C     C_R   0.796342 0.777304 0.538996 -0.366907
C78   C     C_R   0.804020 0.227372 0.539010 -0.359858
C79   C     C_R   0.858091 0.250027 0.999962 0.785195
C80   C     C_R   0.196568 0.773079 0.460970 -0.363938
C81   C     C_R   0.711566 0.750177 0.422692 -0.036870
C82   C     C_R   0.288382 0.249832 0.577301 -0.036327
C83   C     C_R   0.288436 0.750202 0.577296 -0.038837
C84   C     C_R   0.711612 0.249860 0.422690 -0.040361
C85   C     C_R   0.211529 0.250182 0.422690 -0.036066
C86   C     C_R   0.788465 0.749809 0.577307 -0.036853
C87   C     C_R   0.788490 0.250214 0.577299 -0.040730
C88   C     C_R   0.211584 0.749841 0.422693 -0.038677
C89   C     C_R   0.757466 0.777956 0.461654 0.555285
C90   C     C_R   0.358107 0.249984 0.999992 0.790072
C91   C     C_R   0.238561 0.224141 0.538350 0.555164
C92   C     C_R   0.234277 0.773034 0.538324 0.560968
C93   C     C_R   0.766263 0.227393 0.461716 0.560366
C94   C     C_R   0.261390 0.275853 0.461692 0.554790
C95   C     C_R   0.742561 0.722031 0.538340 0.555269
C96   C     C_R   0.733841 0.272674 0.538305 0.560547
C97   C     C_R   0.265725 0.726994 0.461692 0.560797
C98   C     C_1   0.671780 0.750011 0.343339 0.040536
C99   C     C_1   0.328204 0.249983 0.656652 0.042095
C100  C     C_1   0.328318 0.750104 0.656640 0.045472
C101  C     C_R   0.641849 0.749971 0.999922 0.789535
C102  C     C_1   0.671665 0.249911 0.343349 0.041282
C103  C     C_1   0.171757 0.250013 0.343340 0.038293
C104  C     C_1   0.828239 0.749982 0.656657 0.039909
C105  C     C_1   0.828382 0.250126 0.656643 0.043977
C106  C     C_1   0.171685 0.749919 0.343352 0.043269
C107  C     C_1   0.861491 0.750012 0.723046 -0.128857
C108  C     C_1   0.138512 0.249985 0.276953 -0.129494
C109  C     C_1   0.138455 0.749956 0.276969 -0.128033
C110  C     C_1   0.861587 0.250071 0.723027 -0.127602
C111  C     C_1   0.361479 0.250009 0.723042 -0.128292
C112  C     C_R   0.641909 0.249973 0.000038 0.785193
C113  C     C_1   0.638518 0.749982 0.276950 -0.128671
C114  C     C_1   0.638431 0.249943 0.276966 -0.128550
C115  C     C_1   0.361544 0.750051 0.723025 -0.127424
C116  C     C_R   0.974511 0.019311 0.031976 -0.165562
C117  C     C_R   0.025492 0.980689 0.968027 -0.165542
C118  C     C_R   0.025492 0.019235 0.968002 -0.164862
C119  C     C_R   0.974511 0.980765 0.032001 -0.164886
C120  C     C_R   0.480214 0.519309 0.038068 -0.165322
C121  C     C_R   0.519780 0.480691 0.961927 -0.165287
C122  C     C_R   0.519781 0.519237 0.961904 -0.164682
C123  C     C_R   0.358091 0.750027 0.999962 0.785261
C124  C     C_R   0.480213 0.480763 0.038092 -0.164744
C125  C     C_R   0.000002 0.038617 0.999977 0.150685
C126  C     C_R   0.000001 0.961383 0.000026 0.150697
C127  C     C_R   0.499998 0.538618 0.999974 0.150739
C128  C     C_R   0.499997 0.461382 0.000021 0.150716
C129  C     C_R   0.098984 0.749984 0.197998 0.818832
C130  C     C_R   0.901023 0.250021 0.802000 0.818048
C131  C     C_R   0.901012 0.749998 0.802022 0.813466
C132  C     C_R   0.098989 0.250002 0.197979 0.814586
C133  C     C_R   0.598974 0.249977 0.197997 0.818153
C134  C     C_3   0.758380 0.216284 0.981850 -0.170816
C135  C     C_R   0.401012 0.750015 0.801999 0.818699
C136  C     C_R   0.401014 0.249994 0.802020 0.814495
C137  C     C_R   0.598988 0.750000 0.197976 0.813470
C138  C     C_1   0.000006 0.078266 0.999960 -0.062909
C139  C     C_1   0.999996 0.921734 0.000042 -0.062917
C140  C     C_1   0.500003 0.578267 0.999958 -0.062727
C141  C     C_1   0.499993 0.421733 0.000039 -0.062762
C142  C     C_1   0.999995 0.888518 0.000041 -0.127067
C143  C     C_1   0.000007 0.111482 0.999960 -0.126991
C144  C     C_1   0.499993 0.388517 0.000039 -0.126906
H1    H     H_    0.766294 0.188653 0.966974 0.145905
H2    H     H_    0.736596 0.295093 0.909830 0.161041
H3    H     H_    0.799330 0.688646 0.033029 0.150206
H4    H     H_    0.263207 0.295065 0.090151 0.161418
H5    H     H_    0.763405 0.204908 0.090172 0.160954
H6    H     H_    0.236598 0.795095 0.909834 0.161061
H7    H     H_    0.236792 0.204935 0.909847 0.161333
H8    H     H_    0.700671 0.811353 0.966972 0.150293
H9    H     H_    0.844017 0.266551 0.122623 0.141785
H10   H     H_    0.155982 0.733452 0.877376 0.141855
H11   H     H_    0.155960 0.266562 0.877351 0.146024
H12   H     H_    0.233709 0.811346 0.033034 0.145863
H13   H     H_    0.826774 0.795084 0.090173 0.159169
H14   H     H_    0.344018 0.766548 0.122624 0.141765
H15   H     H_    0.655983 0.233449 0.877378 0.141909
H16   H     H_    0.673227 0.704915 0.909828 0.159294
H17   H     H_    0.344039 0.233438 0.122648 0.145981
H18   H     H_    0.667515 0.701651 0.430990 0.186770
H19   H     H_    0.339275 0.294568 0.569000 0.187156
H20   H     H_    0.344539 0.708865 0.569040 0.188338
H21   H     H_    0.654650 0.290551 0.430960 0.188322
H22   H     H_    0.160462 0.205561 0.430910 0.185448
H23   H     H_    0.233875 0.188632 0.032966 0.146969
H24   H     H_    0.832559 0.798311 0.569019 0.186496
H25   H     H_    0.845527 0.209578 0.568997 0.189473
H26   H     H_    0.155572 0.791238 0.430897 0.187284
H27   H     H_    0.954684 0.966099 0.056889 0.153758
H28   H     H_    0.045319 0.033901 0.943114 0.153837
H29   H     H_    0.045318 0.965964 0.943155 0.153750
H30   H     H_    0.954685 0.034036 0.056848 0.153706
H31   H     H_    0.464823 0.466098 0.067723 0.153749
H32   H     H_    0.535171 0.533902 0.932272 0.153700
H33   H     H_    0.535168 0.465969 0.932312 0.153641
H34   H     H_    0.721387 0.766561 0.877383 0.145754
H35   H     H_    0.464826 0.534031 0.067684 0.153648
H36   H     H_    0.840544 0.594295 0.954406 0.381464
H37   H     H_    0.159473 0.405681 0.045779 0.381390
H38   H     H_    0.151168 0.594379 0.177123 0.388100
H39   H     H_    0.848723 0.405749 0.822560 0.388182
H40   H     H_    0.339192 0.094363 0.949922 0.381556
H41   H     H_    0.660799 0.905676 0.049887 0.381679
H42   H     H_    0.649439 0.094263 0.179310 0.388232
H43   H     H_    0.350551 0.905682 0.820803 0.388214
H44   H     H_    0.815508 0.667031 0.605008 0.154458
H45   H     H_    0.266291 0.688654 0.966967 0.146140
H46   H     H_    0.740967 0.651350 0.521118 0.158146
H47   H     H_    0.757988 0.641865 0.609947 0.213764
H48   H     H_    0.269402 0.346557 0.476495 0.158238
H49   H     H_    0.194711 0.332469 0.390965 0.156634
H50   H     H_    0.256718 0.353945 0.389211 0.213136
H51   H     H_    0.373579 0.721629 0.477853 0.160153
H52   H     H_    0.313765 0.745940 0.393086 0.153008
H53   H     H_    0.338424 0.700171 0.389795 0.205151
H54   H     H_    0.685571 0.252833 0.606106 0.153057
H55   H     H_    0.625656 0.277369 0.521717 0.160461
H56   H     H_    0.733706 0.311347 0.033028 0.146106
H57   H     H_    0.660542 0.298377 0.610121 0.204979
H58   H     H_    0.299923 0.165097 0.599117 0.155828
H59   H     H_    0.220678 0.153321 0.517749 0.159007
H60   H     H_    0.240700 0.145748 0.608485 0.213154
H61   H     H_    0.760817 0.848757 0.479917 0.158373
H62   H     H_    0.685386 0.833380 0.396808 0.154331
H63   H     H_    0.742442 0.858191 0.390464 0.213964
H64   H     H_    0.872124 0.226011 0.474102 0.159227
H65   H     H_    0.808713 0.247039 0.386900 0.154115
H66   H     H_    0.838717 0.202089 0.388707 0.205106
H67   H     H_    0.778614 0.733438 0.122618 0.145728
H68   H     H_    0.180994 0.754304 0.600726 0.152389
H69   H     H_    0.124745 0.781402 0.518508 0.160839
H70   H     H_    0.160520 0.800440 0.608655 0.205053
H71   H     H_    0.266124 0.311369 0.967033 0.147086
H72   H     H_    0.263402 0.704905 0.090166 0.160972
O1    O     O_3   1.000000 0.750010 0.000000 -0.488578
O2    O     O_R   0.638650 0.771350 0.042690 -0.634889
O3    O     O_R   0.638650 0.228650 0.042690 -0.643957
O4    O     O_R   0.361350 0.771350 0.957310 -0.643822
O5    O     O_R   0.050700 0.771350 0.162940 -0.637624
O6    O     O_R   0.949300 0.228650 0.837060 -0.637309
O7    O     O_R   0.949300 0.771350 0.837060 -0.638525
O8    O     O_R   0.050700 0.228650 0.162940 -0.638361
O9    O     O_R   0.550700 0.271350 0.162940 -0.637244
O10   O     O_R   0.449300 0.728650 0.837060 -0.637729
O11   O     O_R   0.449300 0.271350 0.837060 -0.638554
O12   O     O_3   0.000000 0.249990 0.000000 -0.488540
O13   O     O_R   0.550700 0.728650 0.162940 -0.638632
O14   O     O_R   0.990570 0.831470 0.042720 -0.634604
O15   O     O_R   0.009430 0.168530 0.957280 -0.634344
O16   O     O_R   0.009430 0.831470 0.957280 -0.634164
O17   O     O_R   0.990570 0.168530 0.042720 -0.634174
O18   O     O_R   0.490570 0.331470 0.042720 -0.634441
O19   O     O_R   0.509430 0.668530 0.957280 -0.634586
O20   O     O_R   0.509430 0.331470 0.957280 -0.634163
O21   O     O_R   0.490570 0.668530 0.042720 -0.634199
O22   O     O_R   0.947900 0.668550 0.957290 -0.623852
O23   O     O_3   0.500000 0.250010 0.000000 -0.488560
O24   O     O_R   0.052100 0.331450 0.042710 -0.624473
O25   O     O_R   0.052100 0.668550 0.042710 -0.621435
O26   O     O_R   0.947900 0.331450 0.957290 -0.621212
O27   O     O_R   0.447900 0.168550 0.957290 -0.624113
O28   O     O_R   0.552100 0.831450 0.042710 -0.623697
O29   O     O_R   0.552100 0.168550 0.042710 -0.621459
O30   O     O_R   0.447900 0.831450 0.957290 -0.621566
O31   O     O_R   0.112210 0.728640 0.162920 -0.624569
O32   O     O_R   0.887790 0.271360 0.837080 -0.624450
O33   O     O_R   0.887790 0.728640 0.837080 -0.623158
O34   O     O_3   0.500000 0.749990 0.000000 -0.488633
O35   O     O_R   0.112210 0.271360 0.162920 -0.624089
O36   O     O_R   0.612210 0.228640 0.162920 -0.624830
O37   O     O_R   0.387790 0.771360 0.837080 -0.624248
O38   O     O_R   0.387790 0.228640 0.837080 -0.623567
O39   O     O_R   0.612210 0.771360 0.162920 -0.623088
O40   O     O_R   0.904050 0.771360 0.042740 -0.645809
O41   O     O_R   0.095950 0.228640 0.957260 -0.639408
O42   O     O_R   0.095950 0.771360 0.957260 -0.639698
O43   O     O_R   0.904050 0.228640 0.042740 -0.639792
O44   O     O_R   0.404050 0.271360 0.042740 -0.639398
O45   O     O_R   0.861350 0.728650 0.957310 -0.634791
O46   O     O_R   0.595950 0.728640 0.957260 -0.645759
O47   O     O_R   0.595950 0.271360 0.957260 -0.639666
O48   O     O_R   0.404050 0.728640 0.042740 -0.639669
O49   O     O_2   0.843459 0.558213 0.852299 -0.263621
O50   O     O_2   0.818726 0.519436 0.923213 -0.193535
O51   O     O_3   0.880399 0.579629 0.982739 -0.570633
O52   O     O_2   0.181289 0.480560 0.076882 -0.193546
O53   O     O_2   0.156544 0.441806 0.147811 -0.265240
O54   O     O_3   0.119633 0.420359 0.017399 -0.569718
O55   O     O_2   0.175076 0.519393 0.179091 -0.187664
O56   O     O_R   0.138650 0.271350 0.042690 -0.641300
O57   O     O_2   0.160508 0.558159 0.079945 -0.269345
O58   O     O_3   0.111500 0.579596 0.148665 -0.561122
O59   O     O_2   0.839491 0.441838 0.920085 -0.269062
O60   O     O_2   0.824935 0.480627 0.820971 -0.187847
O61   O     O_3   0.888498 0.420421 0.851356 -0.561165
O62   O     O_2   0.344570 0.058224 0.849639 -0.265294
O63   O     O_2   0.317708 0.019476 0.918606 -0.193615
O64   O     O_3   0.378951 0.079663 0.979124 -0.569594
O65   O     O_2   0.682266 0.980537 0.081306 -0.193599
O66   O     O_2   0.655425 0.941759 0.150257 -0.263942
O67   O     O_R   0.138650 0.728650 0.042690 -0.643941
O68   O     O_3   0.621014 0.920357 0.020740 -0.570518
O69   O     O_2   0.673533 0.019347 0.181709 -0.187740
O70   O     O_2   0.661144 0.058124 0.083737 -0.268822
O71   O     O_3   0.609745 0.079570 0.149800 -0.561541
O72   O     O_2   0.338835 0.941893 0.916258 -0.268916
O73   O     O_2   0.326449 0.980633 0.818245 -0.187841
O74   O     O_3   0.390223 0.920402 0.850209 -0.561575
O75   O     O_3   0.733139 0.695532 0.575835 -0.592507
O76   O     O_3   0.274628 0.300173 0.424344 -0.594210
O77   O     O_3   0.279617 0.703108 0.424287 -0.585537
O78   O     O_R   0.861350 0.271350 0.957310 -0.643866
O79   O     O_3   0.719477 0.296204 0.575747 -0.585635
O80   O     O_3   0.225457 0.199931 0.576015 -0.594542
O81   O     O_3   0.766861 0.804440 0.424112 -0.592740
O82   O     O_3   0.780798 0.203831 0.424496 -0.585256
O83   O     O_3   0.220547 0.796909 0.575921 -0.585928
O84   O     O_R   0.361350 0.228650 0.957310 -0.641372
S1    S     S_3+6 0.868147 0.543860 0.927765 0.090274
S2    S     S_3+6 0.131866 0.456141 0.072337 0.089684
S3    S     S_3+6 0.129173 0.543820 0.115190 0.092487
S4    S     S_3+6 0.870830 0.456188 0.884854 0.092461
S5    S     S_3+6 0.367817 0.043883 0.924670 0.089644
S6    S     S_3+6 0.632164 0.956121 0.075236 0.090142
S7    S     S_3+6 0.628463 0.043791 0.117401 0.092616
S8    S     S_3+6 0.371517 0.956201 0.882577 0.092575
Zn1   Zn    Zn3+2 0.074440 0.719490 0.061020 0.998299
Zn2   Zn    Zn3+2 0.013440 0.219480 0.938960 0.982942
Zn3   Zn    Zn3+2 0.013440 0.780520 0.938960 0.978588
Zn4   Zn    Zn3+2 0.986560 0.219480 0.061040 0.978623
Zn5   Zn    Zn3+2 0.486560 0.280520 0.061040 0.982810
Zn6   Zn    Zn3+2 0.513440 0.719480 0.938960 0.980637
Zn7   Zn    Zn3+2 0.513440 0.280520 0.938960 0.978756
Zn8   Zn    Zn3+2 0.486560 0.719480 0.061040 0.978628
Zn9   Zn    Zn3+2 0.925560 0.280510 0.938980 0.998568
Zn10  Zn    Zn3+2 0.925560 0.719490 0.938980 1.002331
Zn11  Zn    Zn3+2 0.074440 0.280510 0.061020 0.999611
Zn12  Zn    Zn3+2 0.574440 0.219490 0.061020 0.998241
Zn13  Zn    Zn3+2 0.425560 0.780510 0.938980 0.998617
Zn14  Zn    Zn3+2 0.425560 0.219490 0.938980 1.000114
Zn15  Zn    Zn3+2 0.574440 0.780510 0.061020 1.002291
Zn16  Zn    Zn3+2 0.986560 0.780520 0.061040 0.980529

loop_
_geom_bond_atom_site_label_1
_geom_bond_atom_site_label_2
_ccdc_geom_bond_type
C21   C26   S    
O49   S1    D    
C20   S5    S    
C135  O10   A    
O12   Zn9   S    
O55   S3    D    
C74   C83   A    
C123  O4    A    
C90   O44   A    
C89   O81   S    
C124  H31   S    
C77   H24   S    
O9    Zn5   S    
C48   H59   S    
C77   C89   A    
C4    O16   A    
C133  O9    A    
C138  C143  T    
C52   C61   S    
O31   Zn1   S    
O53   S2    D    
C139  C142  T    
C5    C143  S    
C54   C63   S    
C90   O84   A    
C54   C134  S    
C56   C57   S    
C34   C35   S    
C12   C16   A    
C50   H65   S    
O44   Zn5   S    
C5    O15   A    
C47   H54   S    
C76   H22   S    
O56   Zn11  S    
C80   H26   S    
C117  C126  A    
C88   C97   A    
C85   C103  S    
O78   Zn9   S    
C19   S6    S    
C18   C25   A    
C13   C41   S    
O21   Zn8   S    
C25   C29   S    
C63   H9    S    
C121  C128  A    
C141  C144  T    
C15   S2    S    
C82   C91   A    
O1    Zn1   S    
C80   C92   A    
C19   C23   A    
C102  C114  T    
O34   Zn8   S    
C12   S4    S    
C9    O24   A    
C40   H6    S    
C75   H21   S    
C37   H3    S    
C49   O81   S    
C133  O36   A    
C38   H4    S    
C137  O39   A    
C129  O5    A    
C28   C33   T    
O4    Zn13  S    
C83   C100  S    
C24   H34   S    
C113  C137  S    
O51   S1    S    
O12   Zn11  S    
C54   C79   S    
C129  O31   A    
C117  H29   S    
C6    O20   A    
C2    H12   S    
C71   H17   S    
C46   C60   S    
C10   O27   A    
C41   H7    S    
C8    O22   A    
C125  C138  S    
O74   S8    S    
H42   O71   S    
C79   O43   A    
O23   Zn12  S    
C50   O82   S    
O48   Zn8   S    
O24   Zn11  S    
C74   H20   S    
C38   C53   S    
C122  H32   S    
C39   C60   S    
C57   O41   A    
O45   Zn10  S    
C84   C93   A    
O17   Zn4   S    
H41   O68   S    
C86   C95   A    
C119  C126  A    
C2    C40   S    
O16   Zn3   S    
C49   H62   S    
C80   C88   A    
C81   C98   S    
C76   C85   A    
C104  C107  T    
C44   H48   S    
C119  H27   S    
C42   H8    S    
C39   C134  S    
C50   H64   S    
C78   C87   A    
O70   S7    D    
C84   C102  S    
O46   Zn6   S    
O84   Zn14  S    
C86   C104  S    
C120  C127  A    
C24   C70   S    
C17   C23   A    
O1    Zn3   S    
O27   Zn14  S    
C114  C133  S    
C75   C84   A    
O63   S5    D    
C45   H53   S    
C48   H58   S    
C91   O80   S    
C53   C62   S    
C122  C127  A    
O72   S8    D    
C59   C67   S    
O68   S6    S    
O25   Zn1   S    
C43   O75   S    
O1    Zn10  S    
C36   C46   S    
C95   O75   S    
O13   Zn8   S    
C47   O79   S    
O23   Zn7   S    
C48   O80   S    
C1    O40   A    
C13   C56   S    
C45   H52   S    
C6    O18   A    
C101  O46   A    
C87   C96   A    
C47   H55   S    
C101  O2    A    
O47   Zn7   S    
H39   O61   S    
C126  C139  S    
C92   O83   S    
C7    O21   A    
C11   C33   S    
C37   C52   S    
O59   S4    D    
C121  H33   S    
O6    Zn2   S    
O22   Zn10  S    
C61   C101  S    
O41   Zn2   S    
O29   Zn12  S    
O15   Zn2   S    
O43   Zn4   S    
C87   C105  S    
O37   Zn13  S    
C123  O48   A    
C99   C111  T    
C23   C28   S    
C35   C64   S    
O19   Zn6   S    
O62   S5    D    
C51   H70   S    
C116  C125  A    
C109  C129  S    
C127  C140  S    
C6    C144  S    
O3    Zn12  S    
O64   S5    S    
H40   O64   S    
C39   H5    S    
H38   O58   S    
C46   C63   S    
C68   O67   A    
O34   Zn6   S    
C96   O79   S    
C65   H11   S    
H43   O74   S    
C34   H72   S    
C117  C118  A    
C115  C135  S    
C8    O25   A    
C17   S8    S    
C69   H15   S    
C18   S7    S    
C70   H16   S    
O23   Zn5   S    
C36   C54   S    
C76   C91   A    
C38   C56   S    
C50   H66   S    
C53   H71   S    
C72   H18   S    
C14   C15   A    
C131  O7    A    
C66   H13   S    
C131  O33   A    
C132  O35   A    
C106  C109  T    
C61   C70   S    
C69   C134  S    
C24   C42   S    
C82   C99   S    
O34   Zn15  S    
O58   S3    S    
C51   O83   S    
C55   C68   S    
C73   H19   S    
C100  C115  T    
C44   H49   S    
C97   O77   S    
C73   C94   A    
C105  C110  T    
C35   H45   S    
C29   C32   T    
C3    C7    S    
O42   Zn3   S    
O66   S6    D    
C20   C25   A    
O35   Zn11  S    
O36   Zn12  S    
C17   C20   A    
C35   C59   S    
C18   C19   A    
O30   Zn13  S    
C51   H68   S    
O40   Zn16  S    
C43   H46   S    
O14   Zn16  S    
C16   S1    S    
C14   S3    S    
C118  C125  A    
C128  C141  S    
C72   C81   A    
C124  C128  A    
C81   C89   A    
C34   C55   S    
O10   Zn6   S    
O26   Zn9   S    
C37   C70   S    
C41   C62   S    
C75   C96   A    
C59   C123  S    
C7    O19   A    
C130  O6    A    
O52   S2    D    
C130  O32   A    
C98   C113  T    
C13   C71   S    
O20   Zn7   S    
C118  H28   S    
C10   O29   A    
C121  C122  A    
C137  O13   A    
C136  O11   A    
C49   H61   S    
C93   O82   S    
O5    Zn16  S    
O34   Zn13  S    
C73   C82   A    
C52   C66   S    
O69   S7    D    
C134  H1    S    
C48   H60   S    
C16   C22   A    
C132  O8    A    
C11   O30   A    
C120  H35   S    
O18   Zn5   S    
O71   S7    S    
C34   C67   S    
O67   Zn1   S    
C116  H30   S    
C8    C30   S    
C14   C22   A    
C43   H44   S    
C110  C130  S    
C111  C136  S    
C2    C55   S    
C112  O47   A    
C24   C58   S    
C45   H51   S    
O39   Zn15  S    
O54   S2    S    
O73   S8    D    
C83   C92   A    
C60   C69   S    
C136  O38   A    
C79   O78   A    
C13   H23   S    
C78   C93   A    
C56   C65   S    
C64   H10   S    
C47   H57   S    
O65   S6    D    
C72   C95   A    
C58   C66   S    
C49   H63   S    
C62   C71   S    
C52   H67   S    
C103  C108  T    
O12   Zn2   S    
C37   C58   S    
C51   H69   S    
C43   H47   S    
C26   C31   T    
C40   C59   S    
C5    O17   A    
O32   Zn9   S    
C27   C30   T    
C11   O28   A    
O7    Zn3   S    
O8    Zn4   S    
C9    O26   A    
C74   C97   A    
C108  C132  S    
O23   Zn14  S    
C94   O76   S    
C107  C131  S    
C2    C67   S    
O33   Zn10  S    
C41   C65   S    
C57   O56   A    
O1    Zn16  S    
C12   C21   A    
C78   H25   S    
C4    O14   A    
C60   C112  S    
C88   C106  S    
C85   C94   A    
O38   Zn14  S    
C46   H56   S    
C4    C142  S    
C55   C64   S    
O50   S1    D    
O11   Zn7   S    
C135  O37   A    
C42   C61   S    
O60   S4    D    
C1    O45   A    
C36   H2    S    
C77   C86   A    
H36   O51   S    
C53   C65   S    
C36   C69   S    
H37   O54   S    
C38   C71   S    
C44   O76   S    
O28   Zn15  S    
C45   O77   S    
O2    Zn15  S    
O57   S3    D    
C39   C63   S    
C44   H50   S    
C40   C64   S    
C116  C119  A    
C22   C27   S    
O61   S4    S    
C1    C58   S    
C68   O42   A    
C62   C90   S    
C112  O3    A    
C67   H14   S    
O12   Zn4   S    
C9    C31   S    
C10   C32   S    
C15   C21   A    
C42   C66   S    
C3    C140  T    
C120  C124  A    
