data_mof_unit_52469.cif
_audit_creation_date              2012-12-10T18:42:55-0500
_audit_creation_method            fapswitch 2.2
_symmetry_space_group_name_H-M    P1
_symmetry_Int_Tables_number       1
_space_group_crystal_system       triclinic
_cell_length_a                    18.068498
_cell_length_b                    18.100104
_cell_length_c                    18.119895
_cell_angle_alpha                 120.028304
_cell_angle_beta                  90.033345
_cell_angle_gamma                 60.026588
_cell_volume                      4191.39548538

loop_
_atom_site_label
_atom_site_type_symbol
_atom_type_description
_atom_site_fract_x
_atom_site_fract_y
_atom_site_fract_z
_atom_type_partial_charge
C1    C     C_R   0.891402 0.217180 0.608589 0.958225
C2    C     C_3   0.551602 0.896620 0.949632 -0.120537
C3    C     C_2   0.436735 0.932107 0.080595 0.361460
C4    C     C_2   0.491086 0.924085 0.822598 0.465119
C5    C     C_2   0.507958 0.073141 0.178342 0.415903
C6    C     C_3   0.307173 0.998307 0.970792 0.119097
C7    C     C_3   0.225671 0.031996 0.939427 -0.824519
C8    C     C_3   0.688472 0.002756 0.047563 0.133469
C9    C     C_3   0.783440 0.968065 0.009004 -0.832876
C10   C     C_2   0.183765 0.375034 0.483336 0.390396
C11   C     C_2   0.815084 0.623731 0.515915 0.373036
C12   C     C_3   0.112743 0.227622 0.342891 0.143788
C13   C     C_3   0.414718 0.033539 0.003334 0.414921
C14   C     C_3   0.163047 0.119194 0.322782 -0.851385
C15   C     C_3   0.871558 0.775244 0.647887 0.131644
C16   C     C_3   0.870787 0.872107 0.706277 -0.832561
C17   C     C_2   0.968700 0.419592 0.331259 0.362640
C18   C     C_2   0.029103 0.583805 0.668869 0.394915
C19   C     C_3   0.584980 0.966306 0.997439 0.426965
C20   C     C_3   0.025980 0.402782 0.463426 0.400100
C21   C     C_3   0.973135 0.597719 0.536420 0.400891
C22   C     C_3   0.086965 0.441664 0.491314 -0.188523
C23   C     C_3   0.912043 0.558934 0.508609 -0.199808
C24   C     C_3   0.049588 0.500335 0.446538 -0.108227
C25   C     C_3   0.949668 0.500226 0.553374 -0.107924
C26   C     C_3   0.988497 0.460841 0.418234 -0.156488
C27   C     C_R   0.108767 0.782812 0.391408 0.957922
C28   C     C_3   0.010696 0.539594 0.581442 -0.151482
C29   C     C_3   0.981965 0.034133 0.447610 0.419663
C30   C     C_3   0.018543 0.965823 0.552298 0.418002
C31   C     C_R   0.608643 0.782820 0.892130 0.962657
C32   C     C_R   0.391324 0.217145 0.107833 0.981450
C33   C     C_3   0.955837 0.965538 0.448899 -0.185244
C34   C     C_3   0.044549 0.034490 0.551113 -0.184472
C35   C     C_3   0.052090 0.896702 0.448175 -0.101487
C36   C     C_3   0.948351 0.103274 0.551812 -0.102843
C37   C     C_3   0.078067 0.965630 0.446828 -0.177843
C38   C     C_3   0.536941 0.399283 0.431447 -0.246351
C39   C     C_3   0.922436 0.034352 0.553218 -0.180426
C40   C     C_3   0.985036 0.428242 0.981167 0.351444
C41   C     C_3   0.014815 0.571983 0.018932 0.351538
C42   C     C_3   0.957777 0.523253 0.076722 0.320642
C43   C     C_3   0.042094 0.476942 0.923368 0.320087
C44   C     C_3   0.052394 0.499142 0.050690 -0.196646
C45   C     C_3   0.947486 0.501039 0.949403 -0.196129
C46   C     C_3   0.079517 0.403693 0.954353 -0.262917
C47   C     C_3   0.920345 0.596492 0.045730 -0.260714
C48   C     C_3   0.585533 0.417652 0.969108 0.348808
C49   C     C_3   0.463350 0.601750 0.568635 -0.240607
C50   C     C_3   0.414630 0.582137 0.030843 0.348914
C51   C     C_3   0.504475 0.411994 0.951556 0.306504
C52   C     C_3   0.495695 0.587772 0.048404 0.305730
C53   C     C_3   0.448942 0.500482 0.052606 -0.200001
C54   C     C_3   0.551188 0.499329 0.947345 -0.200585
C55   C     C_R   0.608473 0.499839 0.891217 0.970354
C56   C     C_R   0.391548 0.500122 0.108767 0.968293
C57   C     C_3   0.530682 0.506193 0.069999 -0.245982
C58   C     C_3   0.469470 0.493570 0.929947 -0.245917
C59   C     C_R   0.893165 0.498560 0.608972 0.952613
C60   C     C_3   0.495445 0.964181 0.916414 -0.214683
C61   C     C_R   0.106640 0.501607 0.391025 0.949153
C62   C     C_R   0.891433 0.499991 0.891471 0.966801
C63   C     C_R   0.108524 0.500060 0.108563 0.966395
C64   C     C_R   0.608421 0.501510 0.608740 0.976386
C65   C     C_R   0.391634 0.498806 0.391283 0.976007
C66   C     C_3   0.583588 0.455590 0.450662 0.345043
C67   C     C_3   0.416580 0.545535 0.549471 0.344189
C68   C     C_3   0.496773 0.553113 0.467009 0.304644
C69   C     C_3   0.503372 0.447927 0.533023 0.300527
C70   C     C_3   0.449336 0.497380 0.447618 -0.199550
C71   C     C_3   0.504310 0.035693 0.084485 -0.216822
C72   C     C_3   0.550849 0.503561 0.552399 -0.197150
C73   C     C_3   0.534137 0.655094 0.459564 0.172489
C74   C     C_3   0.561165 0.669961 0.391193 -0.808236
C75   C     C_3   0.465790 0.346008 0.540216 0.170131
C76   C     C_3   0.438647 0.331005 0.608423 -0.806408
C77   C     C_2   0.903564 0.930558 0.393889 0.383083
C78   C     C_2   0.096504 0.069465 0.606705 0.389565
C79   C     C_3   0.001192 0.002052 0.305450 0.117472
C80   C     C_3   0.958049 0.050364 0.255236 -0.824129
C81   C     C_3   0.997576 0.998260 0.694554 0.125649
C82   C     C_3   0.529302 0.033475 0.963918 -0.142451
C83   C     C_3   0.048052 0.955790 0.746158 -0.823617
C84   C     C_2   0.164961 0.930274 0.390813 0.356498
C85   C     C_2   0.835897 0.069600 0.609761 0.358093
C86   C     C_3   0.831487 0.570385 0.169267 0.151330
C87   C     C_3   0.807386 0.548162 0.232754 -0.813588
C88   C     C_3   0.168289 0.429926 0.830780 0.150372
C89   C     C_3   0.192202 0.452277 0.767310 -0.813616
C90   C     C_3   0.007666 0.296453 0.991847 0.155180
C91   C     C_3   0.960144 0.247714 0.994226 -0.845984
C92   C     C_3   0.992229 0.703634 0.007987 0.155028
C93   C     C_3   0.470493 0.966130 0.036715 -0.170406
C94   C     C_3   0.039078 0.753404 0.006612 -0.847958
C95   C     C_2   0.166833 0.296801 0.902531 0.374826
C96   C     C_2   0.832964 0.703320 0.097533 0.371958
C97   C     C_3   0.556335 0.256896 0.813259 0.157002
C98   C     C_3   0.593282 0.143876 0.773644 -0.772997
C99   C     C_3   0.444108 0.742601 0.186817 0.162371
C100  C     C_3   0.407266 0.855603 0.226614 -0.783987
C101  C     C_3   0.692433 0.271412 0.963888 0.160915
C102  C     C_3   0.779310 0.162865 0.899392 -0.855024
C103  C     C_3   0.307811 0.728479 0.036198 0.158581
C104  C     C_3   0.448161 0.103271 0.051053 -0.118254
C105  C     C_3   0.220871 0.836960 0.100670 -0.856839
C106  C     C_2   0.566668 0.513100 0.146127 0.358272
C107  C     C_2   0.433504 0.486576 0.853795 0.358354
C108  C     C_3   0.687651 0.370478 0.313083 0.156090
C109  C     C_3   0.769122 0.360891 0.274288 -0.854870
C110  C     C_3   0.312645 0.631025 0.687213 0.153436
C111  C     C_3   0.230647 0.641758 0.726524 -0.850860
C112  C     C_2   0.581446 0.286163 0.357392 0.385674
C113  C     C_2   0.420499 0.714581 0.642630 0.375842
C114  C     C_2   0.565104 0.066246 0.920283 0.413053
H1    H     H_    0.596563 0.610420 0.471750 0.189087
H2    H     H_    0.499316 0.284708 0.621219 0.265832
H3    H     H_    0.209958 0.059889 0.251882 0.200108
H4    H     H_    0.202818 0.114462 0.368965 0.255309
H5    H     H_    0.865978 0.749291 0.690636 0.162455
H6    H     H_    0.811203 0.797400 0.625809 0.155287
H7    H     H_    0.874005 0.901900 0.666556 0.258483
H8    H     H_    0.807564 0.933956 0.765650 0.199713
H9    H     H_    0.929828 0.852955 0.730503 0.256118
H10   H     H_    0.924938 0.393552 0.324191 0.074247
H11   H     H_    0.070425 0.612930 0.676259 0.081855
H12   H     H_    0.837068 0.988426 0.400242 0.083548
H13   H     H_    0.162871 0.011594 0.600564 0.083515
H14   H     H_    0.996370 0.935323 0.281740 0.165899
H15   H     H_    0.073557 0.972573 0.287765 0.149024
H16   H     H_    0.963172 0.116324 0.276234 0.267107
H17   H     H_    0.993365 0.991004 0.181287 0.199301
H18   H     H_    0.885510 0.079736 0.270412 0.257697
H19   H     H_    0.928803 0.016733 0.710953 0.149561
H20   H     H_    0.991509 0.071532 0.718278 0.166426
H21   H     H_    0.486471 0.733411 0.523620 0.151768
H22   H     H_    0.116122 0.940308 0.733985 0.252491
H23   H     H_    0.009640 0.013411 0.819683 0.199265
H24   H     H_    0.056083 0.881950 0.723569 0.269474
H25   H     H_    0.174083 0.987922 0.397523 0.078378
H26   H     H_    0.826796 0.011880 0.602893 0.070476
H27   H     H_    0.822592 0.525476 0.104409 0.168692
H28   H     H_    0.783199 0.655132 0.199935 0.146893
H29   H     H_    0.813432 0.593241 0.299227 0.265906
H30   H     H_    0.736689 0.571136 0.242963 0.188901
H31   H     H_    0.853428 0.463508 0.203241 0.267310
H32   H     H_    0.500430 0.716265 0.378470 0.265770
H33   H     H_    0.216679 0.345190 0.800108 0.147795
H34   H     H_    0.177152 0.474894 0.895639 0.168521
H35   H     H_    0.146131 0.536960 0.796920 0.267339
H36   H     H_    0.262912 0.429285 0.756957 0.189243
H37   H     H_    0.186019 0.407298 0.700891 0.265744
H38   H     H_    0.007812 0.343276 0.061371 0.205302
H39   H     H_    0.078642 0.232428 0.945803 0.150487
H40   H     H_    0.961519 0.197536 0.925148 0.260931
H41   H     H_    0.994877 0.199290 0.019774 0.206629
H42   H     H_    0.888577 0.309829 0.039439 0.256721
H43   H     H_    0.593855 0.711758 0.417390 0.205428
H44   H     H_    0.920899 0.767147 0.053284 0.147854
H45   H     H_    0.993092 0.656303 0.938102 0.205812
H46   H     H_    0.111059 0.691871 0.962451 0.257819
H47   H     H_    0.004811 0.801038 0.980271 0.208840
H48   H     H_    0.036281 0.804597 0.076119 0.259306
H49   H     H_    0.175941 0.236854 0.835763 0.099470
H50   H     H_    0.823820 0.763319 0.164290 0.100056
H51   H     H_    0.614833 0.259463 0.799590 0.201772
H52   H     H_    0.510416 0.282149 0.777528 0.137754
H53   H     H_    0.536769 0.137059 0.782971 0.274365
H54   H     H_    0.609870 0.592752 0.326706 0.258167
H55   H     H_    0.631059 0.094103 0.700257 0.198334
H56   H     H_    0.640085 0.115709 0.807462 0.252665
H57   H     H_    0.490133 0.717140 0.222384 0.137255
H58   H     H_    0.385572 0.740100 0.200517 0.201827
H59   H     H_    0.360903 0.883587 0.192445 0.255020
H60   H     H_    0.369074 0.905397 0.299893 0.199181
H61   H     H_    0.463842 0.862468 0.217737 0.270948
H62   H     H_    0.636609 0.262445 0.970273 0.199087
H63   H     H_    0.701010 0.307626 0.030913 0.136037
H64   H     H_    0.837337 0.168371 0.894218 0.260120
H65   H     H_    0.513395 0.267766 0.476070 0.148786
H66   H     H_    0.792123 0.114230 0.924529 0.207514
H67   H     H_    0.773388 0.124857 0.831242 0.258502
H68   H     H_    0.299367 0.692284 0.969097 0.135975
H69   H     H_    0.363602 0.737548 0.030011 0.197984
H70   H     H_    0.226699 0.875002 0.168869 0.259397
H71   H     H_    0.208051 0.885634 0.075581 0.203861
H72   H     H_    0.162909 0.831308 0.105688 0.261203
H73   H     H_    0.626463 0.513544 0.147555 0.068905
H74   H     H_    0.373745 0.486061 0.852351 0.069204
H75   H     H_    0.628733 0.419628 0.300258 0.205127
H76   H     H_    0.403384 0.390844 0.528098 0.188863
H77   H     H_    0.702760 0.291113 0.276564 0.142190
H78   H     H_    0.830481 0.308072 0.281862 0.261993
H79   H     H_    0.780947 0.328431 0.201390 0.205139
H80   H     H_    0.756822 0.438916 0.310365 0.256596
H81   H     H_    0.298265 0.710037 0.723394 0.139540
H82   H     H_    0.371371 0.581537 0.699977 0.204592
H83   H     H_    0.242326 0.564065 0.690906 0.256189
H84   H     H_    0.218816 0.674593 0.799487 0.204463
H85   H     H_    0.169523 0.694716 0.718819 0.261613
H86   H     H_    0.641942 0.227195 0.357798 0.072373
H87   H     H_    0.389827 0.408173 0.672908 0.258324
H88   H     H_    0.357107 0.774110 0.646088 0.077357
H89   H     H_    0.624873 0.007257 0.860251 0.085959
H90   H     H_    0.378465 0.990525 0.142013 0.068487
H91   H     H_    0.426007 0.953546 0.812233 0.100758
H92   H     H_    0.556932 0.017831 0.190760 0.081661
H93   H     H_    0.291181 0.989304 0.023722 0.142182
H94   H     H_    0.365596 0.921015 0.911847 0.156731
H95   H     H_    0.239414 0.041826 0.886351 0.254288
H96   H     H_    0.211476 0.971864 0.911142 0.204372
H97   H     H_    0.165292 0.107232 0.997371 0.259105
H98   H     H_    0.406036 0.289137 0.582028 0.204250
H99   H     H_    0.680883 0.014859 0.114290 0.160193
H100  H     H_    0.639350 0.078780 0.057660 0.161416
H101  H     H_    0.792461 0.957055 0.942783 0.250182
H102  H     H_    0.794146 0.028284 0.056122 0.205523
H103  H     H_    0.834502 0.893242 0.999476 0.263540
H104  H     H_    0.199979 0.337796 0.518432 0.080033
H105  H     H_    0.798306 0.659447 0.479499 0.072513
H106  H     H_    0.163910 0.241384 0.331489 0.157904
H107  H     H_    0.075192 0.228605 0.294499 0.144928
H108  H     H_    0.114079 0.102080 0.332018 0.267643
O1    O     O_3   0.750010 0.499980 0.749990 -0.568084
O2    O     O_R   0.305750 0.265450 0.132730 -0.603132
O3    O     O_R   0.867280 0.265410 0.571220 -0.613715
O4    O     O_R   0.132720 0.734590 0.428780 -0.614149
O5    O     O_R   0.571230 0.734580 0.867270 -0.617749
O6    O     O_R   0.428770 0.265420 0.132730 -0.604601
O7    O     O_R   0.694200 0.438470 0.867270 -0.608064
O8    O     O_R   0.305800 0.561530 0.132730 -0.608393
O9    O     O_R   0.867340 0.561470 0.694210 -0.606029
O10   O     O_R   0.132660 0.438530 0.305790 -0.606325
O11   O     O_R   0.867310 0.438430 0.867270 -0.609503
O12   O     O_3   0.249990 0.500020 0.250010 -0.569204
O13   O     O_R   0.132690 0.561570 0.132730 -0.609889
O14   O     O_R   0.694200 0.438520 0.571220 -0.611138
O15   O     O_R   0.305800 0.561480 0.428780 -0.611039
O16   O     O_R   0.867340 0.561440 0.867270 -0.597046
O17   O     O_R   0.132660 0.438560 0.132730 -0.596465
O18   O     O_R   0.571190 0.561530 0.694210 -0.600724
O19   O     O_R   0.428810 0.438470 0.305790 -0.594408
O20   O     O_3   0.490703 0.604183 0.426203 -0.598620
O21   O     O_3   0.509321 0.396787 0.573719 -0.598067
O22   O     O_2   0.934916 0.837955 0.342252 -0.572597
O23   O     O_R   0.571190 0.561490 0.867270 -0.601317
O24   O     O_2   0.065023 0.162077 0.658602 -0.572619
O25   O     O_3   0.956300 0.079432 0.399157 -0.585424
O26   O     O_3   0.044736 0.921041 0.601106 -0.584447
O27   O     O_2   0.225498 0.837567 0.338090 -0.576191
O28   O     O_2   0.775594 0.162290 0.663050 -0.575809
O29   O     O_3   0.920608 0.543832 0.158765 -0.585586
O30   O     O_3   0.079227 0.456295 0.841276 -0.586398
O31   O     O_3   0.962488 0.356983 0.958756 -0.583992
O32   O     O_3   0.037177 0.643429 0.041434 -0.583778
O33   O     O_2   0.227666 0.276573 0.934529 -0.565049
O34   O     O_R   0.428810 0.438510 0.132730 -0.602436
O35   O     O_2   0.772105 0.723423 0.065548 -0.571091
O36   O     O_3   0.507263 0.319984 0.906380 -0.590783
O37   O     O_3   0.492973 0.679734 0.093667 -0.590604
O38   O     O_3   0.677358 0.331569 0.930404 -0.578469
O39   O     O_3   0.322821 0.668234 0.069562 -0.577873
O40   O     O_2   0.529362 0.518611 0.206537 -0.552450
O41   O     O_2   0.470790 0.481074 0.793379 -0.552787
O42   O     O_3   0.673116 0.412963 0.405899 -0.587114
O43   O     O_3   0.327068 0.588274 0.594373 -0.586045
O44   O     O_2   0.550931 0.259650 0.296529 -0.537788
O45   O     O_R   0.867310 0.438490 0.571220 -0.606218
O46   O     O_2   0.456170 0.740250 0.698596 -0.567766
O47   O     O_2   0.527846 0.158338 0.951533 -0.552034
O48   O     O_2   0.474122 0.839713 0.048208 -0.539005
O49   O     O_2   0.560671 0.860186 0.757711 -0.551370
O50   O     O_2   0.455190 0.164805 0.241108 -0.525394
O51   O     O_3   0.323265 0.076400 0.007699 -0.578769
O52   O     O_3   0.677376 0.923539 0.988374 -0.582310
O53   O     O_2   0.244313 0.362347 0.437898 -0.565357
O54   O     O_2   0.755055 0.636506 0.562148 -0.553985
O55   O     O_3   0.051219 0.301858 0.432199 -0.599799
O56   O     O_R   0.132690 0.561510 0.428780 -0.604158
O57   O     O_3   0.951069 0.698355 0.571366 -0.599799
O58   O     O_2   0.000101 0.415826 0.268973 -0.532092
O59   O     O_2   0.999067 0.586793 0.731257 -0.536803
O60   O     O_R   0.867280 0.265380 0.694210 -0.598749
O61   O     O_R   0.132720 0.734620 0.305790 -0.598653
O62   O     O_R   0.694250 0.734550 0.867270 -0.594854
Zn1   Zn    Zn3+2 0.618190 0.587870 0.793920 1.082191
Zn2   Zn    Zn3+2 0.381810 0.412130 0.206080 1.092899
Zn3   Zn    Zn3+2 0.793940 0.412090 0.793920 1.078083
Zn4   Zn    Zn3+2 0.206060 0.587910 0.206080 1.076922
Zn5   Zn    Zn3+2 0.793970 0.587840 0.793920 1.095296
Zn6   Zn    Zn3+2 0.206030 0.412160 0.206080 1.092540
Zn7   Zn    Zn3+2 0.793940 0.412130 0.618200 1.078667
Zn8   Zn    Zn3+2 0.206060 0.587870 0.381800 1.080751

loop_
_geom_bond_atom_site_label_1
_geom_bond_atom_site_label_2
_ccdc_geom_bond_type
C105  H72   S    
C49   C113  S    
C79   H14   S    
C38   C70   S    
C101  C102  S    
C80   H18   S    
C49   C68   S    
O1    Zn7   S    
C77   O22   D    
C102  H66   S    
C73   C74   S    
C55   O7    A    
C19   C71   S    
O45   Zn7   S    
C10   O53   D    
C71   C104  S    
C59   O9    A    
C74   H54   S    
C97   C98   S    
C20   C22   S    
C4    H91   S    
C13   C60   S    
C23   C25   S    
C108  C109  S    
C25   C28   S    
C40   C46   S    
O17   Zn6   S    
C29   C36   S    
C10   H104  S    
C43   C46   S    
C33   C39   S    
C3    O48   D    
C30   O26   S    
C30   C35   S    
C92   H45   S    
C103  H69   S    
C17   C26   S    
C90   H39   S    
C35   C37   S    
C16   H9    S    
C24   C26   S    
C106  H73   S    
C64   O14   A    
C8    H100  S    
C21   O57   S    
C111  H84   S    
O10   Zn6   S    
C1    O60   A    
C67   O43   S    
C2    C60   S    
C110  H81   S    
C19   O52   S    
C99   H57   S    
C20   C25   S    
C109  H78   S    
C1    O3    A    
C97   H52   S    
C103  H68   S    
C101  O38   S    
C29   C33   S    
C45   C62   S    
C106  O40   D    
C61   O10   A    
C15   H6    S    
C92   H44   S    
C58   C107  S    
C61   O56   A    
C23   C26   S    
C105  H71   S    
C6    O51   S    
C16   H8    S    
C110  C111  S    
C111  H85   S    
C5    H92   S    
O1    Zn1   S    
C98   H55   S    
C60   C82   S    
C43   O30   S    
C48   C51   S    
C66   C72   S    
C46   C95   S    
C38   C66   S    
C84   H25   S    
C15   H5    S    
C8    C9    S    
C14   H4    S    
C49   C72   S    
C30   C39   S    
C50   C52   S    
C47   C96   S    
C32   C104  S    
C37   C84   S    
C109  H79   S    
C27   O61   A    
O12   Zn8   S    
O19   Zn2   S    
C19   C82   S    
C75   H65   S    
C94   H48   S    
C6    H94   S    
C98   H53   S    
O1    Zn5   S    
C13   O51   S    
C88   O30   S    
C76   H98   S    
C4    O49   D    
C89   H35   S    
C57   C106  S    
C2    C19   S    
C38   C69   S    
O60   Zn3   S    
C44   C63   S    
C62   O11   A    
C22   C28   S    
C3    H90   S    
C29   O25   S    
C81   O26   S    
C65   O15   A    
C95   O33   D    
C42   C44   S    
C66   O42   S    
C78   H13   S    
C7    H95   S    
C34   C36   S    
C32   O2    A    
O16   Zn5   S    
C52   C54   S    
C97   O36   S    
O8    Zn4   S    
C45   C47   S    
C9    H102  S    
C41   C47   S    
C40   C45   S    
C11   O54   D    
C50   C53   S    
C80   H16   S    
O18   Zn1   S    
C30   C34   S    
O23   Zn1   S    
C50   C58   S    
C73   H21   S    
C81   H20   S    
C75   H76   S    
C18   C28   S    
C20   O55   S    
C82   C114  S    
C91   H40   S    
C3    C93   S    
C8    H99   S    
C68   O20   S    
C53   C57   S    
C76   H87   S    
C96   O35   D    
C99   H58   S    
C44   C46   S    
O3    Zn7   S    
O12   Zn2   S    
C52   O37   S    
C65   O19   A    
C107  H74   S    
C36   C39   S    
C110  H82   S    
C9    H101  S    
C96   H50   S    
C13   C93   S    
C2    C31   S    
C67   C69   S    
C79   O25   S    
C31   O5    A    
C69   C72   S    
C48   C54   S    
C75   C76   S    
C32   O6    A    
C91   H41   S    
C95   H49   S    
C17   H10   S    
O4    Zn8   S    
C99   C100  S    
C94   H47   S    
C99   O37   S    
C14   H3    S    
C76   H2    S    
C4    C60   S    
C100  H61   S    
C92   C94   S    
O13   Zn4   S    
C103  O39   S    
C110  O43   S    
O34   Zn2   S    
C109  H80   S    
C103  C105  S    
C51   C58   S    
C113  H88   S    
C13   C104  S    
C81   H19   S    
C43   C45   S    
C85   H26   S    
C6    H93   S    
C86   C87   S    
C24   C61   S    
O1    Zn3   S    
C40   O31   S    
C90   H38   S    
C89   H36   S    
C21   C28   S    
C14   H108  S    
C42   O29   S    
O12   Zn6   S    
O12   Zn4   S    
C21   C23   S    
C75   O21   S    
C100  H60   S    
C87   H30   S    
C41   C44   S    
C22   C24   S    
C108  H75   S    
C21   C24   S    
C39   C85   S    
C38   C112  S    
C114  O47   D    
C11   H105  S    
C83   H23   S    
C7    H96   S    
C86   H28   S    
C71   C93   S    
C54   C58   S    
C53   C56   S    
C9    H103  S    
C86   O29   S    
C16   H7    S    
C102  H64   S    
C54   C55   S    
C48   O38   S    
C5    O50   D    
C94   H46   S    
C87   H31   S    
C74   H43   S    
C84   O27   D    
O61   Zn4   S    
C102  H67   S    
C86   H27   S    
C74   H32   S    
C2    C93   S    
C69   O21   S    
C41   C43   S    
C12   C14   S    
C40   C42   S    
O15   Zn8   S    
C62   O16   A    
C81   C83   S    
C7    H97   S    
C15   O57   S    
C27   O4    A    
C49   C67   S    
C6    C7    S    
C56   O8    A    
C66   C68   S    
C111  H83   S    
O56   Zn8   S    
C73   H1    S    
C59   O45   A    
C1    C36   S    
C67   C70   S    
C27   C35   S    
C79   H15   S    
C56   O34   A    
C31   O62   A    
C113  O46   D    
C91   H42   S    
C5    C71   S    
C73   O20   S    
C63   O17   A    
C88   H34   S    
C33   C77   S    
C90   C91   S    
O11   Zn3   S    
C18   O59   D    
C20   C26   S    
C97   H51   S    
C15   C16   S    
C41   O32   S    
C11   C23   S    
C18   H11   S    
C33   C35   S    
C88   H33   S    
O2    Zn6   S    
C51   O36   S    
C108  O42   S    
C34   C37   S    
C90   O31   S    
C42   C47   S    
C64   C72   S    
C105  H70   S    
C78   O24   D    
O14   Zn7   S    
C8    O52   S    
C12   H107  S    
C64   O18   A    
C17   O58   D    
C101  H63   S    
C52   C57   S    
C108  H77   S    
C63   O13   A    
C79   C80   S    
C98   H56   S    
O6    Zn2   S    
C10   C22   S    
C85   O28   D    
C48   C57   S    
C87   H29   S    
C88   C89   S    
O7    Zn3   S    
C68   C70   S    
C55   O23   A    
C89   H37   S    
C29   C37   S    
C100  H59   S    
C80   H17   S    
C112  O44   D    
C82   C104  S    
C114  H89   S    
C101  H62   S    
C107  O41   D    
C25   C59   S    
O5    Zn1   S    
C51   C53   S    
O62   Zn5   S    
C12   H106  S    
C12   O55   S    
C112  H86   S    
C83   H24   S    
C34   C78   S    
C77   H12   S    
C65   C70   S    
O9    Zn5   S    
C92   O32   S    
C50   O39   S    
C83   H22   S    
