data_mof_unit_65979.cif
_audit_creation_date              2012-12-10T19:02:41-0500
_audit_creation_method            fapswitch 2.2
_symmetry_space_group_name_H-M    P1
_symmetry_Int_Tables_number       1
_space_group_crystal_system       triclinic
_cell_length_a                    19.305664
_cell_length_b                    14.256398
_cell_length_c                    13.365008
_cell_angle_alpha                 90.001169
_cell_angle_beta                  89.999962
_cell_angle_gamma                 90.0
_cell_volume                      3678.44085518

loop_
_atom_site_label
_atom_site_type_symbol
_atom_type_description
_atom_site_fract_x
_atom_site_fract_y
_atom_site_fract_z
_atom_type_partial_charge
C1    C     C_1   0.500002 0.500000 0.049526 0.005244
C2    C     C_R   0.500010 0.673456 0.500000 0.939829
C3    C     C_R   0.363697 0.500000 0.500000 0.999341
C4    C     C_R   0.636312 0.500000 0.500000 1.001742
C5    C     C_1   0.499995 0.225910 0.499998 -0.167616
C6    C     C_1   0.499995 0.774090 0.500001 -0.167616
C7    C     C_1   0.499983 0.141344 0.499998 0.036678
C8    C     C_1   0.499983 0.858656 0.500002 0.036678
C9    C     C_1   0.499976 0.042284 0.499999 0.051809
C10   C     C_1   0.499976 0.957716 0.500001 0.051809
C11   C     C_R   0.252806 0.558389 0.567414 0.050780
C12   C     C_1   0.500002 0.500000 0.950474 0.005244
C13   C     C_R   0.747266 0.557145 0.431475 0.076386
C14   C     C_R   0.747266 0.442855 0.568525 0.076386
C15   C     C_R   0.252806 0.441611 0.432586 0.050780
C16   C     C_R   0.180677 0.550048 0.575340 0.289751
C17   C     C_R   0.819328 0.548431 0.423536 0.374027
C18   C     C_R   0.819328 0.451569 0.576464 0.374027
C19   C     C_R   0.180677 0.449952 0.424660 0.289750
C20   C     C_R   0.144692 0.500000 0.500000 -0.239010
C21   C     C_R   0.855361 0.500000 0.500000 -0.288972
C22   C     C_R   0.288584 0.500000 0.500000 -0.261418
C23   C     C_R   0.711427 0.500000 0.500000 -0.317116
C24   C     C_R   0.930424 0.500000 0.500000 0.463364
C25   C     C_R   0.069536 0.500000 0.500000 0.446877
C26   C     C_1   0.500001 0.500000 0.169415 0.147704
C27   C     C_1   0.500001 0.500000 0.830585 0.147704
C28   C     C_R   0.500010 0.326544 0.499999 0.939829
H1    H     H_    0.151725 0.741459 0.630766 0.364697
H2    H     H_    0.905551 0.730730 0.277754 0.405405
H3    H     H_    0.905551 0.269270 0.722245 0.405405
H4    H     H_    0.151725 0.258541 0.369234 0.364696
I1    I     I_    0.307597 0.666949 0.646680 -0.216737
I2    I     I_    0.693129 0.664716 0.349833 -0.143424
I3    I     I_    0.693129 0.335284 0.650167 -0.143425
I4    I     I_    0.307597 0.333051 0.353320 -0.216737
N1    N     N_1   0.500000 0.500000 0.261870 -0.050972
N2    N     N_1   0.500000 0.500000 0.738130 -0.050972
N3    N     N_R   0.034316 0.417846 0.500714 -0.070187
N4    N     N_R   0.965623 0.582169 0.500063 -0.060932
N5    N     N_R   0.965623 0.417831 0.499937 -0.060932
N6    N     N_R   0.034316 0.582153 0.499286 -0.070187
O1    O     O_R   0.500000 0.373710 0.576470 -0.596281
O2    O     O_2   0.182108 0.601831 0.771498 -0.205024
O3    O     O_3   0.109559 0.707985 0.653173 -0.466781
O4    O     O_2   0.928972 0.542900 0.295470 -0.229942
O5    O     O_2   0.817678 0.588676 0.225636 -0.220638
O6    O     O_3   0.881759 0.708631 0.339039 -0.499687
O7    O     O_2   0.928972 0.457100 0.704530 -0.229942
O8    O     O_2   0.817678 0.411324 0.774364 -0.220638
O9    O     O_3   0.881759 0.291369 0.660960 -0.499688
O10   O     O_2   0.073901 0.459699 0.293365 -0.189228
O11   O     O_2   0.182108 0.398169 0.228502 -0.205023
O12   O     O_R   0.500000 0.626290 0.423530 -0.596281
O13   O     O_3   0.109560 0.292015 0.346827 -0.466780
O14   O     O_R   0.500000 0.626290 0.576470 -0.593099
O15   O     O_R   0.500000 0.373710 0.423530 -0.593099
O16   O     O_R   0.398140 0.500000 0.576480 -0.593688
O17   O     O_R   0.601860 0.500000 0.423520 -0.596446
O18   O     O_R   0.601860 0.500000 0.576480 -0.596446
O19   O     O_R   0.398140 0.500000 0.423520 -0.593688
O20   O     O_2   0.073901 0.540300 0.706635 -0.189228
S1    S     S_3+6 0.136181 0.598699 0.680791 0.118938
S2    S     S_3+6 0.863068 0.595370 0.316729 0.102745
S3    S     S_3+6 0.863068 0.404630 0.683271 0.102745
S4    S     S_3+6 0.136181 0.401301 0.319209 0.118938
Zn1   Zn    Zn3+2 0.500000 0.500000 0.602090 1.034286
Zn2   Zn    Zn3+2 0.500000 0.500000 0.397910 1.034286

loop_
_geom_bond_atom_site_label_1
_geom_bond_atom_site_label_2
_ccdc_geom_bond_type
C25   N6    A    
C14   C23   A    
O5    S2    D    
N1    Zn2   S    
C26   N1    T    
O20   S1    D    
C24   N5    A    
C16   S1    S    
H3    O9    S    
O17   Zn2   S    
O14   Zn1   S    
C9    C10   T    
C14   C18   A    
C28   O1    A    
C19   C20   A    
C13   C17   A    
C16   C20   A    
C4    O18   A    
N4    N6    A    
C13   I2    S    
N3    N5    A    
C2    O14   A    
C28   O15   A    
C25   N3    A    
C18   S3    S    
C15   C19   A    
O11   S4    D    
O19   Zn2   S    
C2    C6    S    
C1    C12   T    
O7    S3    D    
C4    O17   A    
H2    O6    S    
O15   Zn2   S    
C24   N4    A    
C5    C7    T    
C3    O19   A    
O2    S1    D    
C2    O12   A    
C1    C26   S    
O8    S3    D    
O6    S2    S    
C11   C16   A    
O12   Zn2   S    
C20   C25   S    
C27   N2    T    
C5    C28   S    
C3    O16   A    
O16   Zn1   S    
C11   I1    S    
O13   S4    S    
O10   S4    D    
N2    Zn1   S    
C13   C23   A    
C19   S4    S    
C8    C10   S    
O9    S3    S    
C21   C24   S    
O4    S2    D    
C14   I3    S    
C7    C9    S    
C4    C23   S    
C18   C21   A    
C12   C27   S    
C11   C22   A    
O1    Zn1   S    
C6    C8    T    
C17   S2    S    
H4    O13   S    
C15   I4    S    
O3    S1    S    
C15   C22   A    
C17   C21   A    
O18   Zn1   S    
H1    O3    S    
C3    C22   S    
