data_mof_unit_13554.cif
_audit_creation_date              2012-10-26T18:43:53-0400
_audit_creation_method            fapswitch 2.2
_symmetry_space_group_name_H-M    P1
_symmetry_Int_Tables_number       1
_space_group_crystal_system       triclinic
_cell_length_a                    9.53281
_cell_length_b                    10.832125
_cell_length_c                    17.402803
_cell_angle_alpha                 90.158427
_cell_angle_beta                  86.547667
_cell_angle_gamma                 90.0203
_cell_volume                      1793.75564517

loop_
_atom_site_label
_atom_site_type_symbol
_atom_type_description
_atom_site_fract_x
_atom_site_fract_y
_atom_site_fract_z
_atom_type_partial_charge
C1    C     C_R   0.500152 0.737616 0.498970 0.550547
C2    C     C_R   0.523847 0.487071 0.266511 0.016992
C3    C     C_R   0.374537 0.935924 0.496398 0.028484
C4    C     C_R   0.482583 0.495285 0.649669 0.537219
C5    C     C_R   0.500762 0.870559 0.492307 0.008563
C6    C     C_R   0.627445 0.935339 0.478756 -0.164255
C7    C     C_R   0.627180 0.063942 0.479106 -0.168334
C8    C     C_R   0.500445 0.128855 0.492848 0.004317
C9    C     C_R   0.374215 0.063116 0.496552 0.021043
C10   C     C_3   0.253588 0.068596 0.555421 -0.275418
C11   C     C_3   0.254126 0.928603 0.555126 -0.269545
C12   C     C_R   0.355556 0.532703 0.775248 -0.149442
C13   C     C_R   0.933391 0.458030 0.437423 0.160040
C14   C     C_R   0.919152 0.554607 0.557785 -0.001497
C15   C     C_R   0.068119 0.554442 0.557867 -0.013853
C16   C     C_R   0.500058 0.262198 0.499197 0.540944
C17   C     C_R   0.080784 0.458866 0.437183 0.156593
C18   C     C_3   0.092029 0.333754 0.401791 -0.277104
C19   C     C_3   0.932653 0.331674 0.403343 -0.278131
C20   C     C_R   0.517474 0.498083 0.350271 0.546813
C21   C     C_R   0.475189 0.486727 0.733796 0.005045
C22   C     C_R   0.588390 0.438816 0.773868 -0.022515
C23   C     C_R   0.401792 0.474593 0.148931 -0.111295
C24   C     C_R   0.581521 0.444511 0.853998 -0.105726
C25   C     C_R   0.461940 0.491277 0.895105 0.030608
C26   C     C_R   0.349119 0.534926 0.855204 -0.123982
C27   C     C_R   0.714185 0.379854 0.734907 0.046532
C28   C     C_R   0.849285 0.424681 0.747658 -0.114688
C29   C     C_R   0.967949 0.368513 0.711802 -0.120875
C30   C     C_R   0.952752 0.267674 0.662841 -0.099419
C31   C     C_R   0.819066 0.221643 0.650342 -0.096782
C32   C     C_R   0.700044 0.276760 0.686668 -0.046031
C33   C     C_R   0.399026 0.492833 0.227815 -0.132831
C34   C     C_R   0.651758 0.463059 0.225077 -0.130948
C35   C     C_R   0.654295 0.444176 0.145876 -0.115968
C36   C     C_R   0.529664 0.451223 0.107496 0.043010
C37   C     C_2   0.453518 0.500081 0.979534 -0.134181
C38   C     C_2   0.535320 0.433870 0.024081 -0.137051
Cu1   Cu    Cu3+1 0.359330 0.500020 0.500000 0.930974
Cu2   Cu    Cu3+1 0.640670 0.499980 0.500000 0.942804
H1    H     H_    0.753569 0.425489 0.114375 0.099706
H2    H     H_    0.142539 0.336406 0.342563 0.123261
H3    H     H_    0.298636 0.509936 0.258505 0.123716
H4    H     H_    0.136280 0.264376 0.440314 0.151421
H5    H     H_    0.891128 0.330611 0.345055 0.119841
H6    H     H_    0.885946 0.262490 0.444098 0.140425
H7    H     H_    0.749114 0.457147 0.253840 0.117593
H8    H     H_    0.612165 0.368775 0.999896 0.113427
H9    H     H_    0.256283 0.572062 0.886001 0.100734
H10   H     H_    0.303628 0.476746 0.120743 0.101302
H11   H     H_    0.268071 0.569918 0.745782 0.111018
H12   H     H_    0.726994 0.887311 0.471271 0.135057
H13   H     H_    0.378104 0.565058 0.005843 0.117344
H14   H     H_    0.671430 0.412846 0.883346 0.099982
H15   H     H_    0.862551 0.503651 0.784839 0.095243
H16   H     H_    0.071676 0.403781 0.721447 0.111619
H17   H     H_    0.044695 0.225249 0.634808 0.105350
H18   H     H_    0.807740 0.143025 0.612723 0.098349
H19   H     H_    0.597019 0.239737 0.676921 0.093063
H20   H     H_    0.726483 0.111604 0.471974 0.119541
H21   H     H_    0.282950 0.109570 0.610893 0.131380
H22   H     H_    0.157578 0.107530 0.531771 0.121982
H23   H     H_    0.284072 0.887847 0.610403 0.130844
H24   H     H_    0.158965 0.887810 0.531175 0.137229
H25   H     H_    0.858224 0.596813 0.605240 0.122511
H26   H     H_    0.118467 0.596523 0.605429 0.108721
N1    N     N_R   0.852130 0.499070 0.499500 -0.229474
N2    N     N_R   0.148040 0.499110 0.499500 -0.232707
O1    O     O_R   0.381190 0.680360 0.500000 -0.498219
O2    O     O_R   0.618770 0.680320 0.499990 -0.509496
O3    O     O_R   0.367430 0.500040 0.613600 -0.520192
O4    O     O_R   0.605020 0.500000 0.613590 -0.497497
O5    O     O_R   0.381230 0.319680 0.500010 -0.502691
O6    O     O_R   0.618810 0.319640 0.500000 -0.508599
O7    O     O_R   0.394980 0.500000 0.386410 -0.506653
O8    O     O_R   0.632570 0.499960 0.386400 -0.505785

loop_
_geom_bond_atom_site_label_1
_geom_bond_atom_site_label_2
_ccdc_geom_bond_type
Cu1   N2    S    
C35   C36   A    
C19   H6    S    
C7    C8    A    
C29   C30   A    
Cu2   O2    S    
C1    C5    S    
C31   H18   S    
C28   C29   A    
C18   C19   S    
C11   H23   S    
C18   H2    S    
C30   C31   A    
C24   H14   S    
C30   H17   S    
C20   O8    A    
C34   C35   A    
C25   C37   S    
C8    C9    A    
C23   C33   A    
Cu2   N1    S    
C14   N1    A    
Cu1   O7    S    
C9    C10   S    
C38   H8    S    
C37   H13   S    
C2    C34   A    
C8    C16   S    
C21   C22   A    
C10   H22   S    
C28   H15   S    
C13   C19   S    
C2    C20   S    
C16   O5    A    
C33   H3    S    
C24   C25   A    
C11   H24   S    
C26   H9    S    
Cu1   Cu2   S    
C23   H10   S    
C25   C26   A    
C15   H26   S    
C12   C21   A    
C1    O1    A    
Cu2   O8    S    
C20   O7    A    
C12   C26   A    
C37   C38   D    
C3    C9    A    
C18   H4    S    
C31   C32   A    
C17   C18   S    
Cu1   O1    S    
C2    C33   A    
C22   C27   S    
C16   O6    A    
C10   H21   S    
C7    H20   S    
C4    O4    A    
C12   H11   S    
C13   N1    A    
C17   N2    A    
Cu2   O4    S    
C27   C32   A    
C3    C5    A    
C19   H5    S    
C6    C7    A    
C29   H16   S    
C1    O2    A    
C13   C17   A    
C36   C38   S    
C4    C21   S    
C5    C6    A    
C15   N2    A    
C14   H25   S    
Cu2   O6    S    
C22   C24   A    
Cu1   O5    S    
C35   H1    S    
C3    C11   S    
C10   C11   S    
C23   C36   A    
C27   C28   A    
Cu1   O3    S    
C14   C15   A    
C34   H7    S    
C32   H19   S    
C6    H12   S    
C4    O3    A    
