data_mof_unit_55930.cif
_audit_creation_date              2012-12-10T19:09:21-0500
_audit_creation_method            fapswitch 2.2
_symmetry_space_group_name_H-M    P1
_symmetry_Int_Tables_number       1
_space_group_crystal_system       triclinic
_cell_length_a                    15.107792
_cell_length_b                    15.000217
_cell_length_c                    9.698434
_cell_angle_alpha                 90.077548
_cell_angle_beta                  90.00079
_cell_angle_gamma                 90.000037
_cell_volume                      2197.85863591

loop_
_atom_site_label
_atom_site_type_symbol
_atom_type_description
_atom_site_fract_x
_atom_site_fract_y
_atom_site_fract_z
_atom_type_partial_charge
C1    C     C_R   0.120777 0.378358 0.500169 0.989012
C2    C     C_R   0.878723 0.621204 0.500398 0.966862
C3    C     C_R   0.378747 0.878774 0.499601 0.967103
C4    C     C_R   0.378727 0.121208 0.500398 0.966909
C5    C     C_3   0.846780 0.224463 0.567403 0.498758
C6    C     C_3   0.781536 0.289589 0.347390 0.439005
C7    C     C_3   0.846824 0.775593 0.432985 0.498473
C8    C     C_3   0.781295 0.710170 0.652587 0.438629
C9    C     C_3   0.346776 0.724467 0.567429 0.498849
C10   C     C_3   0.281551 0.789574 0.347389 0.438974
C11   C     C_3   0.346814 0.275581 0.432908 0.498515
C12   C     C_R   0.120799 0.621622 0.499831 0.988815
C13   C     C_3   0.281342 0.210217 0.652592 0.438709
C14   C     C_3   0.275778 0.651096 0.561223 0.281582
C15   C     C_3   0.207562 0.720799 0.348368 0.353984
C16   C     C_3   0.275802 0.348939 0.439100 0.281553
C17   C     C_3   0.207360 0.279000 0.651597 0.354345
C18   C     C_3   0.775776 0.151096 0.561217 0.281609
C19   C     C_3   0.707554 0.220806 0.348368 0.353990
C20   C     C_3   0.775809 0.848947 0.439174 0.281537
C21   C     C_3   0.707313 0.778954 0.651588 0.354438
C22   C     C_3   0.729297 0.344320 0.580194 -0.657080
C23   C     C_R   0.620772 0.878354 0.500169 0.989080
C24   C     C_3   0.729359 0.655749 0.419446 -0.656971
C25   C     C_3   0.229291 0.844324 0.580171 -0.657102
C26   C     C_3   0.229347 0.155736 0.419515 -0.657000
C27   C     C_3   0.810859 0.310412 0.498196 -0.254748
C28   C     C_3   0.810819 0.689551 0.501805 -0.254462
C29   C     C_3   0.310861 0.810411 0.498198 -0.254780
C30   C     C_3   0.310826 0.189558 0.501804 -0.254512
C31   C     C_3   0.189035 0.689817 0.499035 -0.281019
C32   C     C_3   0.188999 0.310150 0.500963 -0.281019
C33   C     C_3   0.689033 0.189820 0.499036 -0.281024
C34   C     C_R   0.620797 0.121623 0.499831 0.988843
C35   C     C_3   0.688991 0.810143 0.500962 -0.281037
C36   C     C_3   0.158297 0.771247 0.585260 -0.234889
C37   C     C_3   0.158352 0.228814 0.414441 -0.234936
C38   C     C_3   0.658297 0.271247 0.585268 -0.234892
C39   C     C_3   0.658366 0.728828 0.414374 -0.234943
C40   C     C_3   0.045204 0.420611 0.081269 0.401593
C41   C     C_3   0.044204 0.420030 0.918469 0.444451
C42   C     C_3   0.045198 0.579393 0.918733 0.401657
C43   C     C_3   0.044197 0.579974 0.081533 0.444515
C44   C     C_3   0.545211 0.920616 0.081269 0.401591
C45   C     C_3   0.907329 0.499428 0.081205 -0.294280
C46   C     C_3   0.544212 0.920035 0.918469 0.444445
C47   C     C_3   0.545190 0.079397 0.918733 0.401652
C48   C     C_3   0.544189 0.079979 0.081533 0.444525
C49   C     C_3   0.907329 0.500563 0.918790 -0.294267
C50   C     C_3   0.407329 0.999420 0.081205 -0.294281
C51   C     C_3   0.407329 0.000554 0.918790 -0.294270
C52   C     C_R   0.878746 0.378775 0.499601 0.967065
F1    F     F_    0.923403 0.195324 0.502826 -0.606947
F2    F     F_    0.131966 0.757699 0.290261 -0.580361
F3    F     F_    0.261817 0.382391 0.307533 -0.644302
F4    F     F_    0.131695 0.242052 0.709408 -0.580098
F5    F     F_    0.761661 0.117784 0.692835 -0.644260
F6    F     F_    0.631955 0.257699 0.290264 -0.580337
F7    F     F_    0.761854 0.882429 0.307617 -0.644304
F8    F     F_    0.631632 0.741992 0.709327 -0.580052
F9    F     F_    0.007369 0.343201 0.132366 -0.510117
F10   F     F_    0.003918 0.343147 0.869649 -0.513303
F11   F     F_    0.007360 0.656799 0.867631 -0.509952
F12   F     F_    0.851888 0.257320 0.269805 -0.556906
F13   F     F_    0.003901 0.656853 0.130348 -0.513284
F14   F     F_    0.507383 0.843202 0.132366 -0.510153
F15   F     F_    0.503934 0.843148 0.869649 -0.513308
F16   F     F_    0.507344 0.156800 0.867631 -0.509966
F17   F     F_    0.503887 0.156853 0.130348 -0.513285
F18   F     F_    0.923355 0.804653 0.497909 -0.607217
F19   F     F_    0.851536 0.742342 0.730514 -0.556955
F20   F     F_    0.423413 0.695330 0.502887 -0.606897
F21   F     F_    0.351907 0.757292 0.269831 -0.556933
F22   F     F_    0.423365 0.304656 0.497761 -0.607194
F23   F     F_    0.351604 0.242408 0.730453 -0.556936
F24   F     F_    0.261658 0.617775 0.692836 -0.644259
H1    H     H_    0.863620 0.238769 0.677021 0.200170
H2    H     H_    0.227670 0.662789 0.283705 0.149401
H3    H     H_    0.299384 0.404956 0.505013 0.148707
H4    H     H_    0.227409 0.336932 0.716473 0.149377
H5    H     H_    0.799425 0.095010 0.495502 0.148742
H6    H     H_    0.727667 0.162799 0.283703 0.149411
H7    H     H_    0.799373 0.904950 0.505132 0.148728
H8    H     H_    0.727346 0.836868 0.716513 0.149377
H9    H     H_    0.748263 0.362759 0.687451 0.240034
H10   H     H_    0.701671 0.405110 0.530382 0.223651
H11   H     H_    0.748459 0.637452 0.312190 0.240120
H12   H     H_    0.757381 0.351698 0.296959 0.136118
H13   H     H_    0.701671 0.594893 0.468977 0.223647
H14   H     H_    0.248250 0.862781 0.687425 0.240014
H15   H     H_    0.201665 0.905105 0.530333 0.223670
H16   H     H_    0.248420 0.137410 0.312259 0.240105
H17   H     H_    0.201671 0.094893 0.469100 0.223651
H18   H     H_    0.146712 0.751517 0.694395 0.267144
H19   H     H_    0.094784 0.797876 0.544591 0.288365
H20   H     H_    0.146882 0.248662 0.305329 0.267082
H21   H     H_    0.094796 0.202136 0.454867 0.288413
H22   H     H_    0.646705 0.251514 0.694400 0.267149
H23   H     H_    0.863811 0.761431 0.323380 0.200136
H24   H     H_    0.594787 0.297882 0.544596 0.288366
H25   H     H_    0.646923 0.748704 0.305266 0.267072
H26   H     H_    0.594799 0.702141 0.454743 0.288424
H27   H     H_    0.115262 0.420971 0.116640 0.085127
H28   H     H_    0.113805 0.418608 0.881171 0.054392
H29   H     H_    0.115257 0.579037 0.883368 0.085333
H30   H     H_    0.113798 0.581405 0.118837 0.054651
H31   H     H_    0.615270 0.920982 0.116641 0.085076
H32   H     H_    0.613813 0.918620 0.881171 0.054326
H33   H     H_    0.615249 0.079049 0.883368 0.085336
H34   H     H_    0.757080 0.647989 0.702737 0.135978
H35   H     H_    0.613790 0.081416 0.118836 0.054657
H36   H     H_    0.870972 0.439634 0.118209 0.236242
H37   H     H_    0.869675 0.442150 0.879483 0.216133
H38   H     H_    0.870967 0.560354 0.881784 0.236434
H39   H     H_    0.869671 0.557839 0.120510 0.216162
H40   H     H_    0.370978 0.939622 0.118209 0.236233
H41   H     H_    0.369681 0.942137 0.879484 0.216138
H42   H     H_    0.370962 0.060342 0.881784 0.236383
H43   H     H_    0.369665 0.057826 0.120510 0.216155
H44   H     H_    0.363596 0.738781 0.677052 0.200157
H45   H     H_    0.257406 0.851680 0.296936 0.136133
H46   H     H_    0.363770 0.261392 0.323300 0.200143
H47   H     H_    0.257139 0.148050 0.702799 0.136009
H48   H     H_    0.299433 0.595015 0.495504 0.148722
N1    N     N_3   0.998760 0.500000 0.138610 -0.205823
N2    N     N_3   0.998760 0.500000 0.861390 -0.205829
N3    N     N_3   0.498760 1.000000 0.138610 -0.205817
N4    N     N_3   0.498760 1.000000 0.861390 -0.205815
O1    O     O_R   0.092530 0.407440 0.616040 -0.597666
O2    O     O_R   0.907330 0.407420 0.383960 -0.567380
O3    O     O_R   0.907330 0.592580 0.383960 -0.617978
O4    O     O_R   0.907330 0.592580 0.616040 -0.567043
O5    O     O_R   0.407330 0.907420 0.616040 -0.617959
O6    O     O_R   0.407330 0.907420 0.383960 -0.567412
O7    O     O_R   0.407330 0.092580 0.383960 -0.617965
O8    O     O_R   0.407330 0.092580 0.616040 -0.567103
O9    O     O_R   0.092530 0.407440 0.383960 -0.566366
O10   O     O_R   0.092530 0.592560 0.383960 -0.597457
O11   O     O_R   0.092530 0.592560 0.616040 -0.566262
O12   O     O_R   0.592530 0.907440 0.616040 -0.597704
O13   O     O_R   0.592530 0.907440 0.383960 -0.566381
O14   O     O_R   0.592530 0.092560 0.383960 -0.597452
O15   O     O_R   0.592530 0.092560 0.616040 -0.566277
O16   O     O_R   0.907330 0.407420 0.616040 -0.617966
Zn1   Zn    Zn3+2 0.999890 0.500000 0.654960 1.067660
Zn2   Zn    Zn3+2 0.999890 0.500000 0.345040 1.067561
Zn3   Zn    Zn3+2 0.499890 1.000000 0.654960 1.067648
Zn4   Zn    Zn3+2 0.499890 0.000000 0.345040 1.067565

loop_
_geom_bond_atom_site_label_1
_geom_bond_atom_site_label_2
_ccdc_geom_bond_type
C49   H37   S    
C44   N3    S    
O2    Zn2   S    
C44   F14   S    
C36   H19   S    
C9    F20   S    
C14   C31   S    
C38   H22   S    
C10   H45   S    
C24   H13   S    
C43   N1    S    
C7    F18   S    
C37   H21   S    
C45   H36   S    
C47   N4    S    
O15   Zn3   S    
C6    C19   S    
C25   H14   S    
C52   O16   A    
C7    H23   S    
O4    Zn1   S    
C5    F1    S    
C1    O1    A    
N1    Zn2   S    
C13   H47   S    
C10   F21   S    
C15   H2    S    
C26   H16   S    
C22   C38   S    
C18   H5    S    
C6    H12   S    
O3    Zn2   S    
C42   H29   S    
C22   H9    S    
C6    F12   S    
C3    C29   S    
O13   Zn4   S    
C5    C27   S    
C20   C35   S    
C34   O14   A    
C13   F23   S    
C11   C30   S    
C45   N1    S    
C46   H32   S    
C47   C48   S    
C2    O4    A    
O5    Zn3   S    
C19   H6    S    
C48   F17   S    
O1    Zn1   S    
C9    C29   S    
N3    Zn4   S    
C4    O8    A    
C26   H17   S    
C49   H38   S    
C41   F10   S    
O12   Zn3   S    
C18   C33   S    
N2    Zn1   S    
C44   C46   S    
C39   H25   S    
C19   F6    S    
C25   C29   S    
C34   O15   A    
C25   H15   S    
C14   H48   S    
C50   H43   S    
C15   F2    S    
O14   Zn4   S    
C13   C30   S    
C21   F8    S    
C38   H24   S    
C19   C33   S    
C42   N2    S    
C5    C18   S    
C50   C51   S    
C47   H33   S    
C7    C20   S    
C17   H4    S    
C40   F9    S    
C37   H20   S    
C3    O5    A    
C43   H30   S    
C14   F24   S    
C35   C39   S    
C9    C14   S    
C49   N2    S    
C8    H34   S    
C11   C16   S    
C45   H39   S    
C18   F5    S    
C6    C27   S    
C21   H8    S    
C45   C49   S    
C43   F13   S    
C2    O3    A    
C12   O11   A    
C26   C37   S    
C32   C37   S    
C20   F7    S    
C23   O12   A    
C17   F4    S    
C4    O7    A    
C40   C41   S    
C26   C30   S    
C23   C35   S    
C22   C27   S    
C12   C31   S    
C8    C28   S    
C12   O10   A    
C11   H46   S    
C42   C43   S    
C51   N4    S    
C5    H1    S    
C47   F16   S    
C1    O9    A    
C27   C52   S    
C39   H26   S    
C44   H31   S    
C46   N4    S    
C9    H44   S    
O11   Zn1   S    
C8    F19   S    
C41   N2    S    
C24   C28   S    
O16   Zn1   S    
C11   F22   S    
C8    C21   S    
N4    Zn3   S    
C15   C31   S    
C21   C35   S    
C16   C32   S    
O6    Zn4   S    
C33   C38   S    
C41   H28   S    
C13   C17   S    
C10   C15   S    
C3    O6    A    
C52   O2    A    
O9    Zn2   S    
C16   H3    S    
C16   F3    S    
C46   F15   S    
C48   N3    S    
C10   C29   S    
O10   Zn2   S    
C40   N1    S    
C42   F11   S    
C51   H41   S    
C33   C34   S    
C50   H40   S    
C22   H10   S    
C24   H11   S    
O8    Zn3   S    
C7    C28   S    
C25   C36   S    
C51   H42   S    
C36   H18   S    
C1    C32   S    
C48   H35   S    
O7    Zn4   S    
C20   H7    S    
C17   C32   S    
C31   C36   S    
C23   O13   A    
C2    C28   S    
C50   N3    S    
C24   C39   S    
C4    C30   S    
C40   H27   S    
