data_mof_unit_31602.cif
_audit_creation_date              2013-03-05T16:12:06-0500
_audit_creation_method            fapswitch 2.2
_symmetry_space_group_name_H-M    P1
_symmetry_Int_Tables_number       1
_space_group_crystal_system       triclinic
_cell_length_a                    9.877936
_cell_length_b                    10.67773
_cell_length_c                    16.887689
_cell_angle_alpha                 90.867573
_cell_angle_beta                  85.437081
_cell_angle_gamma                 90.807547
_cell_volume                      1775.21356849

loop_
_atom_site_label
_atom_site_type_symbol
_atom_site_description
_atom_site_fract_x
_atom_site_fract_y
_atom_site_fract_z
_atom_type_partial_charge
O1    O     O_R   0.385380 0.683250 0.500010 -0.640630
O2    O     O_R   0.614620 0.316750 0.499990 -0.643453
O3    O     O_R   0.614710 0.683220 0.500000 -0.575399
O4    O     O_R   0.385290 0.316780 0.500000 -0.570096
C1    C     C_R   0.500633 0.739942 0.500483 0.875684
C2    C     C_R   0.499385 0.260061 0.499580 0.871012
O5    O     O_R   0.371780 0.500040 0.615800 -0.577036
O6    O     O_R   0.628220 0.499960 0.384200 -0.581005
O7    O     O_R   0.601110 0.500010 0.615800 -0.580299
O8    O     O_R   0.398890 0.499990 0.384200 -0.591997
C3    C     C_R   0.480990 0.498721 0.653081 0.899749
C4    C     C_R   0.518764 0.494748 0.346912 0.900049
Zn1   Zn    Zn3+2 0.346870 0.500020 0.500000 1.023434
Zn2   Zn    Zn3+2 0.653130 0.499980 0.500000 1.021229
C5    C     C_R   0.468353 0.482933 0.739016 -0.165771
C6    C     C_R   0.529089 0.458290 0.262824 -0.155291
C7    C     C_R   0.587138 0.474483 0.778762 -0.238763
C8    C     C_R   0.410774 0.414836 0.230109 -0.227585
C9    C     C_R   0.579591 0.444492 0.858345 -0.151337
C10   C     C_R   0.416850 0.363069 0.154728 -0.158794
C11   C     C_R   0.452933 0.421165 0.899204 0.121569
C12   C     C_R   0.539703 0.363637 0.107591 0.124539
C13   C     C_R   0.333868 0.434228 0.861039 -0.262305
C14   C     C_R   0.659282 0.404234 0.139499 -0.269633
C15   C     C_R   0.339947 0.466788 0.781373 0.522958
C16   C     C_R   0.655904 0.448926 0.218063 0.522013
C17   C     C_2   0.440671 0.396834 0.983967 -0.190200
C18   C     C_2   0.540244 0.346168 0.021770 -0.193034
H1    H     H_    0.686580 0.489161 0.748179 0.208343
H2    H     H_    0.312327 0.420165 0.262634 0.221512
H3    H     H_    0.631729 0.311549 0.989289 0.150503
H4    H     H_    0.350568 0.433494 0.016964 0.149733
H5    H     H_    0.235647 0.418644 0.893033 0.149382
H6    H     H_    0.753676 0.407809 0.102178 0.144060
H7    H     H_    0.323659 0.329053 0.131732 0.148300
H8    H     H_    0.672944 0.441817 0.887674 0.145399
C19   C     C_R   0.615835 0.936635 0.468551 -0.107372
C20   C     C_R   0.384444 0.063400 0.531842 -0.104440
H9    H     H_    0.704650 0.887806 0.442949 0.189043
H10   H     H_    0.295827 0.112248 0.557669 0.193373
C21   C     C_R   0.614748 0.064977 0.467618 -0.167888
C22   C     C_R   0.385435 0.935054 0.532657 -0.170220
H11   H     H_    0.703299 0.115019 0.441716 0.162830
H12   H     H_    0.296878 0.885014 0.558549 0.165052
C23   C     C_R   0.498984 0.127592 0.499235 -0.031850
C24   C     C_R   0.501145 0.872429 0.500978 -0.034670
C25   C     C_R   0.929165 0.399663 0.471260 -0.217592
C26   C     C_R   0.070568 0.600112 0.529264 -0.201278
H13   H     H_    0.875757 0.320047 0.447674 0.177972
H14   H     H_    0.123754 0.679199 0.553673 0.178790
C27   C     C_R   0.072369 0.398552 0.471230 0.364350
C28   C     C_R   0.927034 0.600313 0.530363 0.365617
N1    N     N_R   0.142790 0.500030 0.500020 -0.146028
N2    N     N_R   0.857210 0.499970 0.499980 -0.147782
O9    O     O_3   0.773113 0.495832 0.248107 -0.595785
C29   C     C_3   0.862281 0.396274 0.258318 -0.247395
H15   H     H_    0.811730 0.320358 0.294849 0.151714
H16   H     H_    0.948573 0.432691 0.290486 0.196082
H17   H     H_    0.905128 0.358084 0.200204 0.148409
O10   O     O_3   0.220486 0.471883 0.744142 -0.590069
C30   C     C_3   0.164673 0.591853 0.757587 -0.266690
H18   H     H_    0.071294 0.597499 0.725445 0.204774
H19   H     H_    0.236009 0.666616 0.734067 0.153963
H20   H     H_    0.135270 0.608743 0.821811 0.151492
N3    N     N_R   0.141103 0.288868 0.441106 0.211026
O11   O     O_R   0.225388 0.296241 0.378307 -0.413450
O12   O     O_R   0.094790 0.179098 0.463195 -0.408555
N4    N     N_R   0.856632 0.705721 0.565683 0.211449
O13   O     O_R   0.898633 0.818299 0.547030 -0.408914
O14   O     O_R   0.776077 0.690682 0.629583 -0.392795

loop_
_geom_bond_atom_site_label_1
_geom_bond_atom_site_label_2
_geom_bond_distance
_ccdc_geom_bond_type
C30   H20   1.112955 S    
O5    C3    1.291931 A    
O7    Zn2   1.982042 S    
C5    C7    1.401978 A    
C8    H2    1.079923 S    
C15   O10   1.382628 S    
C29   H16   1.109424 S    
C25   H13   1.081759 S    
C7    H1    1.083318 S    
C1    C24   1.414491 S    
C22   C24   1.397556 A    
C8    C10   1.377376 A    
C30   H18   1.109633 S    
C28   N4    1.428965 S    
C29   H17   1.111408 S    
C26   C28   1.416496 A    
O6    C4    1.293907 A    
C16   O9    1.384979 S    
O9    C29   1.411279 S    
C26   H14   1.081884 S    
C11   C17   1.453957 S    
C19   H9    1.083592 S    
C12   C18   1.458056 S    
C20   H10   1.083400 S    
C21   H11   1.083972 S    
O2    C2    1.282125 A    
O3    Zn2   1.998297 S    
C22   H12   1.083940 S    
C25   N2    1.355899 A    
O1    C1    1.282372 A    
C6    C16   1.414631 A    
O8    C4    1.297669 A    
O4    C2    1.286418 A    
C9    C11   1.400900 A    
C14   C16   1.401193 A    
C20   C22   1.370906 A    
Zn1   N1    2.015864 S    
C9    H8    1.081807 S    
O7    C3    1.298223 A    
C11   C13   1.395013 A    
C19   C21   1.370932 A    
C26   N1    1.358048 A    
O2    Zn2   1.987848 S    
C12   C14   1.397592 A    
C5    C15   1.415419 A    
O1    Zn1   1.987848 S    
C10   C12   1.397366 A    
C2    C23   1.414340 S    
Zn2   N2    2.015865 S    
O3    C1    1.286200 A    
O5    Zn1   1.990337 S    
C13   C15   1.391133 A    
C29   H15   1.114330 S    
C13   H5    1.084303 S    
C6    C8    1.402172 A    
N3    O11   1.297803 A    
C27   N3    1.428579 S    
C17   C18   1.339039 D    
C30   H19   1.113912 S    
N4    O14   1.299410 A    
C21   C23   1.397604 A    
C19   C24   1.394319 A    
O10   C30   1.409849 S    
C20   C23   1.394124 A    
C25   C27   1.414736 A    
N3    O12   1.301241 A    
O6    Zn2   1.990337 S    
C7    C9    1.382317 A    
C17   H4    1.086384 S    
C10   H7    1.083196 S    
C3    C5    1.458809 S    
C18   H3    1.085627 S    
C14   H6    1.083668 S    
C4    C6    1.462809 S    
O4    Zn1   1.998297 S    
C28   N2    1.380501 A    
N4    O13   1.301141 A    
C27   N1    1.382377 A    
O8    Zn1   1.982042 S    
