data_mof_unit_48504.cif
_audit_creation_date              2012-12-10T21:00:41-0500
_audit_creation_method            fapswitch 2.2
_symmetry_space_group_name_H-M    P1
_symmetry_Int_Tables_number       1
_space_group_crystal_system       triclinic
_cell_length_a                    18.120571
_cell_length_b                    18.181173
_cell_length_c                    18.340491
_cell_angle_alpha                 120.277977
_cell_angle_beta                  89.73743
_cell_angle_gamma                 119.831762
_cell_volume                      4275.15135398

loop_
_atom_site_label
_atom_site_type_symbol
_atom_type_description
_atom_site_fract_x
_atom_site_fract_y
_atom_site_fract_z
_atom_type_partial_charge
C1    C     C_R   0.112286 0.220118 0.609475 0.787657
C2    C     C_3   0.449655 0.897473 0.947695 0.051000
C3    C     C_3   0.033495 0.650034 0.682187 -0.838780
C4    C     C_3   0.473893 0.033023 0.071922 -0.190724
C5    C     C_3   0.526105 0.966976 0.928077 -0.190745
C6    C     C_3   0.413432 0.436810 0.448112 -0.125796
C7    C     C_3   0.586569 0.563192 0.551888 -0.125768
C8    C     C_3   0.477610 0.402944 0.442688 -0.165090
C9    C     C_3   0.522391 0.597057 0.557313 -0.165051
C10   C     C_3   0.551062 0.500253 0.449594 0.055971
C11   C     C_3   0.448938 0.499748 0.550406 0.055974
C12   C     C_3   0.487845 0.534176 0.454206 -0.195132
C13   C     C_R   0.887718 0.779881 0.390525 0.787708
C14   C     C_3   0.512156 0.465825 0.545795 -0.195133
C15   C     C_R   0.271635 0.203597 0.772322 -0.141457
C16   C     C_R   0.728264 0.796539 0.227888 -0.141618
C17   C     C_R   0.392658 0.781181 0.888463 0.769651
C18   C     C_R   0.607342 0.218819 0.111537 0.769642
C19   C     C_R   0.213324 0.153990 0.688863 -0.129198
C20   C     C_R   0.786649 0.846145 0.311306 -0.129438
C21   C     C_R   0.120065 0.100946 0.672541 0.119780
C22   C     C_R   0.879885 0.899047 0.327502 0.119768
C23   C     C_R   0.085688 0.097292 0.740273 -0.188611
C24   C     C_3   0.983895 0.430129 0.414655 0.200760
C25   C     C_R   0.914169 0.902536 0.259679 -0.188401
C26   C     C_R   0.144043 0.147778 0.824729 0.018340
C27   C     C_R   0.855739 0.852039 0.175260 0.018357
C28   C     C_R   0.237344 0.200652 0.839877 -0.144092
C29   C     C_R   0.762461 0.799333 0.160245 -0.144021
C30   C     C_R   0.999824 0.943698 0.530927 -0.250456
C31   C     C_R   0.000198 0.056296 0.469070 -0.250407
C32   C     C_R   0.942617 0.892294 0.446098 -0.047426
C33   C     C_R   0.057402 0.107704 0.553902 -0.047438
C34   C     C_R   0.941896 0.948903 0.414864 0.003828
C35   C     C_3   0.016104 0.569871 0.585346 0.200779
C36   C     C_R   0.058116 0.051094 0.585142 0.003848
C37   C     C_R   0.634778 0.538262 0.764504 -0.172903
C38   C     C_R   0.365220 0.461696 0.235484 -0.172894
C39   C     C_R   0.591515 0.503548 0.814768 -0.158841
C40   C     C_R   0.408501 0.496432 0.185238 -0.158812
C41   C     C_R   0.111779 0.501585 0.890507 0.808737
C42   C     C_R   0.888222 0.498416 0.109494 0.808745
C43   C     C_R   0.583492 0.570240 0.892768 0.110788
C44   C     C_R   0.416504 0.429741 0.107220 0.110814
C45   C     C_R   0.620210 0.672446 0.920641 -0.107545
C46   C     C_3   0.413505 0.965010 0.973607 -0.112361
C47   C     C_R   0.379761 0.327518 0.079317 -0.108034
C48   C     C_R   0.663210 0.707743 0.870084 0.072656
C49   C     C_R   0.336736 0.292198 0.129852 0.072568
C50   C     C_R   0.670151 0.639540 0.791612 -0.141253
C51   C     C_R   0.329809 0.360397 0.208339 -0.141170
C52   C     C_R   0.588025 0.531543 0.001881 -0.258704
C53   C     C_R   0.411975 0.468453 0.998118 -0.258767
C54   C     C_R   0.550085 0.498530 0.054975 -0.051765
C55   C     C_R   0.449916 0.501468 0.945025 -0.051816
C56   C     C_R   0.460859 0.465770 0.052937 -0.019318
C57   C     C_3   0.586493 0.034989 0.026391 -0.112378
C58   C     C_R   0.539141 0.534226 0.947061 -0.019369
C59   C     C_R   0.277920 0.854383 0.090846 -0.142545
C60   C     C_R   0.722036 0.145639 0.909150 -0.142531
C61   C     C_R   0.220477 0.754765 0.071538 0.248742
C62   C     C_R   0.779495 0.245265 0.928477 0.248764
C63   C     C_R   0.126997 0.696466 0.027002 0.130510
C64   C     C_R   0.872979 0.303525 0.972976 0.130486
C65   C     C_R   0.392237 0.499968 0.607654 0.774824
C66   C     C_R   0.607763 0.500032 0.392346 0.774821
C67   C     C_R   0.093917 0.739419 0.003052 -0.172164
C68   C     C_3   0.490802 0.036022 0.954766 -0.171758
C69   C     C_R   0.906044 0.260525 0.996872 -0.172247
C70   C     C_R   0.152069 0.838721 0.023135 -0.100807
C71   C     C_R   0.847875 0.161216 0.976769 -0.100796
C72   C     C_R   0.243715 0.896422 0.067710 -0.154186
C73   C     C_R   0.756227 0.103554 0.932231 -0.154229
C74   C     C_R   0.004325 0.589523 0.061137 -0.246352
C75   C     C_R   0.995672 0.410476 0.938861 -0.246381
C76   C     C_R   0.943863 0.496866 0.052212 -0.057547
C77   C     C_R   0.056135 0.503134 0.947787 -0.057550
C78   C     C_R   0.938713 0.405856 0.989829 0.002958
C79   C     C_3   0.509196 0.963977 0.045233 -0.171766
C80   C     C_R   0.061280 0.594140 0.010165 0.002930
C81   C     C_R   0.393972 0.499628 0.888203 0.799594
C82   C     C_R   0.606028 0.500372 0.111796 0.799637
C83   C     C_R   0.109041 0.500432 0.608015 0.819296
C84   C     C_R   0.890959 0.499568 0.391985 0.819291
C85   C     C_3   0.077572 0.525671 0.483343 0.198670
C86   C     C_3   0.922427 0.474329 0.516657 0.198675
C87   C     C_3   0.042538 0.595416 0.516631 -0.271034
C88   C     C_3   0.957462 0.404585 0.483369 -0.271037
C89   C     C_3   0.948414 0.498761 0.447922 -0.054495
C90   C     C_3   0.550344 0.102526 0.052304 0.051008
C91   C     C_3   0.051586 0.501239 0.552078 -0.054497
C92   C     C_2   0.107471 0.146065 0.896819 0.896394
C93   C     C_2   0.892205 0.853557 0.103066 0.896431
C94   C     C_3   0.166356 0.555242 0.464702 -0.916963
C95   C     C_3   0.833644 0.444758 0.535298 -0.916972
C96   C     C_2   0.701150 0.815670 0.899973 0.919445
C97   C     C_2   0.298762 0.184252 0.099928 0.919513
C98   C     C_3   0.261440 0.716123 0.101907 -0.971035
C99   C     C_3   0.738546 0.283957 0.898165 -0.971009
C100  C     C_3   0.966504 0.349966 0.317813 -0.838738
H1    H     H_    0.077123 0.673396 0.529836 0.155401
H2    H     H_    0.986247 0.943102 0.272623 0.179624
H3    H     H_    0.001269 0.899954 0.554160 0.170878
H4    H     H_    0.998744 0.100036 0.445836 0.170877
H5    H     H_    0.703350 0.664619 0.751520 0.157569
H6    H     H_    0.296597 0.335303 0.248418 0.157568
H7    H     H_    0.641035 0.486581 0.704391 0.134732
H8    H     H_    0.358977 0.513376 0.295609 0.134720
H9    H     H_    0.564298 0.424871 0.793035 0.125137
H10   H     H_    0.435746 0.575124 0.207000 0.125116
H11   H     H_    0.613669 0.723487 0.981018 0.154015
H12   H     H_    0.922877 0.326604 0.470165 0.155402
H13   H     H_    0.386291 0.276480 0.018930 0.154070
H14   H     H_    0.656333 0.555460 0.002894 0.182353
H15   H     H_    0.343666 0.444535 0.997105 0.182331
H16   H     H_    0.288265 0.974217 0.084911 0.151865
H17   H     H_    0.711665 0.025753 0.915014 0.151874
H18   H     H_    0.349292 0.900362 0.125591 0.132546
H19   H     H_    0.650662 0.099691 0.874433 0.132544
H20   H     H_    0.022614 0.696176 0.969617 0.147611
H21   H     H_    0.977349 0.303736 0.030280 0.147644
H22   H     H_    0.125904 0.871463 0.005012 0.153529
H23   H     H_    0.283818 0.240117 0.904011 0.158900
H24   H     H_    0.874029 0.128436 0.994849 0.153539
H25   H     H_    0.009017 0.659708 0.109936 0.172296
H26   H     H_    0.990979 0.340291 0.890061 0.172260
H27   H     H_    0.483849 0.066864 0.918145 0.136970
H28   H     H_    0.516149 0.933135 0.081854 0.136964
H29   H     H_    0.341865 0.935018 0.950359 0.146972
H30   H     H_    0.658134 0.064979 0.049636 0.146984
H31   H     H_    0.454038 0.062570 0.132232 0.130970
H32   H     H_    0.545954 0.937425 0.867764 0.130983
H33   H     H_    0.460345 0.323435 0.394580 0.142557
H34   H     H_    0.715930 0.759876 0.096147 0.158884
H35   H     H_    0.539656 0.676566 0.605421 0.142591
H36   H     H_    0.341444 0.384971 0.406595 0.151676
H37   H     H_    0.658556 0.615030 0.593403 0.151697
H38   H     H_    0.479567 0.562798 0.416012 0.134037
H39   H     H_    0.520436 0.437206 0.583990 0.134046
H40   H     H_    0.997984 0.098415 0.935216 0.350963
H41   H     H_    0.001584 0.900815 0.064444 0.350897
H42   H     H_    0.166715 0.569342 0.412421 0.243385
H43   H     H_    0.222953 0.626939 0.526787 0.230305
H44   H     H_    0.174735 0.491250 0.441152 0.256687
H45   H     H_    0.343633 0.245090 0.784971 0.130356
H46   H     H_    0.833284 0.430658 0.587579 0.243382
H47   H     H_    0.825265 0.508750 0.558848 0.256688
H48   H     H_    0.777047 0.373061 0.473214 0.230305
H49   H     H_    0.726587 0.955509 0.994433 0.327896
H50   H     H_    0.273378 0.044440 0.005478 0.327896
H51   H     H_    0.210786 0.640532 0.090161 0.248420
H52   H     H_    0.309128 0.707429 0.065895 0.232430
H53   H     H_    0.298891 0.773297 0.174789 0.242987
H54   H     H_    0.789212 0.359528 0.909883 0.248411
H55   H     H_    0.701037 0.226784 0.825295 0.242969
H56   H     H_    0.656283 0.755166 0.215341 0.130344
H57   H     H_    0.690913 0.292712 0.934240 0.232421
H58   H     H_    0.001225 0.313300 0.315581 0.240656
H59   H     H_    0.893076 0.289086 0.283521 0.244039
H60   H     H_    0.992581 0.388316 0.283105 0.247543
H61   H     H_    0.998774 0.686700 0.684419 0.240659
H62   H     H_    0.007419 0.611684 0.716895 0.247535
H63   H     H_    0.106924 0.710914 0.716479 0.244040
H64   H     H_    0.240684 0.157501 0.637192 0.107025
H65   H     H_    0.759362 0.842752 0.363047 0.107134
H66   H     H_    0.013593 0.056605 0.727231 0.179663
O1    O     O_3   0.251620 0.500000 0.748430 -0.483243
O2    O     O_R   0.570330 0.268390 0.136490 -0.631416
O3    O     O_R   0.134680 0.268390 0.572240 -0.646327
O4    O     O_R   0.865320 0.731610 0.427760 -0.646333
O5    O     O_R   0.306670 0.731630 0.863510 -0.641822
O6    O     O_R   0.693330 0.268370 0.136490 -0.641820
O7    O     O_R   0.135450 0.439270 0.865360 -0.643287
O8    O     O_R   0.864550 0.560730 0.134640 -0.643294
O9    O     O_R   0.429670 0.560710 0.692610 -0.639346
O10   O     O_R   0.570330 0.439290 0.307390 -0.639337
O11   O     O_R   0.308540 0.439240 0.865360 -0.641072
O12   O     O_3   0.748380 0.500000 0.251570 -0.483254
O13   O     O_R   0.691460 0.560760 0.134640 -0.641078
O14   O     O_R   0.133580 0.439310 0.571150 -0.639553
O15   O     O_R   0.866420 0.560690 0.428850 -0.639554
O16   O     O_R   0.430770 0.560690 0.864590 -0.647799
O17   O     O_R   0.569230 0.439310 0.135410 -0.647747
O18   O     O_R   0.133580 0.560760 0.692610 -0.644603
O19   O     O_R   0.866420 0.439240 0.307390 -0.644603
O20   O     O_2   0.158310 0.190526 0.970467 -0.642173
O21   O     O_R   0.014531 0.093820 0.880886 -0.803418
O22   O     O_2   0.841306 0.809157 0.029473 -0.642245
O23   O     O_R   0.134680 0.560740 0.864590 -0.636940
O24   O     O_R   0.985112 0.905539 0.118836 -0.803455
O25   O     O_2   0.736530 0.845863 0.854945 -0.644406
O26   O     O_R   0.696896 0.883539 0.980228 -0.819849
O27   O     O_2   0.263288 0.154007 0.144894 -0.644342
O28   O     O_R   0.303096 0.116426 0.019710 -0.819901
O29   O     O_R   0.865320 0.439260 0.135410 -0.636933
O30   O     O_R   0.306670 0.439270 0.571150 -0.646969
O31   O     O_R   0.693330 0.560730 0.428850 -0.646965
O32   O     O_R   0.135450 0.268370 0.694460 -0.630726
O33   O     O_R   0.864550 0.731630 0.305540 -0.630726
O34   O     O_R   0.429670 0.731610 0.863510 -0.631428
Zn1   Zn    Zn3+2 0.207400 0.586780 0.791530 0.967283
Zn2   Zn    Zn3+2 0.792600 0.413220 0.208470 0.967280
Zn3   Zn    Zn3+2 0.208510 0.413230 0.792630 0.972030
Zn4   Zn    Zn3+2 0.791490 0.586770 0.207370 0.972042
Zn5   Zn    Zn3+2 0.383150 0.586740 0.791530 0.968108
Zn6   Zn    Zn3+2 0.616850 0.413260 0.208470 0.968141
Zn7   Zn    Zn3+2 0.207400 0.413250 0.618010 0.962144
Zn8   Zn    Zn3+2 0.792600 0.586750 0.381990 0.962155

loop_
_geom_bond_atom_site_label_1
_geom_bond_atom_site_label_2
_ccdc_geom_bond_type
O19   Zn2   S    
C7    C10   S    
C38   C40   A    
C79   H28   S    
O5    Zn1   S    
O34   Zn5   S    
O12   Zn4   S    
C27   C29   A    
C57   C79   S    
C13   C32   S    
C1    O32   A    
C24   C89   S    
C46   H29   S    
C85   C91   S    
C28   H23   S    
C1    C33   S    
C5    C57   S    
C47   C49   A    
C21   C36   S    
C4    C46   S    
C93   O24   S    
C2    C46   S    
C15   C19   A    
C20   H65   S    
O4    Zn8   S    
C74   C76   A    
C83   O14   A    
C17   O34   A    
C99   H57   S    
C94   H43   S    
O1    Zn5   S    
C96   O25   D    
C60   C62   A    
C84   O15   A    
C19   C21   A    
C76   C78   A    
C37   H7    S    
C41   C77   S    
C11   C14   S    
C92   O20   D    
C25   H2    S    
C45   C48   A    
C74   H25   S    
C26   C92   S    
C99   H54   S    
C60   C73   A    
C33   C36   A    
C86   C88   S    
C60   H19   S    
C69   C71   A    
C23   C26   A    
O10   Zn6   S    
C61   C63   A    
C44   C56   S    
H50   O28   S    
C62   C64   A    
C2    C79   S    
C43   C58   S    
C32   C34   A    
C87   H1    S    
C35   C87   S    
C5    H32   S    
C61   C98   S    
C49   C51   A    
C22   C25   A    
O12   Zn8   S    
C82   O13   A    
C16   H56   S    
C50   H5    S    
C68   C90   S    
O11   Zn3   S    
O1    Zn3   S    
C55   C81   S    
O14   Zn7   S    
C13   O33   A    
C67   H20   S    
C40   C44   A    
C97   O27   D    
C3    H62   S    
C44   C47   A    
C3    H63   S    
C59   C72   A    
C98   H51   S    
C65   O30   A    
C48   C50   A    
C29   H34   S    
C98   H53   S    
C74   C80   A    
C65   O9    A    
C2    C17   S    
C66   O10   A    
C84   O19   A    
C95   H46   S    
C81   O16   A    
C5    C68   S    
C10   C12   S    
C6    C12   S    
O8    Zn4   S    
C75   C78   A    
C52   C54   A    
C4    H31   S    
C4    C90   S    
C63   C80   S    
C10   C66   S    
C39   C43   A    
C22   C34   S    
C63   C67   A    
C59   C61   A    
C73   H17   S    
C57   C90   S    
H41   O24   S    
C85   C87   S    
C18   C90   S    
C57   H30   S    
O15   Zn8   S    
C95   H47   S    
C4    C79   S    
C42   O8    A    
C6    C11   S    
C15   H45   S    
C18   O2    A    
C6    C8    S    
C38   C51   A    
O23   Zn1   S    
C16   C29   A    
C82   O17   A    
C7    C14   S    
C99   H55   S    
C94   H42   S    
C97   O28   S    
C30   H3    S    
C46   C68   S    
C100  H58   S    
C23   H66   S    
C43   C45   A    
C85   C94   S    
C70   H22   S    
C88   C91   S    
C69   H21   S    
C16   C20   A    
C31   C33   A    
C31   C34   A    
C6    H36   S    
C64   C69   A    
C14   H39   S    
O6    Zn2   S    
C9    C11   S    
C68   H27   S    
C52   C58   A    
O17   Zn6   S    
C9    H35   S    
C13   O4    A    
C20   C22   A    
C59   H18   S    
C18   O6    A    
C21   C23   A    
O33   Zn4   S    
C12   H38   S    
C71   H24   S    
C27   C93   S    
C2    C5    S    
C84   C89   S    
O9    Zn5   S    
C53   C55   A    
C3    C35   S    
C54   C82   S    
C7    H37   S    
C24   C85   S    
C53   C56   A    
C47   H13   S    
C41   O7    A    
H49   O26   S    
C8    C14   S    
O18   Zn1   S    
C48   C96   S    
C8    H33   S    
C24   C100  S    
H40   O21   S    
C64   C78   S    
C24   C88   S    
C95   H48   S    
C100  H60   S    
C86   C89   S    
O3    Zn7   S    
C92   O21   S    
C40   H10   S    
C41   O23   A    
C17   O5    A    
C54   C56   A    
C52   H14   S    
C11   C65   S    
C25   C27   A    
C83   C91   S    
C72   H16   S    
C98   H52   S    
C26   C28   A    
C30   C36   A    
O29   Zn2   S    
O7    Zn3   S    
C75   H26   S    
C94   H44   S    
C31   H4    S    
O16   Zn5   S    
O30   Zn7   S    
O12   Zn2   S    
C81   O11   A    
C37   C39   A    
C45   H11   S    
C30   C32   A    
C37   C50   A    
C77   C80   A    
C100  H59   S    
C96   O26   S    
C15   C28   A    
C55   C58   A    
C51   H6    S    
O12   Zn6   S    
C1    O3    A    
C35   C86   S    
C42   C76   S    
C83   O18   A    
O2    Zn6   S    
C19   H64   S    
O1    Zn1   S    
C38   H8    S    
C42   O29   A    
C9    C12   S    
C66   O31   A    
C86   C95   S    
C3    H61   S    
C49   C97   S    
C62   C99   S    
C88   H12   S    
C93   O22   D    
C7    C9    S    
C39   H9    S    
O13   Zn4   S    
C8    C10   S    
C75   C77   A    
C71   C73   A    
O32   Zn3   S    
C87   C89   S    
O31   Zn8   S    
C70   C72   A    
C67   C70   A    
C53   H15   S    
O1    Zn7   S    
C35   C91   S    
