data_mof_unit_9785.cif
_audit_creation_date              2012-12-10T20:39:59-0500
_audit_creation_method            fapswitch 2.2
_symmetry_space_group_name_H-M    P1
_symmetry_Int_Tables_number       1
_space_group_crystal_system       triclinic
_cell_length_a                    23.425163
_cell_length_b                    10.674724
_cell_length_c                    9.848278
_cell_angle_alpha                 89.970792
_cell_angle_beta                  89.877905
_cell_angle_gamma                 90.137444
_cell_volume                      2462.61932254

loop_
_atom_site_label
_atom_site_type_symbol
_atom_type_description
_atom_site_fract_x
_atom_site_fract_y
_atom_site_fract_z
_atom_type_partial_charge
C1    C     C_R   0.498637 0.259846 0.499839 0.894774
C2    C     C_R   0.119561 0.614115 0.491657 0.509981
C3    C     C_R   0.238434 0.535234 0.380293 -0.085719
C4    C     C_R   0.389310 0.500127 0.500053 0.888184
C5    C     C_R   0.297677 0.534745 0.381083 -0.204341
C6    C     C_R   0.327116 0.500968 0.499522 -0.041634
C7    C     C_R   0.296653 0.467776 0.616930 -0.181085
C8    C     C_R   0.237417 0.468378 0.615930 -0.083345
C9    C     C_R   0.208379 0.502027 0.497657 0.304000
C10   C     C_R   0.762315 0.496120 0.621751 -0.102581
C11   C     C_R   0.703058 0.495606 0.622475 -0.216048
C12   C     C_R   0.969919 0.274268 0.507288 -0.156039
C13   C     C_R   0.672991 0.500947 0.499389 -0.040161
C14   C     C_R   0.702921 0.507127 0.375826 -0.211781
C15   C     C_R   0.762168 0.507880 0.375568 -0.102997
C16   C     C_R   0.497690 0.740022 0.499795 0.894926
C17   C     C_R   0.791666 0.502257 0.498406 0.327134
C18   C     C_R   0.474104 0.063984 0.614354 0.068312
C19   C     C_R   0.489983 0.128385 0.497219 -0.106114
C20   C     C_R   0.493814 0.064371 0.373283 -0.188438
C21   C     C_R   0.493233 0.935392 0.373391 -0.178634
C22   C     C_R   0.487959 0.871180 0.497033 -0.173502
C23   C     C_R   0.029339 0.274237 0.506825 -0.152606
C24   C     C_R   0.471834 0.935964 0.613889 0.110319
C25   C     C_3   0.492134 0.927258 0.757497 0.319882
C26   C     C_3   0.496376 0.069719 0.756363 -0.540413
C27   C     C_R   0.471758 0.408336 0.071568 0.203506
C28   C     C_R   0.610724 0.500266 0.499820 0.869004
C29   C     C_R   0.532231 0.583192 0.071828 -0.106834
C30   C     C_R   0.532364 0.582964 0.927730 -0.035992
C31   C     C_R   0.471519 0.408771 0.928844 0.199234
C32   C     C_3   0.408949 0.383660 0.924441 -0.484791
C33   C     C_3   0.409411 0.381351 0.078388 -0.470936
C34   C     C_R   0.059669 0.387725 0.501587 -0.015836
C35   C     C_R   0.880546 0.614246 0.492141 0.504694
C36   C     C_R   0.880283 0.390283 0.502897 0.505311
C37   C     C_R   0.939875 0.387780 0.502375 -0.016205
C38   C     C_R   0.969930 0.502205 0.496756 -0.021006
C39   C     C_R   0.940151 0.616671 0.491567 -0.015831
C40   C     C_R   0.029901 0.502165 0.496448 -0.021126
C41   C     C_R   0.059959 0.616564 0.491151 -0.017622
C42   C     C_R   0.029906 0.730084 0.486003 -0.152183
C43   C     C_R   0.970479 0.730134 0.486143 -0.155835
C44   C     C_R   0.119270 0.390102 0.501273 0.506575
H1    H     H_    0.947669 0.185273 0.511529 0.193624
H2    H     H_    0.557242 0.652095 0.126140 0.151301
H3    H     H_    0.051364 0.185203 0.510743 0.195013
H4    H     H_    0.557491 0.651657 0.873100 0.135352
H5    H     H_    0.384689 0.464254 0.882934 0.236945
H6    H     H_    0.398738 0.291356 0.878302 0.211682
H7    H     H_    0.384635 0.459175 0.124379 0.219380
H8    H     H_    0.400440 0.287102 0.121609 0.217404
H9    H     H_    0.052152 0.819087 0.481910 0.195053
H10   H     H_    0.948448 0.819158 0.482140 0.193369
H11   H     H_    0.215793 0.561196 0.288780 0.148142
H12   H     H_    0.680918 0.490792 0.719003 0.160342
H13   H     H_    0.320331 0.561762 0.289696 0.159956
H14   H     H_    0.318437 0.439980 0.708660 0.155653
H15   H     H_    0.213982 0.442591 0.706683 0.146845
H16   H     H_    0.785510 0.491784 0.716633 0.136548
H17   H     H_    0.433273 0.821228 0.081202 0.380107
H18   H     H_    0.680679 0.511527 0.279644 0.161049
H19   H     H_    0.785246 0.512563 0.280294 0.136523
H20   H     H_    0.501998 0.112493 0.278276 0.184333
H21   H     H_    0.501900 0.887167 0.278995 0.205453
H22   H     H_    0.533915 0.879171 0.768578 0.067392
H23   H     H_    0.466527 0.118248 0.826407 0.240652
H24   H     H_    0.541146 0.104354 0.760732 0.175709
N1    N     N_R   0.852279 0.502283 0.497838 -0.362144
N2    N     N_R   0.147650 0.502093 0.496672 -0.361480
N3    N     N_R   0.499610 0.499140 0.142800 -0.114999
N4    N     N_R   0.499610 0.499180 0.857150 -0.097030
O1    O     O_R   0.500010 0.316790 0.614690 -0.619061
O2    O     O_R   0.583850 0.500060 0.614640 -0.632654
O3    O     O_R   0.583840 0.500020 0.385300 -0.623443
O4    O     O_2   0.850912 0.722448 0.487374 -0.545641
O5    O     O_2   0.385032 0.950324 0.859512 -0.274886
O6    O     O_2   0.421643 0.737515 0.828552 -0.291219
O7    O     O_3   0.461799 0.869728 0.028410 -0.592799
O8    O     O_2   0.850396 0.282108 0.508146 -0.544775
O9    O     O_2   0.148786 0.281692 0.504775 -0.538104
O10   O     O_2   0.149355 0.722476 0.488208 -0.533462
O11   O     O_R   0.500000 0.316760 0.385350 -0.625514
O12   O     O_R   0.416160 0.499980 0.614700 -0.595396
O13   O     O_R   0.416150 0.499940 0.385360 -0.628334
O14   O     O_R   0.500000 0.683240 0.614650 -0.594691
O15   O     O_R   0.499990 0.683210 0.385310 -0.624883
S1    S     S_3+6 0.437242 0.869067 0.868302 0.021754
Zn1   Zn    Zn3+2 0.500000 0.500020 0.653130 0.989995
Zn2   Zn    Zn3+2 0.500000 0.499980 0.346870 0.954739

loop_
_geom_bond_atom_site_label_1
_geom_bond_atom_site_label_2
_ccdc_geom_bond_type
C17   N1    S    
C41   C42   A    
C10   H16   S    
C19   C20   A    
C18   C26   S    
C28   O2    A    
C7    C8    A    
C27   C33   S    
C33   H8    S    
C12   C23   A    
C37   C38   A    
C34   C40   A    
C26   H23   S    
O2    Zn1   S    
C30   H4    S    
C36   C37   A    
C42   H9    S    
C5    C6    A    
C10   C17   A    
C14   H18   S    
C18   C19   A    
C12   C37   A    
O3    Zn2   S    
C3    H11   S    
O5    S1    D    
C8    C9    A    
C16   O15   A    
C13   C28   S    
C44   N2    A    
C18   C24   A    
C7    H14   S    
C13   C14   A    
C16   O14   A    
O7    S1    S    
C35   O4    S    
C1    C19   S    
C23   H3    S    
C27   C31   A    
C34   C44   A    
C9    N2    S    
C4    C6    S    
C44   O9    S    
C36   O8    S    
C39   C43   A    
C4    O13   A    
C25   C26   S    
C25   S1    S    
C20   H20   S    
C35   C39   A    
C29   C30   A    
C3    C9    A    
C43   H10   S    
C31   C32   S    
C4    O12   A    
C23   C34   A    
C24   C25   S    
C32   H6    S    
C40   C41   A    
C22   C24   A    
C2    O10   S    
C33   H7    S    
C42   C43   A    
C27   N3    A    
C36   N1    A    
O6    S1    D    
C15   C17   A    
O11   Zn2   S    
C31   N4    A    
C16   C22   S    
C21   H21   S    
C25   H22   S    
C12   H1    S    
C3    C5    A    
O14   Zn1   S    
C30   N4    A    
O13   Zn2   S    
C6    C7    A    
C1    O11   A    
C5    H13   S    
C29   H2    S    
C1    O1    A    
C32   C33   S    
C26   H24   S    
C8    H15   S    
C2    N2    A    
C38   C40   A    
N4    Zn1   S    
C11   C13   A    
C38   C39   A    
N3    Zn2   S    
H17   O7    S    
C32   H5    S    
C10   C11   A    
O1    Zn1   S    
C20   C21   A    
C35   N1    A    
O12   Zn1   S    
O15   Zn2   S    
C15   H19   S    
C14   C15   A    
C2    C41   A    
C21   C22   A    
C28   O3    A    
C11   H12   S    
C29   N3    A    
