data_mof_unit_53638.cif
_audit_creation_date              2013-03-05T16:46:43-0500
_audit_creation_method            fapswitch 2.2
_symmetry_space_group_name_H-M    P1
_symmetry_Int_Tables_number       1
_space_group_crystal_system       triclinic
_cell_length_a                    10.633712
_cell_length_b                    8.932911
_cell_length_c                    8.129533
_cell_angle_alpha                 89.993394
_cell_angle_beta                  90.068666
_cell_angle_gamma                 90.021879
_cell_volume                      772.223747252

loop_
_atom_site_label
_atom_site_type_symbol
_atom_site_description
_atom_site_fract_x
_atom_site_fract_y
_atom_site_fract_z
_atom_type_partial_charge
O1    O     O_R   0.500000 0.285350 0.636850 -0.634386
O2    O     O_R   0.500000 0.714650 0.636850 -0.602610
O3    O     O_R   0.500000 0.285360 0.363100 -0.620717
O4    O     O_R   0.500000 0.714640 0.363100 -0.603813
C1    C     C_R   0.500023 0.218074 0.499995 0.897859
C2    C     C_R   0.499995 0.781900 0.499977 0.964978
O5    O     O_R   0.316770 0.500000 0.636900 -0.608722
O6    O     O_R   0.683230 0.500000 0.636900 -0.609345
O7    O     O_R   0.316780 0.500000 0.363150 -0.622079
O8    O     O_R   0.683220 0.500000 0.363150 -0.622179
C3    C     C_R   0.260789 0.475422 0.501903 0.877414
C4    C     C_R   0.739528 0.476856 0.502100 0.876832
Zn1   Zn    Zn3+2 0.500000 0.500000 0.682780 0.964509
Zn2   Zn    Zn3+2 0.500000 0.500000 0.317220 0.968345
H1    H     H_    0.115208 0.361001 0.259007 0.162616
H2    H     H_    0.883844 0.362862 0.259040 0.163262
C5    C     C_R   0.127848 0.422926 0.821705 0.223705
C6    C     C_R   0.874004 0.427642 0.822619 0.223458
C7    C     C_R   0.067572 0.493492 0.952651 -0.216918
C8    C     C_R   0.937047 0.496492 0.952863 -0.218847
H3    H     H_    0.119205 0.524098 0.061895 0.167434
H4    H     H_    0.887136 0.528738 0.062765 0.167329
N1    N     N_1   0.500000 0.500000 0.073640 -0.055764
N2    N     N_1   0.500000 0.500000 0.926360 -0.058932
C9    C     C_R   0.934488 0.424144 0.666867 0.051617
C10   C     C_R   0.066412 0.422332 0.666513 0.053571
C11   C     C_R   0.130108 0.425822 0.513090 -0.131782
C12   C     C_R   0.870228 0.427658 0.513469 -0.130809
C13   C     C_R   0.064977 0.386922 0.370513 -0.212167
C14   C     C_R   0.934601 0.387825 0.370676 -0.211666
C15   C     C_1   0.500009 0.065227 0.500044 -0.189931
C16   C     C_1   0.500000 0.934799 0.500013 -0.200760
C17   C     C_3   0.224241 0.305505 0.864169 -0.801714
H5    H     H_    0.179676 0.219014 0.943160 0.213419
H6    H     H_    0.260680 0.247512 0.753271 0.236540
H7    H     H_    0.302275 0.355417 0.934571 0.245303
C18   C     C_3   0.777644 0.311020 0.867837 -0.800736
H8    H     H_    0.738765 0.253032 0.758282 0.238701
H9    H     H_    0.823059 0.224116 0.945535 0.212971
H10   H     H_    0.701433 0.361768 0.940629 0.244014

loop_
_geom_bond_atom_site_label_1
_geom_bond_atom_site_label_2
_geom_bond_distance
_ccdc_geom_bond_type
Zn2   N1    1.980192 S    
C2    C16   1.365836 S    
O7    Zn2   1.984206 S    
C13   C14   1.386405 A    
O3    Zn2   1.953260 S    
O6    C4    1.266396 A    
C11   C13   1.393518 A    
C15   C16   1.165095 T    
C3    C11   1.461326 S    
N1    N2    1.197317 T    
C12   C14   1.394606 A    
C17   H5    1.110957 S    
C18   H9    1.110988 S    
C9    C12   1.421629 A    
O5    C3    1.267037 A    
O7    C3    1.294804 A    
C10   C11   1.420343 A    
O2    C2    1.264460 A    
C6    C9    1.421217 A    
C5    C17   1.506626 S    
C4    C12   1.460635 S    
O1    C1    1.264563 A    
C5    C10   1.420061 A    
O8    C4    1.294475 A    
C7    H3    1.078753 S    
C18   H8    1.109741 S    
C8    H4    1.078992 S    
H1    C13   1.077943 S    
C18   H10   1.101794 S    
C6    C8    1.395321 A    
O4    Zn2   1.953344 S    
C17   H6    1.110133 S    
O1    Zn1   1.953509 S    
H2    C14   1.078642 S    
O6    Zn1   1.984233 S    
O3    C1    1.264775 A    
O5    Zn1   1.983356 S    
C17   H7    1.101613 S    
O4    C2    1.264657 A    
O8    Zn2   1.983326 S    
O2    Zn1   1.953424 S    
C5    C7    1.394097 A    
C9    C10   1.402954 A    
C6    C18   1.506771 S    
C7    C8    1.388235 A    
Zn1   N2    1.980192 S    
C1    C15   1.365370 S    
