data_mof_unit_29764.cif
_audit_creation_date              2013-03-05T16:07:27-0500
_audit_creation_method            fapswitch 2.2
_symmetry_space_group_name_H-M    P1
_symmetry_Int_Tables_number       1
_space_group_crystal_system       triclinic
_cell_length_a                    19.385726
_cell_length_b                    7.101148
_cell_length_c                    17.590576
_cell_angle_alpha                 90.0
_cell_angle_beta                  108.626174
_cell_angle_gamma                 90.000032
_cell_volume                      2294.70100632

loop_
_atom_site_label
_atom_site_type_symbol
_atom_site_description
_atom_site_fract_x
_atom_site_fract_y
_atom_site_fract_z
_atom_type_partial_charge
O1    O     O_R   0.413720 0.494330 0.415730 -0.592033
O2    O     O_R   0.586280 0.994330 0.584270 -0.592066
O3    O     O_R   0.560210 0.819300 0.430070 -0.577832
O4    O     O_R   0.439790 0.319300 0.569930 -0.577795
C1    C     C_R   0.580394 0.654943 0.413229 1.011401
C2    C     C_R   0.419602 0.154944 0.586767 1.011325
O5    O     O_R   0.412670 0.823730 0.406310 -0.598107
O6    O     O_R   0.587330 0.323730 0.593690 -0.598106
O7    O     O_R   0.437690 0.998790 0.560340 -0.578218
O8    O     O_R   0.562310 0.498790 0.439660 -0.578200
C3    C     C_R   0.385508 0.655217 0.383292 0.956547
C4    C     C_R   0.614492 0.155217 0.616708 0.956474
O9    O     O_3   0.508380 0.662350 0.550560 -0.253156
O10   O     O_3   0.491620 0.162350 0.449440 -0.253153
V1    V     V_3+5 0.498450 0.935370 0.490620 1.240494
V2    V     V_3+5 0.501550 0.435370 0.509380 1.240516
C5    C     C_R   0.695656 0.000928 0.742788 0.174937
C6    C     C_R   0.304344 0.500927 0.257213 0.174969
C7    C     C_R   0.681844 0.147760 0.686703 -0.205009
C8    C     C_R   0.318156 0.647759 0.313297 -0.205034
C9    C     C_R   0.733499 0.294737 0.701964 -0.142498
C10   C     C_R   0.266501 0.794736 0.298036 -0.142509
H1    H     H_    0.724600 0.414724 0.662080 0.113632
H2    H     H_    0.275399 0.914723 0.337920 0.113637
C11   C     C_R   0.799605 0.282352 0.765916 -0.077134
C12   C     C_R   0.200395 0.782352 0.234085 -0.077125
H3    H     H_    0.839348 0.393737 0.773505 0.113398
H4    H     H_    0.160652 0.893737 0.226495 0.113398
C13   C     C_R   0.815667 0.123469 0.816870 -0.254215
C14   C     C_R   0.184333 0.623469 0.183131 -0.254209
C15   C     C_R   0.760205 0.990164 0.806316 0.134891
C16   C     C_R   0.239795 0.490164 0.193684 0.134877
C17   C     C_3   0.760638 0.779747 0.803978 0.161439
C18   C     C_3   0.239361 0.279747 0.196022 0.161415
C19   C     C_3   0.689770 0.792055 0.733597 -0.547447
C20   C     C_3   0.310228 0.292054 0.266403 -0.547420
H5    H     H_    0.807322 0.719406 0.788485 0.050921
H6    H     H_    0.192676 0.219408 0.211514 0.050929
H7    H     H_    0.641273 0.735794 0.746756 0.266487
H8    H     H_    0.358725 0.235790 0.253245 0.266492
H9    H     H_    0.695682 0.744230 0.675847 0.160776
H10   H     H_    0.304316 0.244229 0.324153 0.160771
C21   C     C_R   0.322662 0.293598 0.634360 -0.215954
C22   C     C_R   0.677326 0.793597 0.365624 -0.215941
C23   C     C_R   0.371990 0.146002 0.638302 -0.302659
C24   C     C_R   0.627998 0.646001 0.361684 -0.302646
C25   C     C_R   0.374399 0.991348 0.690125 0.297176
C26   C     C_R   0.625582 0.491354 0.309853 0.297157
C27   C     C_R   0.325412 0.983522 0.735125 -0.033157
C28   C     C_R   0.674570 0.483530 0.264853 -0.033174
C29   C     C_R   0.276451 0.134399 0.730481 0.001095
C30   C     C_R   0.723535 0.634404 0.269502 0.001088
C31   C     C_R   0.275854 0.290424 0.680679 0.152504
C32   C     C_R   0.724132 0.790426 0.319305 0.152525
C33   C     C_R   0.325107 0.830576 0.786151 -0.115842
C34   C     C_R   0.674872 0.330596 0.213819 -0.115839
C35   C     C_R   0.276424 0.825133 0.830008 -0.194819
C36   C     C_R   0.723560 0.325150 0.169969 -0.194826
C37   C     C_R   0.227855 0.973899 0.825510 0.126714
C38   C     C_R   0.772134 0.473907 0.174475 0.126722
C39   C     C_R   0.228341 0.130443 0.776398 0.064531
C40   C     C_R   0.771647 0.630448 0.223587 0.064529
C41   C     C_R   0.180918 0.283432 0.773399 0.156394
C42   C     C_R   0.819071 0.783436 0.226589 0.156393
C43   C     C_R   0.181440 0.438159 0.724037 -0.235351
C44   C     C_R   0.818547 0.938164 0.275949 -0.235359
C45   C     C_R   0.228196 0.441168 0.677780 -0.190976
C46   C     C_R   0.771789 0.941172 0.322205 -0.190948
C47   C     C_R   0.179188 0.969161 0.869800 -0.177615
C48   C     C_R   0.820805 0.469165 0.130191 -0.177611
C49   C     C_R   0.131984 0.121188 0.867428 -0.124263
C50   C     C_R   0.868012 0.621189 0.132567 -0.124265
C51   C     C_R   0.133745 0.278888 0.819677 -0.246776
C52   C     C_R   0.866248 0.778890 0.180316 -0.246766
H11   H     H_    0.320138 0.411062 0.594194 0.167628
H12   H     H_    0.679851 0.911061 0.405791 0.167599
H13   H     H_    0.362141 0.713384 0.792489 0.190921
H14   H     H_    0.637832 0.213415 0.207468 0.190954
H15   H     H_    0.277061 0.704349 0.867897 0.162880
H16   H     H_    0.722923 0.204371 0.132077 0.162883
H17   H     H_    0.178965 0.848154 0.907334 0.154552
H18   H     H_    0.821030 0.348158 0.092658 0.154551
H19   H     H_    0.097516 0.396581 0.817437 0.133667
H20   H     H_    0.902477 0.896583 0.182557 0.133666
H21   H     H_    0.145592 0.556958 0.721108 0.135555
H22   H     H_    0.854395 0.056964 0.278879 0.135556
H23   H     H_    0.227458 0.562389 0.640094 0.137091
H24   H     H_    0.772526 0.062393 0.359890 0.137088
O11   O     O_R   0.937800 0.775460 0.060470 -0.579087
O12   O     O_R   0.062200 0.275460 0.939530 -0.579088
O13   O     O_R   0.087350 0.441340 0.093710 -0.595917
O14   O     O_R   0.912650 0.941340 0.906290 -0.595916
C53   C     C_R   0.114736 0.610321 0.116352 0.955099
C54   C     C_R   0.885264 0.110321 0.883648 0.955097
O15   O     O_R   0.939820 0.446010 0.069950 -0.610143
O16   O     O_R   0.060180 0.946010 0.930050 -0.610141
O17   O     O_R   0.913690 0.271230 0.915700 -0.580642
O18   O     O_R   0.086310 0.771230 0.084300 -0.580641
C55   C     C_R   0.918391 0.614264 0.084548 0.983946
C56   C     C_R   0.081608 0.114264 0.915451 0.983947
O19   O     O_3   0.991670 0.603050 0.949510 -0.290310
O20   O     O_3   0.008330 0.103050 0.050490 -0.290310
V3    V     V_3+5 0.001550 0.329940 0.009370 1.189387
V4    V     V_3+5 0.998450 0.829940 0.990630 1.189389
N1    N     N_R   0.750151 0.694526 0.875315 0.266068
O21   O     O_R   0.763419 0.789351 0.941799 -0.390666
O22   O     O_R   0.732833 0.517444 0.874420 -0.372117
N2    N     N_R   0.249848 0.194526 0.124686 0.266066
O23   O     O_R   0.236588 0.289355 0.058204 -0.390663
O24   O     O_R   0.267161 0.017440 0.125578 -0.372123
N3    N     N_R   0.428981 0.848589 0.700215 0.236601
O25   O     O_R   0.497610 0.892798 0.728383 -0.392889
O26   O     O_R   0.410424 0.677617 0.675739 -0.421857
N4    N     N_R   0.570995 0.348598 0.299761 0.236624
O27   O     O_R   0.589555 0.177577 0.324153 -0.421873
O28   O     O_R   0.502370 0.392867 0.271738 -0.392936

loop_
_geom_bond_atom_site_label_1
_geom_bond_atom_site_label_2
_geom_bond_distance
_ccdc_geom_bond_type
C44   C46   1.398298 A    
C41   C43   1.402462 A    
C2    C23   1.487357 S    
C35   H15   1.083873 S    
C20   H10   1.111225 S    
N3    O25   1.301153 A    
O1    C3    1.315526 A    
O2    C4    1.315527 A    
C2    O7    1.293362 A    
N4    O27   1.299927 A    
C25   C27   1.418341 A    
O5    C3    1.317931 A    
N1    O22   1.300333 A    
O11   C55   1.316454 A    
C7    C9    1.411533 A    
C14   C53   1.482060 S    
C13   C54   1.482061 S    
C33   H13   1.081332 S    
O15   C55   1.316886 A    
C35   C37   1.400428 A    
C46   H24   1.083780 S    
C32   C46   1.404261 A    
C49   C56   1.482125 S    
C36   C38   1.400418 A    
C34   H14   1.081318 S    
N2    O23   1.301972 A    
C38   C40   1.409742 A    
C47   C49   1.407196 A    
C40   C42   1.413235 A    
C17   C19   1.530126 S    
C21   C31   1.400006 A    
C22   C24   1.405487 A    
C27   C29   1.416315 A    
C29   C39   1.415693 A    
C28   C30   1.416325 A    
C15   C17   1.494869 S    
C18   C20   1.530124 S    
C36   H16   1.083872 S    
C30   C32   1.410204 A    
O5    V1    2.004458 S    
O6    V2    2.004460 S    
C21   H11   1.084107 S    
C48   H18   1.084496 S    
O12   C56   1.316456 A    
O15   V3    2.015336 S    
C23   C25   1.418473 A    
C11   C13   1.412445 A    
C24   C26   1.418500 A    
C3    C8    1.482108 S    
C37   C39   1.409746 A    
C48   C50   1.407191 A    
C20   H8    1.111798 S    
C17   N1    1.464642 S    
C50   C52   1.406797 A    
C52   H20   1.084265 S    
C49   C51   1.406801 A    
C41   C51   1.405533 A    
C54   O17   1.314804 A    
C43   C45   1.398301 A    
C27   C33   1.410200 A    
C28   C34   1.410209 A    
C29   C31   1.410207 A    
C42   C44   1.402458 A    
O4    V2    2.015401 S    
C19   H7    1.111798 S    
O13   C53   1.321105 A    
C38   C48   1.402747 A    
O6    C4    1.317931 A    
O18   V4    1.999262 S    
C39   C41   1.413236 A    
N3    O26   1.299950 A    
O1    V2    1.999096 S    
O20   V4    2.185832 S    
O2    V1    1.999096 S    
C21   C23   1.405492 A    
O17   V3    1.999262 S    
C19   H9    1.111225 S    
C37   C47   1.402747 A    
O4    C2    1.295025 A    
C8    C10   1.411534 A    
C12   C14   1.412446 A    
O19   V4    1.753750 S    
C33   C35   1.397279 A    
O11   V4    1.990980 S    
C5    C15   1.388242 A    
C10   H2    1.081964 S    
C6    C16   1.388242 A    
O3    V1    2.015401 S    
C26   N4    1.434898 S    
N1    O21   1.301976 A    
O16   V4    2.015336 S    
C9    C11   1.412309 A    
C18   H6    1.111068 S    
C45   H23   1.083782 S    
O13   V3    2.004266 S    
O3    C1    1.295026 A    
C44   H22   1.083693 S    
N4    O28   1.301068 A    
N2    O24   1.300330 A    
C43   H21   1.083696 S    
C11   H3    1.082273 S    
C1    C24   1.487363 S    
C12   H4    1.082273 S    
C18   N2    1.464642 S    
C9    H1    1.081965 S    
O7    V1    2.004264 S    
C1    O8    1.293363 A    
C13   C15   1.399657 A    
C30   C40   1.415697 A    
C14   C16   1.399657 A    
O14   C54   1.321105 A    
C25   N3    1.434867 S    
O16   C56   1.316885 A    
C4    C7    1.482108 S    
C26   C28   1.418368 A    
C5    C7    1.401224 A    
C34   C36   1.397275 A    
C6    C8    1.401226 A    
O20   V3    1.753751 S    
C31   C45   1.404261 A    
C17   H5    1.111068 S    
O12   V3    1.990978 S    
C47   H17   1.084499 S    
O14   V4    2.004268 S    
C22   C32   1.399994 A    
O19   V3    2.185831 S    
C10   C12   1.412308 A    
O9    V2    1.754694 S    
C42   C52   1.405532 A    
O10   V1    1.754694 S    
O8    V2    2.004263 S    
C5    C19   1.492430 S    
C22   H12   1.084111 S    
C6    C20   1.492432 S    
C53   O18   1.314803 A    
C51   H19   1.084268 S    
C16   C18   1.494868 S    
C50   C55   1.482122 S    
