data_mof_unit_58867.cif
_audit_creation_date              2012-10-26T19:04:42-0400
_audit_creation_method            fapswitch 2.2
_symmetry_space_group_name_H-M    P1
_symmetry_Int_Tables_number       1
_space_group_crystal_system       triclinic
_cell_length_a                    9.680734
_cell_length_b                    10.876089
_cell_length_c                    13.495159
_cell_angle_alpha                 96.077085
_cell_angle_beta                  72.291083
_cell_angle_gamma                 91.81013
_cell_volume                      1345.94874938

loop_
_atom_site_label
_atom_site_type_symbol
_atom_type_description
_atom_site_fract_x
_atom_site_fract_y
_atom_site_fract_z
_atom_type_partial_charge
C1    C     C_R   0.502621 0.736982 0.499416 0.564455
C2    C     C_R   0.375004 0.499578 0.814526 -0.040326
C3    C     C_R   0.371044 0.853117 0.367222 -0.114811
C4    C     C_R   0.421709 0.496442 0.699501 0.539957
C5    C     C_R   0.262424 0.900355 0.332882 0.263422
C6    C     C_R   0.207061 0.018934 0.374645 0.354301
C7    C     C_R   0.271108 0.091315 0.440627 -0.023311
C8    C     C_R   0.394118 0.050335 0.463090 -0.050043
C9    C     C_R   0.426443 0.923836 0.440790 -0.043253
C10   C     C_R   0.508587 0.870551 0.495612 -0.005421
C11   C     C_R   0.582755 0.947096 0.554361 0.043430
C12   C     C_R   0.437344 0.508470 0.978314 0.042760
C13   C     C_R   0.578573 0.074647 0.552796 -0.103093
C14   C     C_R   0.485147 0.127963 0.508178 -0.024219
C15   C     C_R   0.926018 0.376859 0.326917 0.065305
C16   C     C_R   0.495490 0.262461 0.502856 0.564907
C17   C     C_R   0.034835 0.363420 0.231809 -0.218885
C18   C     C_R   0.173058 0.337982 0.232903 0.014040
C19   C     C_R   0.206855 0.364565 0.328087 0.262165
C20   C     C_R   0.107430 0.435295 0.416230 0.121749
C21   C     C_R   0.958470 0.437350 0.416264 0.079485
C22   C     C_R   0.894079 0.559079 0.578720 0.080010
C23   C     C_R   0.471814 0.470853 0.869582 0.029266
C24   C     C_R   0.040652 0.562055 0.578445 0.335211
C25   C     C_R   0.578072 0.503785 0.300704 0.556669
C26   C     C_R   0.792828 0.441671 0.017955 -0.075081
C27   C     C_R   0.621151 0.501720 0.186447 -0.001613
C28   C     C_R   0.237677 0.548432 0.870127 -0.054081
C29   C     C_R   0.198533 0.578064 0.977620 0.251885
C30   C     C_R   0.298910 0.560947 0.030989 -0.067766
C31   C     C_2   0.831135 0.267574 0.334286 0.644913
C32   C     C_2   0.264825 0.259013 0.140504 0.577531
C33   C     C_2   0.658835 0.898845 0.622534 0.590971
C34   C     C_R   0.543311 0.492589 0.029783 0.048734
C35   C     C_R   0.682750 0.445980 0.970885 0.051419
C36   C     C_R   0.709139 0.399584 0.866874 -0.118367
C37   C     C_R   0.602322 0.405548 0.818811 -0.097124
C38   C     C_R   0.514652 0.518054 0.138335 -0.139589
C39   C     C_R   0.762550 0.472946 0.124946 -0.067647
Cu1   Cu    Cu3+1 0.359340 0.500010 0.500010 1.000021
Cu2   Cu    Cu3+1 0.640660 0.499990 0.499990 1.011492
H1    H     H_    0.847584 0.469730 0.160299 0.144303
H2    H     H_    0.161791 0.569268 0.829516 0.189340
H3    H     H_    0.265066 0.589755 0.113284 0.078499
H4    H     H_    0.624148 0.357482 0.741426 0.148321
H5    H     H_    0.252855 0.748795 0.245103 0.308301
H6    H     H_    0.057291 0.008341 0.304710 0.391142
H7    H     H_    0.687248 0.166421 0.278794 0.338282
H8    H     H_    0.390082 0.106967 0.084746 0.353948
H9    H     H_    0.401242 0.294982 0.272114 0.353263
H10   H     H_    0.171678 0.656803 0.638482 0.378439
H11   H     H_    0.051234 0.645145 0.103638 0.335166
H12   H     H_    0.411467 0.760850 0.336358 0.124117
H13   H     H_    0.653073 0.786725 0.733742 0.338857
H14   H     H_    0.217025 0.176489 0.477775 0.206124
H15   H     H_    0.641931 0.133552 0.592568 0.168825
H16   H     H_    0.813390 0.608577 0.643051 0.157571
H17   H     H_    0.006352 0.328141 0.162246 0.169628
H18   H     H_    0.811596 0.355526 0.823148 0.127863
H19   H     H_    0.901258 0.411197 0.972491 0.144631
H20   H     H_    0.408365 0.545062 0.188178 0.099742
N1    N     N_R   0.852480 0.498790 0.499000 -0.288662
N2    N     N_R   0.148360 0.498710 0.498970 -0.245844
O1    O     O_R   0.381190 0.680360 0.500010 -0.534197
O2    O     O_3   0.092108 0.068494 0.352151 -0.623242
O3    O     O_2   0.838413 0.189921 0.391730 -0.471317
O4    O     O_R   0.743946 0.246479 0.268391 -0.711140
O5    O     O_2   0.270238 0.280680 0.052341 -0.529021
O6    O     O_R   0.334512 0.153931 0.153669 -0.666193
O7    O     O_3   0.323103 0.306150 0.339489 -0.637912
O8    O     O_3   0.069502 0.631517 0.660995 -0.704395
O9    O     O_3   0.063445 0.629118 0.027733 -0.690928
O10   O     O_2   0.776799 0.941344 0.624039 -0.490488
O11   O     O_R   0.592541 0.809284 0.688833 -0.684709
O12   O     O_R   0.618760 0.680340 0.500000 -0.467811
O13   O     O_R   0.323240 0.499990 0.650990 -0.508668
O14   O     O_R   0.560820 0.499960 0.650980 -0.514407
O15   O     O_R   0.381240 0.319660 0.500000 -0.459592
O16   O     O_R   0.618810 0.319640 0.499990 -0.479825
O17   O     O_R   0.439180 0.500040 0.349020 -0.497559
O18   O     O_R   0.676760 0.500010 0.349010 -0.495372
O19   O     O_3   0.205007 0.830792 0.263212 -0.704550

loop_
_geom_bond_atom_site_label_1
_geom_bond_atom_site_label_2
_ccdc_geom_bond_type
C31   O3    D    
C25   O17   A    
C11   C13   A    
C35   C36   A    
C7    H14   S    
C36   H18   S    
C22   H16   S    
C7    C8    A    
C31   O4    S    
C12   C23   A    
Cu1   N2    S    
C3    C9    A    
C28   C29   A    
C18   C19   A    
Cu2   O14   S    
C5    C6    A    
C26   C39   A    
C22   N1    A    
C27   C38   A    
C34   C35   A    
H5    O19   S    
C6    O2    S    
C19   C20   A    
C27   C39   A    
C8    C9    A    
Cu1   O17   S    
H13   O11   S    
C14   C16   S    
C9    C10   A    
C17   H17   S    
C32   O5    D    
C29   O9    S    
C13   H15   S    
H8    O6    S    
C13   C14   A    
C25   O18   A    
C30   H3    S    
H10   O8    S    
Cu2   N1    S    
C39   H1    S    
C1    O12   A    
C11   C33   S    
C23   C37   A    
Cu1   O13   S    
C2    C4    S    
C29   C30   A    
H11   O9    S    
Cu2   O12   S    
C33   O11   S    
Cu2   O18   S    
C17   C18   A    
C21   N1    A    
C32   O6    S    
Cu1   O15   S    
C33   O10   D    
Cu1   Cu2   S    
C24   N2    A    
C22   C24   A    
C18   C32   S    
C12   C34   A    
C1    O1    A    
C15   C17   A    
C36   C37   A    
C8    C14   A    
C12   C30   A    
C34   C38   A    
C1    C10   S    
C3    C5    A    
Cu2   O16   S    
C15   C31   S    
C6    C7    A    
C25   C27   S    
C28   H2    S    
Cu1   O1    S    
C16   O16   A    
C38   H20   S    
C20   N2    A    
H9    O7    S    
C4    O14   A    
C5    O19   S    
C3    H12   S    
C26   H19   S    
C16   O15   A    
H7    O4    S    
C4    O13   A    
C10   C11   A    
C26   C35   A    
C15   C21   A    
C20   C21   A    
C2    C23   A    
C19   O7    S    
C2    C28   A    
C37   H4    S    
H6    O2    S    
C24   O8    S    
