data_mof_unit_13859.cif
_audit_creation_date              2012-10-26T18:26:38-0400
_audit_creation_method            fapswitch 2.2
_symmetry_space_group_name_H-M    P1
_symmetry_Int_Tables_number       1
_space_group_crystal_system       triclinic
_cell_length_a                    15.800731
_cell_length_b                    8.784086
_cell_length_c                    7.503966
_cell_angle_alpha                 102.301173
_cell_angle_beta                  97.227037
_cell_angle_gamma                 93.533775
_cell_volume                      1005.30561046

loop_
_atom_site_label
_atom_site_type_symbol
_atom_type_description
_atom_site_fract_x
_atom_site_fract_y
_atom_site_fract_z
_atom_type_partial_charge
C1    C     C_R   0.499170 0.200842 0.454580 0.560175
C2    C     C_3   0.997022 0.627331 0.633886 0.242785
C3    C     C_1   0.248915 0.482031 0.484977 -0.026843
C4    C     C_1   0.751184 0.514244 0.516287 0.004435
C5    C     C_3   0.044478 0.486474 0.671910 0.207133
C6    C     C_3   0.955889 0.501510 0.346945 0.215677
C7    C     C_3   0.081380 0.474472 0.487580 -0.025276
C8    C     C_3   0.919451 0.513375 0.530503 -0.001708
C9    C     C_1   0.172618 0.473238 0.477939 0.006731
C10   C     C_1   0.827659 0.519342 0.529581 0.044379
C11   C     C_3   0.927718 0.136516 0.196525 -0.138074
C12   C     C_R   0.500769 0.799155 0.545411 0.562806
C13   C     C_3   0.067472 0.847595 0.834844 -0.133058
C14   C     C_3   0.977104 0.147139 0.679414 -0.138035
C15   C     C_3   0.018847 0.826702 0.315543 -0.100152
C16   C     C_3   0.926202 0.458570 0.027659 -0.062268
C17   C     C_3   0.155493 0.393181 0.845849 -0.129953
C18   C     C_3   0.613013 0.979226 0.255613 -0.092584
C19   C     C_3   0.386660 0.021364 0.743606 -0.097684
C20   C     C_R   0.339564 0.494772 0.496281 0.522404
C21   C     C_R   0.660461 0.504889 0.503786 0.524317
C22   C     C_2   0.506940 0.035807 0.431426 0.230431
C23   C     C_2   0.492921 0.964171 0.568510 0.232082
C24   C     C_3   0.966654 0.372414 0.568319 0.222701
C25   C     C_3   0.032945 0.615639 0.450714 0.245385
C26   C     C_3   0.002407 0.359507 0.383773 0.221180
Cu1   Cu    Cu3+1 0.509330 0.517380 0.684380 0.995298
Cu2   Cu    Cu3+1 0.490670 0.482620 0.315620 0.994501
H1    H     H_    0.875151 0.210983 0.171790 0.152588
H2    H     H_    0.964445 0.850426 0.395270 0.130814
H3    H     H_    0.994865 0.769472 0.170147 0.186317
H4    H     H_    0.053563 0.939958 0.314820 0.157512
H5    H     H_    0.991105 0.417635 0.042014 0.206851
H6    H     H_    0.925625 0.548383 0.944272 0.190782
H7    H     H_    0.879746 0.359609 0.951055 0.166531
H8    H     H_    0.162335 0.348222 0.973851 0.151367
H9    H     H_    0.216156 0.463819 0.845778 0.148852
H10   H     H_    0.145832 0.290112 0.727767 0.092532
H11   H     H_    0.651829 0.937168 0.366857 0.093966
H12   H     H_    0.911748 0.071264 0.300510 0.150441
H13   H     H_    0.632625 0.104635 0.263601 0.139311
H14   H     H_    0.627179 0.911671 0.121743 0.152033
H15   H     H_    0.366683 0.895966 0.734854 0.139643
H16   H     H_    0.348192 0.064177 0.632520 0.086348
H17   H     H_    0.372430 0.088679 0.877544 0.144192
H18   H     H_    0.432828 0.376061 0.947510 0.241731
H19   H     H_    0.567128 0.624009 0.052500 0.249199
H20   H     H_    0.929240 0.050098 0.065895 0.136698
H21   H     H_    0.097816 0.889187 0.726189 0.146802
H22   H     H_    0.111143 0.777621 0.905087 0.189163
H23   H     H_    0.058279 0.952502 0.939954 0.127309
H24   H     H_    0.009464 0.193640 0.822118 0.149083
H25   H     H_    0.025085 0.117534 0.584340 0.128825
H26   H     H_    0.938524 0.037301 0.678849 0.173358
N1    N     N_2   0.476600 0.456420 0.038510 -0.239557
N2    N     N_2   0.523400 0.543580 0.961490 -0.234201
O1    O     O_R   0.506070 0.286130 0.619780 -0.477864
O2    O     O_3   0.986823 0.764701 0.763607 -0.597799
O3    O     O_3   0.921078 0.252442 0.625568 -0.601020
O4    O     O_3   0.077280 0.736389 0.392590 -0.577634
O5    O     O_3   0.898442 0.522426 0.195697 -0.606350
O6    O     O_3   0.087393 0.489586 0.850096 -0.592427
O7    O     O_3   0.524555 0.953539 0.262482 -0.558620
O8    O     O_3   0.475220 0.046396 0.737397 -0.555910
O9    O     O_R   0.493930 0.713870 0.380220 -0.478173
O10   O     O_R   0.490300 0.256770 0.308360 -0.482858
O11   O     O_R   0.509700 0.743230 0.691640 -0.481142
O12   O     O_R   0.386960 0.514660 0.655680 -0.518096
O13   O     O_R   0.613040 0.485340 0.344320 -0.503893
O14   O     O_R   0.371190 0.485310 0.344260 -0.503298
O15   O     O_R   0.628810 0.514690 0.655740 -0.501583
O16   O     O_3   0.009108 0.221331 0.252122 -0.608609

loop_
_geom_bond_atom_site_label_1
_geom_bond_atom_site_label_2
_ccdc_geom_bond_type
H18   N1    S    
C11   O16   S    
Cu2   O10   S    
N1    N2    D    
C2    O2    S    
C15   H3    S    
C3    C9    T    
C17   H8    S    
C1    O1    A    
C16   H5    S    
C26   O16   S    
C12   O9    A    
Cu2   O13   S    
C7    C25   S    
C19   O8    S    
C18   H11   S    
C8    C24   S    
C19   H17   S    
C1    O10   A    
C14   O3    S    
C1    C22   S    
C17   H9    S    
C4    C21   S    
C5    C24   S    
C12   C23   S    
C20   O14   A    
C11   H20   S    
C6    C26   S    
C7    C26   S    
C21   O15   A    
C24   O3    S    
C13   H21   S    
C6    O5    S    
C23   O8    S    
C14   H26   S    
Cu2   N1    S    
C19   H15   S    
C5    O6    S    
Cu2   O9    S    
C2    C25   S    
C5    C7    S    
C17   H10   S    
C18   H14   S    
C16   H7    S    
Cu1   O1    S    
C11   H12   S    
C17   O6    S    
C12   O11   A    
C14   H24   S    
C18   O7    S    
C2    C5    S    
Cu1   O11   S    
C16   O5    S    
C4    C10   T    
C13   H22   S    
C6    C25   S    
C3    C20   S    
C14   H25   S    
Cu1   O15   S    
C19   H16   S    
C11   H1    S    
C15   H2    S    
C8    C10   S    
C15   O4    S    
C18   H13   S    
C2    C8    S    
Cu1   Cu2   S    
C7    C9    S    
Cu1   N2    S    
C6    C8    S    
C13   O2    S    
Cu1   O12   S    
C16   H6    S    
C22   O7    S    
C13   H23   S    
C25   O4    S    
C20   O12   A    
C22   C23   D    
Cu2   O14   S    
C24   C26   S    
C21   O13   A    
H19   N2    S    
C15   H4    S    
