data_mof_unit_20445.cif
_audit_creation_date              2012-12-11T16:58:15-0500
_audit_creation_method            fapswitch 2.2
_symmetry_space_group_name_H-M    P1
_symmetry_Int_Tables_number       1
_space_group_crystal_system       triclinic
_cell_length_a                    17.026962
_cell_length_b                    7.268394
_cell_length_c                    16.679337
_cell_angle_alpha                 90.0
_cell_angle_beta                  100.446964
_cell_angle_gamma                 90.00001
_cell_volume                      2029.9944437

loop_
_atom_site_label
_atom_site_type_symbol
_atom_type_description
_atom_site_fract_x
_atom_site_fract_y
_atom_site_fract_z
_atom_type_partial_charge
O1    O     O_R   0.413450 0.494370 0.415710 -0.538840
O2    O     O_R   0.586550 0.994370 0.584290 -0.538840
O3    O     O_R   0.578420 0.819350 0.429360 -0.542713
O4    O     O_R   0.421580 0.319350 0.570640 -0.542713
C1    C     C_R   0.603968 0.655383 0.413445 0.770079
C2    C     C_R   0.396032 0.155383 0.586555 0.770078
O5    O     O_R   0.413570 0.823780 0.406240 -0.540327
O6    O     O_R   0.586430 0.323780 0.593760 -0.540329
O7    O     O_R   0.420530 0.998740 0.561000 -0.530789
O8    O     O_R   0.579470 0.498740 0.439000 -0.530790
C3    C     C_R   0.386336 0.656094 0.383549 0.798298
C4    C     C_R   0.613664 0.156094 0.616451 0.798297
O9    O     O_3   0.502480 0.662320 0.550800 -0.387719
O10   O     O_3   0.497520 0.162320 0.449200 -0.387720
V1    V     V_3+5 0.499540 0.935370 0.490580 1.439174
V2    V     V_3+5 0.500460 0.435370 0.509420 1.439174
C5    C     C_R   0.752184 0.057439 0.679279 0.001427
C6    C     C_R   0.247815 0.557439 0.320722 0.001427
C7    C     C_R   0.682256 0.151912 0.685468 -0.173932
C8    C     C_R   0.317744 0.651912 0.314532 -0.173935
C9    C     C_R   0.682527 0.254296 0.758207 0.352990
C10   C     C_R   0.317473 0.754294 0.241793 0.352988
C11   C     C_R   0.745145 0.228593 0.827460 -0.109745
C12   C     C_R   0.254855 0.728591 0.172539 -0.109746
C13   C     C_R   0.813344 0.119813 0.819977 -0.182571
C14   C     C_R   0.186656 0.619813 0.180023 -0.182564
C15   C     C_R   0.815226 0.042800 0.743702 -0.000447
C16   C     C_R   0.184774 0.542800 0.256298 -0.000460
C17   C     C_3   0.838752 0.858292 0.716490 -0.165541
C18   C     C_3   0.161247 0.358292 0.283510 -0.165540
C19   C     C_3   0.769807 0.877752 0.643382 -0.363670
C20   C     C_3   0.230192 0.377753 0.356618 -0.363667
H1    H     H_    0.829327 0.746070 0.759094 0.098352
H2    H     H_    0.170674 0.246070 0.240907 0.098350
H3    H     H_    0.721585 0.775674 0.643575 0.133907
H4    H     H_    0.278414 0.275676 0.356427 0.133906
H5    H     H_    0.787785 0.896556 0.583114 0.196008
H6    H     H_    0.212214 0.396559 0.416887 0.196008
C21   C     C_R   0.334545 0.146049 0.638896 -0.062650
C22   C     C_R   0.665455 0.646049 0.361104 -0.062651
C23   C     C_R   0.166473 0.124485 0.863581 -0.111506
C24   C     C_R   0.833527 0.624485 0.136419 -0.111508
C25   C     C_R   0.307976 0.132656 0.858194 -0.179356
C26   C     C_R   0.692024 0.632655 0.141806 -0.179356
C27   C     C_R   0.246220 0.122491 0.902782 -0.162500
C28   C     C_R   0.753780 0.622491 0.097218 -0.162496
C29   C     C_R   0.148241 0.140259 0.777977 0.321861
C30   C     C_R   0.851760 0.640260 0.222023 0.321868
C31   C     C_R   0.210748 0.139881 0.731836 0.056777
C32   C     C_R   0.789252 0.639883 0.268164 0.056778
C33   C     C_R   0.291815 0.142511 0.772163 0.023656
C34   C     C_R   0.708185 0.642510 0.227837 0.023653
C35   C     C_R   0.354233 0.150056 0.725421 -0.056528
C36   C     C_R   0.645767 0.650056 0.274579 -0.056528
C37   C     C_R   0.254445 0.137031 0.600672 -0.226802
C38   C     C_R   0.745555 0.637035 0.399328 -0.226805
C39   C     C_R   0.193426 0.135196 0.646202 -0.124008
C40   C     C_R   0.806574 0.635200 0.353798 -0.123997
H7    H     H_    0.238946 0.133596 0.534727 0.121084
H8    H     H_    0.761054 0.633602 0.465273 0.121085
H9    H     H_    0.368291 0.128121 0.892258 0.117373
H10   H     H_    0.631709 0.628118 0.107742 0.117372
H11   H     H_    0.132327 0.128563 0.613791 0.179672
H12   H     H_    0.867673 0.628572 0.386209 0.179677
H13   H     H_    0.260833 0.113908 0.968621 0.127275
H14   H     H_    0.739168 0.613907 0.031379 0.127275
O11   O     O_R   0.920630 0.775410 0.061150 -0.541079
O12   O     O_R   0.079370 0.275410 0.938850 -0.541076
O13   O     O_R   0.086500 0.441450 0.093690 -0.554285
O14   O     O_R   0.913500 0.941450 0.906310 -0.554283
C41   C     C_R   0.115016 0.609375 0.114705 0.784080
C42   C     C_R   0.884984 0.109375 0.885295 0.784075
O15   O     O_R   0.921670 0.445960 0.070740 -0.521434
O16   O     O_R   0.078330 0.945960 0.929260 -0.521435
O17   O     O_R   0.913380 0.271130 0.915780 -0.527500
O18   O     O_R   0.086620 0.771130 0.084220 -0.527500
C43   C     C_R   0.896960 0.614551 0.086717 0.737247
C44   C     C_R   0.103040 0.114551 0.913283 0.737258
O19   O     O_3   0.997500 0.603030 0.949220 -0.386925
O20   O     O_3   0.002500 0.103030 0.050780 -0.386929
V3    V     V_3+5 0.000470 0.329940 0.009420 1.456458
V4    V     V_3+5 0.999530 0.829940 0.990580 1.456457
O21   O     O_3   0.617025 0.361552 0.765381 -0.543117
C45   C     C_3   0.636344 0.548106 0.754806 0.060013
H15   H     H_    0.637297 0.576109 0.689675 0.147062
H16   H     H_    0.695329 0.587752 0.791533 0.078954
C46   C     C_3   0.573164 0.670049 0.781043 -0.619688
H17   H     H_    0.569049 0.641615 0.845573 0.196937
H18   H     H_    0.589959 0.816325 0.775403 0.216519
H19   H     H_    0.514168 0.644362 0.741788 0.228691
O22   O     O_3   0.382975 0.861550 0.234619 -0.543116
C47   C     C_3   0.363656 0.048103 0.245194 0.060009
H20   H     H_    0.362694 0.076100 0.310324 0.147052
H21   H     H_    0.304675 0.087753 0.208460 0.078957
C48   C     C_3   0.426843 0.170047 0.218970 -0.619672
H22   H     H_    0.430966 0.141619 0.154442 0.196938
H23   H     H_    0.410047 0.316322 0.224610 0.216518
H24   H     H_    0.485834 0.144354 0.258232 0.228690
O23   O     O_3   0.069178 0.149382 0.739670 -0.570584
C49   C     C_3   0.048647 0.336133 0.724342 0.060401
H25   H     H_    0.085245 0.399353 0.682662 0.139835
H26   H     H_    0.056888 0.416896 0.782052 0.132936
C50   C     C_3   0.961413 0.348767 0.683714 -0.671601
H27   H     H_    0.922897 0.310791 0.727956 0.195185
H28   H     H_    0.946931 0.491376 0.662786 0.201177
H29   H     H_    0.949181 0.255505 0.630163 0.257000
O24   O     O_3   0.930822 0.649381 0.260331 -0.570581
C51   C     C_3   0.951354 0.836132 0.275657 0.060357
H30   H     H_    0.914735 0.899383 0.317310 0.139825
H31   H     H_    0.943144 0.916872 0.217942 0.132950
C52   C     C_3   0.038576 0.848757 0.316327 -0.671565
H32   H     H_    0.077117 0.810749 0.272112 0.195196
H33   H     H_    0.053053 0.991372 0.337250 0.201184
H34   H     H_    0.050778 0.755512 0.369886 0.257005
C53   C     C_2   0.733102 0.301721 0.907896 0.365495
H35   H     H_    0.688149 0.405655 0.911086 0.073401
O25   O     O_2   0.770080 0.240695 0.971932 -0.534424
C54   C     C_2   0.266898 0.801718 0.092103 0.365489
H36   H     H_    0.311854 0.905647 0.088913 0.073404
O26   O     O_2   0.229919 0.740693 0.028067 -0.534424
C55   C     C_2   0.921887 0.861258 0.697617 0.408402
H37   H     H_    0.972312 0.866924 0.747673 0.088131
O27   O     O_2   0.933910 0.854709 0.627686 -0.527475
C56   C     C_2   0.078112 0.361257 0.302383 0.408415
H38   H     H_    0.027688 0.366918 0.252326 0.088122
O28   O     O_2   0.066089 0.354715 0.372314 -0.527477
C57   C     C_2   0.439100 0.165352 0.766532 0.359321
H39   H     H_    0.455283 0.245323 0.821936 0.067110
O29   O     O_2   0.491912 0.087204 0.739269 -0.534546
C58   C     C_2   0.560900 0.665352 0.233467 0.359320
H40   H     H_    0.544717 0.745321 0.178063 0.067110
O30   O     O_2   0.508088 0.587207 0.260731 -0.534547

loop_
_geom_bond_atom_site_label_1
_geom_bond_atom_site_label_2
_ccdc_geom_bond_type
C46   H17   S    
C37   H7    S    
C15   C17   S    
C48   H22   S    
O11   C43   A    
C45   C46   S    
O2    C4    A    
C2    O7    A    
C48   H24   S    
C31   C39   A    
C29   C31   A    
C30   C32   A    
O5    C3    A    
O12   V3    S    
C20   H4    S    
C10   C12   A    
C7    C9    A    
C12   C14   A    
C28   H14   S    
C41   O18   A    
C30   O24   S    
C53   H35   S    
C17   H1    S    
C29   O23   S    
C51   H30   S    
C24   C28   A    
C31   C33   A    
O13   C41   A    
C54   H36   S    
C49   H25   S    
C35   C57   S    
C46   H19   S    
C50   H28   S    
C21   C37   A    
C9    O21   S    
C26   C28   A    
C22   C38   A    
C17   C55   S    
C32   C34   A    
C10   O22   S    
C20   H6    S    
C52   H34   S    
C26   C34   A    
O5    V1    S    
O6    V2    S    
C40   H12   S    
C14   C41   S    
O16   V4    S    
C42   O17   A    
O15   V3    S    
C34   C36   A    
C39   H11   S    
C38   C40   A    
O12   C44   A    
C36   C58   S    
C3    C8    S    
C18   H2    S    
C5    C15   A    
C6    C16   A    
C45   H15   S    
O4    C2    A    
O18   V4    S    
O22   C47   S    
C13   C42   S    
O17   V3    S    
C53   O25   D    
C49   C50   S    
C38   H8    S    
C33   C35   A    
C32   C40   A    
O4    V2    S    
C58   O30   D    
C57   O29   D    
O21   C45   S    
O6    C4    A    
C47   H21   S    
C23   C29   A    
C52   H33   S    
O1    V2    S    
C24   C30   A    
O2    V1    S    
C25   C27   A    
C55   H37   S    
C24   C43   S    
C8    C10   A    
C22   C36   A    
C37   C39   A    
C27   H13   S    
C5    C19   S    
C19   H3    S    
C1    C22   S    
C6    C20   S    
O24   C51   S    
C57   H39   S    
C23   C44   S    
O3    V1    S    
C25   H9    S    
C56   O28   D    
C49   H26   S    
C23   C27   A    
C52   H32   S    
O10   V1    S    
C12   C54   S    
C18   C56   S    
O20   V3    S    
O3    C1    A    
O19   V4    S    
C48   H23   S    
C13   C15   A    
C14   C16   A    
C51   C52   S    
C26   H10   S    
C9    C11   A    
C58   H40   S    
O7    V1    S    
C1    O8    A    
C17   C19   S    
O8    V2    S    
O23   C49   S    
C18   C20   S    
C25   C33   A    
C21   C35   A    
C4    C7    S    
C16   C18   S    
C47   H20   S    
C5    C7    A    
C51   H31   S    
C50   H29   S    
C6    C8    A    
C47   C48   S    
O14   V4    S    
C54   O26   D    
C55   O27   D    
O13   V3    S    
C11   C53   S    
C19   H5    S    
C11   C13   A    
O11   V4    S    
O16   C44   A    
O9    V2    S    
C50   H27   S    
C46   H18   S    
O15   C43   A    
C2    C21   S    
C45   H16   S    
O14   C42   A    
O1    C3    A    
C56   H38   S    
