data_mof_unit_15213.cif
_audit_creation_date              2012-12-10T20:27:13-0500
_audit_creation_method            fapswitch 2.2
_symmetry_space_group_name_H-M    P1
_symmetry_Int_Tables_number       1
_space_group_crystal_system       triclinic
_cell_length_a                    10.687359
_cell_length_b                    10.62264
_cell_length_c                    9.956337
_cell_angle_alpha                 89.003778
_cell_angle_beta                  102.260389
_cell_angle_gamma                 90.947388
_cell_volume                      1104.2806388

loop_
_atom_site_label
_atom_site_type_symbol
_atom_type_description
_atom_site_fract_x
_atom_site_fract_y
_atom_site_fract_z
_atom_type_partial_charge
C1    C     C_R   0.501122 0.260953 0.501100 0.976346
C2    C     C_R   0.494710 0.129306 0.499090 -0.159987
C3    C     C_R   0.378476 0.066943 0.501105 0.445608
C4    C     C_R   0.374814 0.934158 0.494200 0.042197
C5    C     C_R   0.490237 0.871755 0.490620 -0.042518
C6    C     C_R   0.595562 0.938527 0.465193 -0.092061
C7    C     C_3   0.735685 0.928106 0.527402 0.211444
C8    C     C_3   0.737469 0.071839 0.534040 0.759369
C9    C     C_R   0.431907 0.411282 0.057321 0.047487
C10   C     C_R   0.555496 0.596384 0.081547 0.141501
C11   C     C_R   0.557966 0.594700 0.939112 0.467370
C12   C     C_R   0.258937 0.505066 0.444779 0.978335
C13   C     C_R   0.430561 0.411953 0.915279 0.073994
C14   C     C_3   0.445032 0.271646 0.918438 0.742583
C15   C     C_3   0.447197 0.272317 0.071672 -0.450756
C16   C     C_R   0.499207 0.739466 0.498410 0.950448
C17   C     C_R   0.741201 0.501550 0.556144 0.982747
C18   C     C_2   0.122531 0.528053 0.421998 -0.408240
C19   C     C_2   0.074799 0.583222 0.521111 0.357002
C20   C     C_2   0.879869 0.508812 0.585168 -0.066558
C21   C     C_2   0.936748 0.585781 0.506167 0.334249
C22   C     C_R   0.597211 0.066677 0.468352 -0.190081
H1    H     H_    0.362449 0.225427 0.099946 0.214184
H2    H     H_    0.540954 0.245441 0.137329 0.202284
H3    H     H_    0.060078 0.497022 0.327150 0.141716
H4    H     H_    0.790682 0.888851 0.455064 0.147811
N1    N     N_R   0.499160 0.499140 0.142600 -0.127408
N2    N     N_R   0.499160 0.499180 0.856960 -0.167658
O1    O     O_R   0.500020 0.316790 0.614700 -0.578165
O2    O     O_R   0.500000 0.316760 0.385350 -0.631283
O3    O     O_R   0.317820 0.500020 0.571850 -0.545063
O4    O     O_R   0.317800 0.499980 0.342510 -0.613521
O5    O     O_R   0.500000 0.683240 0.614650 -0.571187
O6    O     O_R   0.499980 0.683210 0.385300 -0.654903
O7    O     O_R   0.682200 0.500020 0.657490 -0.637969
O8    O     O_R   0.682180 0.499980 0.428150 -0.600895
Zn1   Zn    Zn3+2 0.500010 0.500020 0.653140 1.034385
Zn2   Zn    Zn3+2 0.499990 0.499980 0.346860 0.961987
O9    O     O_3   0.865991 0.667030 0.411238 -0.823308
H5    H     H_    0.925178 0.716433 0.365590 0.329730
O10   O     O_3   0.811178 0.128076 0.447985 -0.767146
H6    H     H_    0.793376 0.219583 0.446266 0.343234
C23   C     C_3   0.618509 0.705863 0.163557 -0.681106
H7    H     H_    0.664261 0.673948 0.266580 0.304099
H8    H     H_    0.696534 0.749544 0.120145 0.248529
H9    H     H_    0.546394 0.778839 0.167799 0.229313
O11   O     O_3   0.622170 0.690428 0.886484 -0.732643
H10   H     H_    0.661953 0.654005 0.815841 0.389003
O12   O     O_3   0.337419 0.208033 0.842795 -0.757649
H11   H     H_    0.325616 0.240107 0.746940 0.378110
O13   O     O_3   0.560674 0.233020 0.887900 -0.747821
H12   H     H_    0.564461 0.140597 0.904255 0.351125
O14   O     O_3   0.153017 0.631923 0.638330 -0.743593
H13   H     H_    0.098570 0.674534 0.692463 0.329372
C24   C     C_3   0.954497 0.424359 0.696890 -0.859275
H14   H     H_    0.013481 0.481941 0.779383 0.257854
H15   H     H_    0.889345 0.363659 0.743970 0.286203
H16   H     H_    0.017575 0.361821 0.653240 0.274502
O15   O     O_3   0.273146 0.138797 0.508315 -0.789351
H17   H     H_    0.202328 0.084777 0.526443 0.364185
C25   C     C_3   0.250843 0.862436 0.488362 -0.842119
H18   H     H_    0.220275 0.870628 0.587621 0.271386
H19   H     H_    0.175471 0.900296 0.403578 0.235942
H20   H     H_    0.259476 0.761980 0.466570 0.245498
O16   O     O_3   0.757733 0.868055 0.656690 -0.745524
H21   H     H_    0.852111 0.862054 0.686608 0.352429
O17   O     O_3   0.766897 0.121474 0.667827 -0.740616
H22   H     H_    0.703359 0.088003 0.719475 0.364842

loop_
_geom_bond_atom_site_label_1
_geom_bond_atom_site_label_2
_ccdc_geom_bond_type
C10   N1    A    
C2    C22   A    
C25   H20   S    
C8    C22   S    
C24   H14   S    
C13   N2    A    
C6    C7    S    
C17   O8    A    
O4    Zn2   S    
C16   O5    A    
C7    O16   S    
O10   H6    S    
C10   C23   S    
C11   O11   S    
O11   H10   S    
C21   O9    S    
C23   H7    S    
C19   O14   S    
C15   H1    S    
C2    C3    A    
C9    C15   S    
C7    C8    S    
O14   H13   S    
C12   O4    A    
O8    Zn2   S    
C23   H8    S    
O2    Zn2   S    
C5    C6    A    
C18   H3    S    
C7    H4    S    
C11   N2    A    
C20   C24   S    
N2    Zn1   S    
C1    O1    A    
C15   H2    S    
C19   C21   S    
O16   H21   S    
C24   H15   S    
C12   O3    A    
C25   H18   S    
C23   H9    S    
C14   O12   S    
C10   C11   A    
N1    Zn2   S    
C12   C18   S    
O17   H22   S    
C6    C22   A    
O3    Zn1   S    
O15   H17   S    
C17   C20   S    
O13   H12   S    
C8    O10   S    
C9    N1    A    
C8    O17   S    
C25   H19   S    
C1    C2    S    
C24   H16   S    
O1    Zn1   S    
O9    H5    S    
O12   H11   S    
C9    C13   A    
C14   C15   S    
C18   C19   D    
C5    C16   S    
C17   O7    A    
C13   C14   S    
C16   O6    A    
C20   C21   D    
O6    Zn2   S    
C4    C25   S    
O5    Zn1   S    
C3    C4    A    
C14   O13   S    
O7    Zn1   S    
C4    C5    A    
C1    O2    A    
C3    O15   S    
