data_mof_unit_6683.cif
_audit_creation_date              2012-10-26T19:59:41-0400
_audit_creation_method            fapswitch 2.2
_symmetry_space_group_name_H-M    P1
_symmetry_Int_Tables_number       1
_space_group_crystal_system       triclinic
_cell_length_a                    10.773071
_cell_length_b                    8.842322
_cell_length_c                    7.563498
_cell_angle_alpha                 103.380236
_cell_angle_beta                  94.803467
_cell_angle_gamma                 93.758475
_cell_volume                      695.786481524

loop_
_atom_site_label
_atom_site_type_symbol
_atom_type_description
_atom_site_fract_x
_atom_site_fract_y
_atom_site_fract_z
_atom_type_partial_charge
C1    C     C_R   0.495662 0.199811 0.450846 0.550289
C2    C     C_R   0.505334 0.799730 0.544973 0.531126
C3    C     C_R   0.736804 0.500509 0.498531 0.535053
C4    C     C_R   0.152852 0.758433 0.741288 -0.114578
C5    C     C_R   0.099132 0.877346 0.856523 -0.130242
C6    C     C_R   0.970280 0.879317 0.847352 -0.127711
C7    C     C_R   0.894304 0.760678 0.725697 -0.105539
C8    C     C_R   0.946494 0.632884 0.615540 0.012094
C9    C     C_3   0.848559 0.247744 0.249532 -0.266508
C10   C     C_3   0.829303 0.272731 0.056195 -0.405379
C11   C     C_3   0.457786 0.929012 0.216728 -0.244481
C12   C     C_R   0.077727 0.633263 0.621857 0.016735
C13   C     C_3   0.431670 0.003930 0.057810 -0.436368
C14   C     C_3   0.335675 0.404308 0.958992 -0.011956
C15   C     C_3   0.314843 0.248163 0.815955 -0.371963
C16   C     C_R   0.129832 0.510888 0.504494 -0.019638
C17   C     C_R   0.053946 0.391879 0.382209 -0.143992
C18   C     C_R   0.924764 0.386527 0.377911 -0.011191
C19   C     C_R   0.870982 0.506902 0.496514 0.008510
C20   C     C_2   0.489250 0.030345 0.414889 -0.038301
C21   C     C_2   0.512204 0.966939 0.560787 -0.166878
C22   C     C_R   0.263367 0.504568 0.501897 0.526787
Cu1   Cu    Cu3+1 0.513920 0.517380 0.684380 0.905430
Cu2   Cu    Cu3+1 0.486080 0.482620 0.315620 0.897196
H1    H     H_    0.096184 0.299588 0.292336 0.110738
H2    H     H_    0.768557 0.173219 0.966983 0.126151
H3    H     H_    0.897652 0.140447 0.245732 0.121575
H4    H     H_    0.756575 0.223527 0.297846 0.167067
H5    H     H_    0.351463 0.075815 0.080600 0.158390
H6    H     H_    0.517027 0.071781 0.035390 0.174117
H7    H     H_    0.405913 0.911767 0.932124 0.142226
H8    H     H_    0.538838 0.860982 0.179444 0.173401
H9    H     H_    0.371938 0.850651 0.212949 0.174379
H10   H     H_    0.294672 0.259467 0.674725 0.177139
H11   H     H_    0.394598 0.178923 0.827454 0.153812
H12   H     H_    0.616073 0.594061 0.040465 0.217400
H13   H     H_    0.230255 0.178592 0.837695 0.061597
H14   H     H_    0.284525 0.369391 0.062618 0.144186
H15   H     H_    0.282608 0.501256 0.933237 0.139903
H16   H     H_    0.253046 0.766407 0.745235 0.136707
H17   H     H_    0.157105 0.969781 0.951597 0.097529
H18   H     H_    0.929023 0.973861 0.933578 0.107194
H19   H     H_    0.794922 0.772148 0.718707 0.135320
H20   H     H_    0.540095 0.039841 0.696319 0.097501
H21   H     H_    0.783715 0.381666 0.055967 0.188231
H22   H     H_    0.920583 0.280323 0.999042 0.139191
N1    N     N_2   0.465100 0.456430 0.038520 -0.156927
N2    N     N_2   0.534900 0.543570 0.961480 -0.246136
O1    O     O_R   0.509050 0.286130 0.619770 -0.507767
O2    O     O_R   0.485540 0.256780 0.308360 -0.505049
O3    O     O_R   0.331410 0.514680 0.655740 -0.525079
O4    O     O_R   0.307900 0.485330 0.344330 -0.532398
O5    O     O_R   0.514460 0.743220 0.691640 -0.519014
O6    O     O_R   0.490950 0.713870 0.380230 -0.515665
O7    O     O_R   0.692100 0.514670 0.655670 -0.510238
O8    O     O_R   0.668590 0.485320 0.344260 -0.513979

loop_
_geom_bond_atom_site_label_1
_geom_bond_atom_site_label_2
_ccdc_geom_bond_type
C10   H22   S    
Cu1   Cu2   S    
C3    C19   S    
C6    C7    A    
C7    H19   S    
C14   H14   S    
C21   H20   S    
C1    O2    A    
C9    C18   S    
C15   H10   S    
Cu1   O3    S    
N1    N2    D    
C8    C12   A    
C17   H1    S    
C10   H2    S    
C2    C21   S    
C17   C18   A    
C7    C8    A    
Cu1   O7    S    
C11   C13   S    
C14   N1    S    
C3    O7    A    
C10   H21   S    
C9    C10   S    
C15   H11   S    
C11   H8    S    
Cu1   O5    S    
H12   N2    S    
Cu2   O4    S    
Cu2   O2    S    
C5    C6    A    
C2    O6    A    
C11   C20   S    
Cu1   O1    S    
C8    C19   A    
Cu2   O8    S    
Cu2   O6    S    
C16   C17   A    
C4    H16   S    
C13   H6    S    
C11   H9    S    
C20   C21   D    
C9    H3    S    
C22   O4    A    
C18   C19   A    
C3    O8    A    
C13   H5    S    
C5    H17   S    
C14   C15   S    
C15   H13   S    
C1    C20   S    
C16   C22   S    
Cu1   N2    S    
C14   H15   S    
C4    C12   A    
Cu2   N1    S    
C1    O1    A    
C13   H7    S    
C22   O3    A    
C12   C16   A    
C9    H4    S    
C4    C5    A    
C2    O5    A    
C6    H18   S    
