data_mof_unit_67510.cif
_audit_creation_date              2013-03-05T15:41:20-0500
_audit_creation_method            fapswitch 2.2
_symmetry_space_group_name_H-M    P1
_symmetry_Int_Tables_number       1
_space_group_crystal_system       triclinic
_cell_length_a                    10.786619
_cell_length_b                    8.920544
_cell_length_c                    7.573929
_cell_angle_alpha                 102.967404
_cell_angle_beta                  96.536421
_cell_angle_gamma                 94.784641
_cell_volume                      701.098232863

loop_
_atom_site_label
_atom_site_type_symbol
_atom_site_description
_atom_site_fract_x
_atom_site_fract_y
_atom_site_fract_z
_atom_type_partial_charge
O1    O     O_R   0.509190 0.286130 0.619780 -0.575272
O2    O     O_R   0.490810 0.713870 0.380220 -0.575271
O3    O     O_R   0.485310 0.256770 0.308360 -0.554249
O4    O     O_R   0.514690 0.743230 0.691640 -0.554248
C1    C     C_R   0.496472 0.200800 0.454486 0.828864
C2    C     C_R   0.503528 0.799200 0.545514 0.828864
O5    O     O_R   0.328790 0.514640 0.655680 -0.571345
O6    O     O_R   0.671210 0.485360 0.344320 -0.571345
O7    O     O_R   0.304910 0.485280 0.344260 -0.554693
O8    O     O_R   0.695090 0.514720 0.655740 -0.554693
C3    C     C_R   0.260006 0.505544 0.500287 0.861198
C4    C     C_R   0.739994 0.494455 0.499713 0.861198
Cu1   Cu    Cu3+1 0.514140 0.517380 0.684380 1.107488
Cu2   Cu    Cu3+1 0.485860 0.482620 0.315620 1.107488
N1    N     N_2   0.464560 0.456420 0.038510 0.009582
N2    N     N_2   0.535440 0.543580 0.961490 0.009582
C5    C     C_3   0.055943 0.509426 0.670437 0.143425
C6    C     C_3   0.944058 0.490572 0.329565 0.143422
C7    C     C_3   0.960016 0.374206 0.556432 0.101934
C8    C     C_3   0.039985 0.625792 0.443570 0.101933
C9    C     C_3   0.876961 0.491106 0.498397 -0.251607
C10   C     C_3   0.123039 0.508893 0.501604 -0.251607
C11   C     C_3   0.971412 0.625745 0.611768 0.103301
C12   C     C_3   0.028588 0.374253 0.388234 0.103301
C13   C     C_2   0.481124 0.034288 0.431030 -0.038956
C14   C     C_2   0.518876 0.965712 0.568970 -0.038956
I1    I     I_    0.897007 0.159484 0.605114 -0.172104
I2    I     I_    0.102992 0.840515 0.394886 -0.172103
I3    I     I_    0.146470 0.568811 0.946134 -0.137781
I4    I     I_    0.853531 0.431189 0.053862 -0.137779
I5    I     I_    0.918384 0.818597 0.800732 -0.111752
I6    I     I_    0.081616 0.181401 0.199270 -0.111753
I7    I     I_    0.339590 0.266581 0.891766 -0.053727
I8    I     I_    0.660408 0.733421 0.108234 -0.053726
I9    I     I_    0.377540 0.921119 0.169277 -0.134306
I10   I     I_    0.622460 0.078882 0.830723 -0.134306

loop_
_geom_bond_atom_site_label_1
_geom_bond_atom_site_label_2
_geom_bond_distance
_ccdc_geom_bond_type
O7    Cu2   1.989749 S    
C12   I6    2.140239 S    
C6    I4    2.132508 S    
C6    C9    1.538673 S    
C5    I3    2.132457 S    
C3    C10   1.481313 S    
C5    C10   1.538676 S    
C5    C11   1.542083 S    
C8    C11   1.544243 S    
O5    Cu1   1.983826 S    
O6    C4    1.300212 A    
N2    I8    2.086530 S    
C7    C12   1.544243 S    
O2    C2    1.296669 A    
Cu1   Cu2   2.718716 S    
O5    C3    1.300209 A    
O7    C3    1.308756 A    
C2    C14   1.448846 S    
O3    Cu2   2.002575 S    
O8    C4    1.308755 A    
C13   I9    2.146429 S    
C1    C13   1.448845 S    
C10   C12   1.533520 S    
C14   I10   2.146431 S    
C7    C9    1.534655 S    
C8    C10   1.534655 S    
C6    C8    1.546664 S    
C9    C11   1.533518 S    
O2    Cu2   2.005095 S    
C6    C12   1.542077 S    
O1    Cu1   2.005093 S    
N1    N2    1.317305 D    
O1    C1    1.296669 A    
C7    I1    2.103236 S    
O4    C2    1.310098 A    
Cu1   N2    2.042922 S    
O4    Cu1   2.002576 S    
Cu2   N1    2.042922 S    
O6    Cu2   1.983828 S    
C8    I2    2.103248 S    
C5    C7    1.546668 S    
C13   C14   1.364945 D    
C4    C9    1.481316 S    
N1    I7    2.086528 S    
O3    C1    1.310098 A    
O8    Cu1   1.989748 S    
C11   I5    2.140241 S    
