data_mof_unit_16536.cif
_audit_creation_date              2012-12-11T17:09:33-0500
_audit_creation_method            fapswitch 2.2
_symmetry_space_group_name_H-M    P1
_symmetry_Int_Tables_number       1
_space_group_crystal_system       triclinic
_cell_length_a                    14.777635
_cell_length_b                    6.928688
_cell_length_c                    13.530181
_cell_angle_alpha                 90.00058
_cell_angle_beta                  99.833315
_cell_angle_gamma                 90.000384
_cell_volume                      1364.99761436

loop_
_atom_site_label
_atom_site_type_symbol
_atom_type_description
_atom_site_fract_x
_atom_site_fract_y
_atom_site_fract_z
_atom_type_partial_charge
O1    O     O_R   0.586930 0.505770 0.416350 -0.537755
O2    O     O_R   0.413070 0.005770 0.583650 -0.537753
O3    O     O_R   0.397900 0.173100 0.389630 -0.535603
O4    O     O_R   0.602100 0.673100 0.610370 -0.535606
C1    C     C_R   0.364090 0.345378 0.363071 0.728451
C2    C     C_R   0.635909 0.845380 0.636930 0.728437
O5    O     O_R   0.585280 0.175870 0.404330 -0.544090
O6    O     O_R   0.414720 0.675870 0.595670 -0.544090
O7    O     O_R   0.601790 0.008380 0.598460 -0.534755
O8    O     O_R   0.398210 0.508380 0.401540 -0.534750
C3    C     C_R   0.614807 0.344682 0.382971 0.698371
C4    C     C_R   0.385190 0.844682 0.617027 0.698352
O9    O     O_3   0.505200 0.340120 0.563670 -0.368094
O10   O     O_3   0.494800 0.840120 0.436330 -0.368088
V1    V     V_3+5 0.499040 0.064180 0.488190 1.408898
V2    V     V_3+5 0.500960 0.564180 0.511810 1.408891
C5    C     C_R   0.319843 0.002989 0.756658 0.057818
C6    C     C_R   0.680155 0.502979 0.243337 0.057756
C7    C     C_R   0.318935 0.852333 0.687646 -0.101152
C8    C     C_R   0.681065 0.352331 0.312352 -0.101138
C9    C     C_R   0.254221 0.703885 0.690253 -0.181097
C10   C     C_R   0.745784 0.203894 0.309754 -0.181111
H1    H     H_    0.251411 0.583262 0.639132 0.123102
H2    H     H_    0.748597 0.083279 0.360879 0.123098
C11   C     C_R   0.188024 0.716713 0.753748 -0.194134
C12   C     C_R   0.811984 0.216721 0.246262 -0.194128
H3    H     H_    0.136460 0.604894 0.750092 0.127844
H4    H     H_    0.863549 0.104906 0.249920 0.127842
C13   C     C_R   0.185332 0.877156 0.817335 -0.130061
C14   C     C_R   0.814677 0.377159 0.182674 -0.130050
C15   C     C_R   0.255801 0.013943 0.821192 0.089117
C16   C     C_R   0.744209 0.513944 0.178817 0.089137
C17   C     C_3   0.251421 0.229369 0.812634 -0.100725
C18   C     C_3   0.748589 0.729370 0.187383 -0.100706
C19   C     C_3   0.320421 0.215707 0.740735 -0.397735
C20   C     C_3   0.679560 0.715698 0.259250 -0.397764
H5    H     H_    0.182770 0.279523 0.774742 0.127360
H6    H     H_    0.817233 0.779520 0.225306 0.127353
H7    H     H_    0.388663 0.281342 0.768243 0.172592
H8    H     H_    0.611318 0.781304 0.231703 0.172602
H9    H     H_    0.290521 0.254779 0.662302 0.151544
H10   H     H_    0.709428 0.754800 0.337689 0.151573
C21   C     C_1   0.784011 0.876905 0.782224 -0.193285
C22   C     C_1   0.215987 0.376907 0.217779 -0.193295
C23   C     C_1   0.716685 0.859946 0.716185 -0.191784
C24   C     C_1   0.283312 0.359943 0.283818 -0.191832
O11   O     O_R   0.101720 0.231700 0.098560 -0.535030
O12   O     O_R   0.898280 0.731700 0.901440 -0.535027
O13   O     O_R   0.914700 0.558980 0.095690 -0.543886
O14   O     O_R   0.085300 0.058980 0.904310 -0.543893
C25   C     C_R   0.885008 0.389889 0.116868 0.698610
C26   C     C_R   0.114996 0.889888 0.883136 0.698623
O15   O     O_R   0.102080 0.561590 0.110390 -0.536829
O16   O     O_R   0.897920 0.061590 0.889610 -0.536837
O17   O     O_R   0.086950 0.728940 0.916330 -0.540932
O18   O     O_R   0.913050 0.228940 0.083670 -0.540940
C27   C     C_R   0.135836 0.391839 0.137775 0.729684
C28   C     C_R   0.864163 0.891838 0.862226 0.729688
O19   O     O_3   0.994770 0.394510 0.936380 -0.370038
O20   O     O_3   0.005230 0.894510 0.063620 -0.370041
V3    V     V_3+5 0.000970 0.670520 0.011800 1.397974
V4    V     V_3+5 0.999030 0.170520 0.988200 1.397954
C29   C     C_3   0.286643 0.340284 0.910917 -0.305490
C30   C     C_3   0.368523 0.245938 0.979814 -0.296725
C31   C     C_3   0.411620 0.384614 0.062136 -0.797534
H11   H     H_    0.440339 0.511824 0.028404 0.224652
H12   H     H_    0.359554 0.434748 0.106349 0.234300
H13   H     H_    0.467989 0.310927 0.113104 0.216689
H14   H     H_    0.344877 0.114406 0.014977 0.191928
H15   H     H_    0.422365 0.203096 0.936268 0.195579
H16   H     H_    0.306149 0.488073 0.890597 0.192058
H17   H     H_    0.228944 0.355266 0.953351 0.170209
C32   C     C_3   0.713391 0.840305 0.089104 -0.305546
C33   C     C_3   0.631600 0.745844 0.020122 -0.296681
C34   C     C_3   0.588453 0.884556 0.937843 -0.797497
H18   H     H_    0.559565 0.011507 0.971616 0.224629
H19   H     H_    0.640533 0.935102 0.893744 0.234283
H20   H     H_    0.532204 0.810747 0.886761 0.216704
H21   H     H_    0.655358 0.614467 0.984919 0.191918
H22   H     H_    0.577762 0.702718 0.063620 0.195598
H23   H     H_    0.693802 0.988033 0.109434 0.192073
H24   H     H_    0.771128 0.855461 0.046734 0.170216

loop_
_geom_bond_atom_site_label_1
_geom_bond_atom_site_label_2
_ccdc_geom_bond_type
C14   C25   S    
C2    C23   S    
C32   C33   S    
C20   H10   S    
O1    C3    A    
O2    C4    A    
O11   V4    S    
O5    C3    A    
C10   H2    S    
C7    C9    A    
C6    C8    A    
O20   V4    S    
C25   O18   A    
C21   C28   S    
C5    C7    A    
O15   V3    S    
O13   C25   A    
O14   C26   A    
C15   C17   S    
C30   H15   S    
C18   C20   S    
C26   O17   A    
C17   C29   S    
O5    V1    S    
O6    V2    S    
C33   H22   S    
C2    O7    A    
C32   H23   S    
C22   C24   T    
C11   C13   A    
C3    C8    S    
O19   V3    S    
O13   V3    S    
C33   C34   S    
C20   H8    S    
O4    C2    A    
O15   C27   A    
O16   V4    S    
C31   H12   S    
C17   H5    S    
O20   V3    S    
C16   C18   S    
O4    V2    S    
C19   H7    S    
C34   H18   S    
O11   C27   A    
C34   H19   S    
C22   C27   S    
O6    C4    A    
C31   H13   S    
O1    V2    S    
C30   H14   S    
O2    V1    S    
C21   C23   T    
C8    C10   A    
C12   C14   A    
C33   H21   S    
O9    V1    S    
O14   V4    S    
O10   V2    S    
C6    C16   A    
C32   H24   S    
O3    V1    S    
O16   C28   A    
C9    C11   A    
O19   V4    S    
C18   H6    S    
C29   H16   S    
O3    C1    A    
O12   C28   A    
C11   H3    S    
C1    C24   S    
C12   H4    S    
C30   C31   S    
C9    H1    S    
O7    V1    S    
C1    O8    A    
C13   C15   A    
O8    V2    S    
C14   C16   A    
O12   V3    S    
C5    C15   A    
O17   V3    S    
C4    C7    S    
C17   C19   S    
O18   V4    S    
C19   H9    S    
C34   H20   S    
C18   C32   S    
C29   C30   S    
C29   H17   S    
C31   H11   S    
C10   C12   A    
O9    V2    S    
O10   V1    S    
C5    C19   S    
C6    C20   S    
C13   C26   S    
