data_mof_unit_5715.cif
_audit_creation_date              2013-03-05T15:42:07-0500
_audit_creation_method            fapswitch 2.2
_symmetry_space_group_name_H-M    P1
_symmetry_Int_Tables_number       1
_space_group_crystal_system       triclinic
_cell_length_a                    22.054433
_cell_length_b                    7.202314
_cell_length_c                    14.841769
_cell_angle_alpha                 90.08759
_cell_angle_beta                  106.88062
_cell_angle_gamma                 90.036348
_cell_volume                      2255.92558288

loop_
_atom_site_label
_atom_site_type_symbol
_atom_site_description
_atom_site_fract_x
_atom_site_fract_y
_atom_site_fract_z
_atom_type_partial_charge
O1    O     O_R   0.584770 0.505770 0.002090 -0.547602
O2    O     O_R   0.415230 0.005770 0.997910 -0.551141
O3    O     O_R   0.467060 0.173340 0.861950 -0.539146
O4    O     O_R   0.532940 0.673340 0.138050 -0.553518
C1    C     C_R   0.454851 0.343416 0.825168 0.961766
C2    C     C_R   0.544830 0.843929 0.174440 0.962383
O5    O     O_R   0.587510 0.175890 0.993210 -0.516476
O6    O     O_R   0.412490 0.675890 0.006790 -0.515743
O7    O     O_R   0.536540 0.008150 0.130100 -0.542874
O8    O     O_R   0.463460 0.508150 0.869900 -0.514137
C3    C     C_R   0.613189 0.344302 0.998803 0.882180
C4    C     C_R   0.387144 0.844354 0.003120 0.893150
O9    O     O_3   0.483140 0.340040 0.044760 -0.282228
O10   O     O_3   0.516860 0.840040 0.955240 -0.261246
V1    V     V_3+5 0.503130 0.064190 0.991700 1.342486
V2    V     V_3+5 0.496870 0.564190 0.008300 1.339247
C5    C     C_2   0.217607 0.744091 0.021465 0.499467
C6    C     C_2   0.789224 0.239084 0.015002 0.519408
C7    C     C_2   0.176621 0.882140 0.981059 0.092117
C8    C     C_2   0.816801 0.386551 0.984984 0.062241
C9    C     C_2   0.280787 0.714881 0.005477 0.322454
C10   C     C_2   0.719327 0.214673 0.996586 0.310081
C11   C     C_2   0.321437 0.858704 0.010248 -0.221716
C12   C     C_2   0.681776 0.357586 0.006723 -0.224696
H1    H     H_    0.306409 0.996863 0.023910 0.131364
H2    H     H_    0.703321 0.492695 0.027030 0.129183
C13   C     C_R   0.927494 0.891521 0.723164 -0.320776
C14   C     C_R   0.071633 0.393715 0.278021 -0.308076
C15   C     C_R   0.572755 0.845618 0.277106 -0.259302
C16   C     C_R   0.426938 0.342217 0.721797 -0.261981
C17   C     C_R   0.933325 0.981797 0.569222 0.693429
C18   C     C_R   0.067153 0.495428 0.431494 0.682041
C19   C     C_R   0.963312 0.941377 0.663420 0.512907
C20   C     C_R   0.038854 0.477194 0.334923 0.513642
C21   C     C_R   0.862081 0.867176 0.687307 0.492912
C22   C     C_R   0.134211 0.335888 0.317475 0.515642
C23   C     C_R   0.831176 0.890815 0.589717 -0.118445
C24   C     C_R   0.167130 0.378358 0.412994 -0.118476
C25   C     C_R   0.866571 0.970605 0.533225 -0.258711
C26   C     C_R   0.130933 0.441511 0.472380 -0.260395
C27   C     C_R   0.765856 0.846496 0.547739 0.036231
C28   C     C_R   0.234390 0.360360 0.451202 0.027158
C29   C     C_R   0.733997 0.908163 0.455013 0.034258
C30   C     C_R   0.263806 0.384816 0.549427 0.020205
C31   C     C_R   0.768483 0.019361 0.408911 -0.032973
C32   C     C_R   0.224531 0.418349 0.607504 -0.018347
C33   C     C_R   0.833962 0.043431 0.444151 0.375581
C34   C     C_R   0.159598 0.450452 0.570668 0.387053
C35   C     C_R   0.732166 0.738125 0.595436 -0.013962
C36   C     C_R   0.273641 0.329172 0.393238 -0.010233
C37   C     C_R   0.667386 0.710717 0.560693 0.362434
C38   C     C_R   0.337228 0.282439 0.429777 0.383539
C39   C     C_R   0.634837 0.763283 0.467366 -0.234448
C40   C     C_R   0.365473 0.282958 0.528638 -0.222046
C41   C     C_R   0.668606 0.859698 0.412490 -0.068402
C42   C     C_R   0.331056 0.361135 0.587257 -0.082965
C43   C     C_R   0.570633 0.710792 0.425353 0.341801
C44   C     C_R   0.426699 0.207735 0.570850 0.336881
C45   C     C_R   0.539635 0.760966 0.332813 0.520771
C46   C     C_R   0.456734 0.239350 0.666720 0.521973
C47   C     C_R   0.636786 0.891071 0.315359 0.492920
C48   C     C_R   0.365177 0.407603 0.681681 0.520765
H3    H     H_    0.745461 0.097754 0.346810 0.185842
H4    H     H_    0.242472 0.410025 0.683046 0.206877
H5    H     H_    0.755105 0.670944 0.661229 0.200367
H6    H     H_    0.256618 0.346908 0.318109 0.206768
O11   O     O_R   0.036450 0.233070 0.130130 -0.523814
O12   O     O_R   0.963550 0.733070 0.869870 -0.549623
O13   O     O_R   0.912470 0.560570 0.006790 -0.512770
O14   O     O_R   0.087530 0.060570 0.993210 -0.515138
C49   C     C_R   0.886604 0.392264 0.000227 0.855830
C50   C     C_R   0.112590 0.891852 0.995560 0.864487
O15   O     O_R   0.032920 0.562940 0.138050 -0.546941
O16   O     O_R   0.967080 0.062940 0.861950 -0.559159
O17   O     O_R   0.084790 0.730500 0.002090 -0.528332
O18   O     O_R   0.915210 0.230500 0.997910 -0.524252
C51   C     C_R   0.044321 0.395033 0.175103 0.989211
C52   C     C_R   0.956112 0.894633 0.825199 0.993610
O19   O     O_3   0.016820 0.396170 0.955260 -0.282711
O20   O     O_3   0.983180 0.896170 0.044740 -0.259574
V3    V     V_3+5 0.996880 0.672090 0.008300 1.360094
V4    V     V_3+5 0.003120 0.172090 0.991700 1.358574
F1    F     F_    0.200408 0.619011 0.078302 -0.631136
F2    F     F_    0.826468 0.099370 0.062711 -0.595105
F3    F     F_    0.027105 0.962114 0.697907 -0.580177
F4    F     F_    0.978751 0.539580 0.296725 -0.588585
F5    F     F_    0.828924 0.848780 0.750967 -0.652750
F6    F     F_    0.160795 0.233647 0.261984 -0.669348
N1    N     N_R   0.539599 0.579482 0.469231 0.161819
O21   O     O_R   0.487751 0.624189 0.488802 -0.202426
O22   O     O_R   0.558332 0.407494 0.477238 -0.272290
N2    N     N_R   0.454041 0.074792 0.521653 0.158534
O23   O     O_R   0.515112 0.066334 0.536764 -0.191935
O24   O     O_R   0.418732 0.943494 0.472970 -0.272198
N3    N     N_R   0.190893 0.008942 0.914860 0.066153
O25   O     O_R   0.210606 0.945703 0.846104 -0.285546
O26   O     O_R   0.175746 0.183484 0.914968 -0.222884
N4    N     N_R   0.778911 0.528998 0.926865 0.058835
O27   O     O_R   0.796992 0.701662 0.937208 -0.194575
O28   O     O_R   0.732029 0.483211 0.854199 -0.281559
N5    N     N_R   0.298073 0.528208 0.989385 0.131722
O29   O     O_R   0.306871 0.484445 0.909033 -0.266405
O30   O     O_R   0.293864 0.396582 0.047232 -0.238210
N6    N     N_R   0.693826 0.031673 0.973301 0.138388
O31   O     O_R   0.713513 0.895459 0.031911 -0.234298
O32   O     O_R   0.656648 0.997122 0.889322 -0.224378
N7    N     N_R   0.865024 0.159017 0.392227 0.142003
O33   O     O_R   0.895935 0.305861 0.431905 -0.235106
O34   O     O_R   0.851856 0.139717 0.301382 -0.241198
N8    N     N_R   0.122980 0.477376 0.635436 0.156276
O35   O     O_R   0.075546 0.367399 0.632246 -0.192005
O36   O     O_R   0.144305 0.584984 0.708327 -0.240444
F7    F     F_    0.668476 0.939271 0.252999 -0.687286
F8    F     F_    0.340240 0.520337 0.735051 -0.658957
F9    F     F_    0.478681 0.705790 0.293309 -0.605974
F10   F     F_    0.514336 0.162060 0.707992 -0.582886
N9    N     N_R   0.635669 0.632351 0.623451 0.136701
O37   O     O_R   0.596295 0.733525 0.652725 -0.199042
O38   O     O_R   0.653824 0.472988 0.663279 -0.233992
N10   N     N_R   0.372789 0.248773 0.364027 0.134332
O39   O     O_R   0.426641 0.331951 0.374074 -0.211847
O40   O     O_R   0.347004 0.158061 0.286388 -0.271340
F11   F     F_    0.970109 0.030243 0.513842 -0.547767
F12   F     F_    0.033113 0.579396 0.482901 -0.552072

loop_
_geom_bond_atom_site_label_1
_geom_bond_atom_site_label_2
_geom_bond_distance
_ccdc_geom_bond_type
C34   N8    1.436785 S    
N5    O29   1.300958 A    
N7    O34   1.301353 A    
C18   F12   1.357678 S    
N3    O25   1.301640 A    
O11   C51   1.329084 A    
C13   C52   1.461850 S    
O2    C4    1.329812 A    
C2    O7    1.340979 A    
N6    O32   1.301155 A    
O3    V1    2.018656 S    
C22   F6    1.357712 S    
O5    C3    1.330566 A    
C4    C11   1.486968 S    
C43   N1    1.430691 S    
O12   V3    2.020018 S    
C21   C23   1.420917 A    
C12   H2    1.085769 S    
C48   F8    1.356743 S    
N9    O38   1.300904 A    
C49   O18   1.330416 A    
C43   C45   1.393146 A    
C44   C46   1.402371 A    
C3    C12   1.485801 S    
C10   N6    1.434468 S    
C20   F4    1.358460 S    
C27   C35   1.403153 A    
O13   C49   1.330718 A    
C19   F3    1.358312 S    
N8    O35   1.301571 A    
C5    C7    1.361407 D    
C21   F5    1.358858 S    
C15   C45   1.393056 A    
C30   C32   1.408835 A    
C35   C37   1.384736 A    
C16   C46   1.399869 A    
C36   C38   1.390521 A    
N7    O33   1.301591 A    
C17   C19   1.393278 A    
C8    C49   1.490114 S    
N1    O22   1.300688 A    
C42   C48   1.424093 A    
C9    N5    1.436163 S    
C31   C33   1.396359 A    
C14   C20   1.396755 A    
O6    V2    2.022031 S    
C27   C29   1.423243 A    
C7    C50   1.490652 S    
C28   C30   1.423720 A    
O16   V4    2.015891 S    
C50   O17   1.330318 A    
O15   V3    2.018580 S    
N6    O31   1.300571 A    
C38   C40   1.417775 A    
C32   C34   1.396181 A    
C39   C41   1.433005 A    
O12   C52   1.326626 A    
C15   C47   1.398900 A    
O4    C2    1.336155 A    
O18   V4    2.012246 S    
C39   C43   1.422180 A    
O17   V3    2.011790 S    
C13   C21   1.395951 A    
C31   H3    1.075290 S    
C13   C19   1.395201 A    
C32   H4    1.076928 S    
C37   C39   1.414839 A    
C18   C20   1.393166 A    
O4    V2    2.015969 S    
O2    V1    2.011592 S    
C29   C31   1.411096 A    
C30   C42   1.435647 A    
C6    F2    1.361647 S    
O6    C4    1.330780 A    
N2    O24   1.301118 A    
O1    V2    2.012045 S    
C14   C51   1.470323 S    
C36   H6    1.076091 S    
C35   H5    1.076302 S    
C28   C36   1.404311 A    
C38   N10   1.438796 S    
C29   C41   1.438789 A    
N4    O28   1.300700 A    
C9    C11   1.357745 D    
C47   F7    1.357183 S    
C10   C12   1.356803 D    
C46   F10   1.359780 S    
C22   C24   1.425172 A    
C18   C26   1.415390 A    
C7    N3    1.442374 S    
N10   O39   1.299115 A    
N10   O40   1.301807 A    
C25   C33   1.410846 A    
C1    C16   1.477929 S    
C40   C44   1.421287 A    
C26   C34   1.412760 A    
C6    C10   1.495586 S    
O20   V3    1.755364 S    
O3    C1    1.337202 A    
O19   V4    1.756532 S    
N3    O26   1.301056 A    
C40   C42   1.425724 A    
C24   C28   1.432036 A    
C33   N7    1.436689 S    
N5    O30   1.301208 A    
C16   C48   1.400822 A    
O7    V1    2.012234 S    
C17   F11   1.357658 S    
C1    O8    1.344851 A    
C23   C25   1.422527 A    
O8    V2    2.010785 S    
N9    O37   1.301070 A    
C24   C26   1.424385 A    
C41   C47   1.426686 A    
O5    V1    2.021059 S    
N2    O23   1.301086 A    
C37   N9    1.433497 S    
C17   C25   1.415017 A    
C6    C8    1.361786 D    
C11   H1    1.086250 S    
C23   C27   1.429302 A    
O14   V4    2.022119 S    
N8    O36   1.301421 A    
O13   V3    2.021156 S    
C2    C15   1.468394 S    
C8    N4    1.442261 S    
C14   C22   1.397569 A    
O11   V4    2.018450 S    
C45   F9    1.360030 S    
N4    O27   1.300880 A    
O16   C52   1.321530 A    
O9    V2    1.757274 S    
O15   C51   1.322957 A    
O10   V1    1.756106 S    
O14   C50   1.331575 A    
O1    C3    1.328966 A    
C5    F1    1.361890 S    
N1    O21   1.299493 A    
C44   N2    1.438004 S    
C5    C9    1.494784 S    
