data_mof_unit_42739.cif
_audit_creation_date              2012-12-11T15:50:38-0500
_audit_creation_method            fapswitch 2.2
_symmetry_space_group_name_H-M    P1
_symmetry_Int_Tables_number       1
_space_group_crystal_system       triclinic
_cell_length_a                    18.899552
_cell_length_b                    11.048522
_cell_length_c                    18.725733
_cell_angle_alpha                 89.776609
_cell_angle_beta                  90.751427
_cell_angle_gamma                 90.005603
_cell_volume                      3909.79394192

loop_
_atom_site_label
_atom_site_type_symbol
_atom_type_description
_atom_site_fract_x
_atom_site_fract_y
_atom_site_fract_z
_atom_type_partial_charge
C1    C     C_R   0.272803 0.041183 0.854370 0.550856
C2    C     C_R   0.759638 0.571030 0.928981 0.025342
C3    C     C_R   0.227790 0.543723 0.354934 0.547258
C4    C     C_R   0.465761 0.823228 0.644614 0.556719
C5    C     C_R   0.528613 0.822914 0.351952 0.545582
C6    C     C_R   0.965759 0.323229 0.644613 0.556723
C7    C     C_R   0.028612 0.322914 0.351952 0.545570
C8    C     C_R   0.259503 0.635132 0.644721 0.566990
C9    C     C_R   0.741426 0.634049 0.354729 0.550957
C10   C     C_R   0.759506 0.135137 0.644719 0.566989
C11   C     C_R   0.241427 0.134046 0.354728 0.550956
C12   C     C_3   0.465452 0.938370 0.033579 -0.137037
C13   C     C_R   0.750654 0.102324 0.080137 0.021013
C14   C     C_3   0.514248 0.913776 0.969250 -0.125644
C15   C     C_3   0.965449 0.438369 0.033581 -0.136995
C16   C     C_3   0.014244 0.413783 0.969251 -0.125620
C17   C     C_3   0.409324 0.850634 0.001788 -0.133578
C18   C     C_3   0.548771 0.807497 0.009672 -0.119645
C19   C     C_3   0.909323 0.350632 0.001790 -0.133583
C20   C     C_3   0.048771 0.307504 0.009671 -0.119636
C21   C     C_3   0.458850 0.825508 0.938828 0.051251
C22   C     C_3   0.499656 0.831310 0.072702 0.051581
C23   C     C_3   0.958848 0.325512 0.938829 0.051236
C24   C     C_R   0.259629 0.071048 0.928976 0.025353
C25   C     C_3   0.999656 0.331310 0.072701 0.051576
C26   C     C_3   0.086697 0.698961 0.054746 -0.117399
C27   C     C_3   0.927162 0.693552 0.942477 -0.115871
C28   C     C_3   0.586689 0.198874 0.054741 -0.117414
C29   C     C_3   0.427147 0.193611 0.942487 -0.115920
C30   C     C_R   0.308749 0.559796 0.042610 -0.067654
C31   C     C_R   0.708058 0.508070 0.966533 -0.042081
C32   C     C_R   0.808746 0.059788 0.042604 -0.067661
C33   C     C_R   0.208051 0.008082 0.966529 -0.042090
C34   C     C_R   0.319666 0.592362 0.972046 -0.026417
C35   C     C_R   0.704598 0.514995 0.040532 0.043757
C36   C     C_R   0.819658 0.092345 0.972038 -0.026418
C37   C     C_R   0.727807 0.043852 0.146528 0.555652
C38   C     C_R   0.204594 0.015006 0.040529 0.043769
C39   C     C_R   0.217703 0.719954 0.974249 -0.144046
C40   C     C_R   0.813441 0.627878 0.042351 -0.165680
C41   C     C_R   0.717692 0.219933 0.974240 -0.144017
C42   C     C_R   0.313434 0.127900 0.042344 -0.165704
C43   C     C_R   0.206897 0.690564 0.046076 0.259168
C44   C     C_R   0.813401 0.631818 0.967762 0.237903
C45   C     C_R   0.706886 0.190543 0.046064 0.259161
C46   C     C_R   0.313386 0.131850 0.967754 0.237896
C47   C     C_3   0.333715 0.434212 0.030634 -0.233651
C48   C     C_R   0.772805 0.541179 0.854371 0.550847
C49   C     C_3   0.629994 0.521036 0.958049 -0.295005
C50   C     C_3   0.833704 0.934200 0.030632 -0.233648
C51   C     C_3   0.129988 0.021054 0.958049 -0.295021
C52   C     C_3   0.346450 0.470611 0.953536 -0.197681
C53   C     C_3   0.625962 0.525636 0.038770 -0.246697
C54   C     C_3   0.846423 0.970582 0.953532 -0.197665
C55   C     C_3   0.125959 0.025650 0.038771 -0.246697
C56   C     C_R   0.270923 0.664377 0.935238 -0.044391
C57   C     C_R   0.754953 0.581455 0.079303 -0.027160
C58   C     C_R   0.770918 0.164371 0.935231 -0.044372
C59   C     C_R   0.227807 0.543852 0.146529 0.555671
C60   C     C_R   0.254951 0.081465 0.079298 -0.027149
C61   C     C_R   0.492017 0.828185 0.419684 0.017550
C62   C     C_R   0.479078 0.829535 0.568576 0.017618
C63   C     C_R   0.992017 0.328180 0.419685 0.017550
C64   C     C_R   0.979078 0.329539 0.568576 0.017614
C65   C     C_R   0.438802 0.817214 0.862400 0.537886
C66   C     C_R   0.528786 0.822121 0.145272 0.536653
C67   C     C_R   0.938801 0.317215 0.862400 0.537875
C68   C     C_R   0.028786 0.322121 0.145272 0.536654
C69   C     C_R   0.480649 0.720529 0.457634 0.022589
C70   C     C_3   0.493010 0.719194 0.979148 -0.107850
C71   C     C_R   0.474608 0.721932 0.530384 0.036010
C72   C     C_R   0.980669 0.220522 0.457639 0.022584
C73   C     C_R   0.974631 0.221931 0.530389 0.035993
C74   C     C_R   0.476467 0.939088 0.530030 -0.152244
C75   C     C_R   0.482096 0.938295 0.455330 -0.152971
C76   C     C_R   0.976446 0.439084 0.530026 -0.152251
C77   C     C_R   0.982076 0.438287 0.455326 -0.152983
C78   C     C_3   0.522468 0.605195 0.460876 -0.269109
C79   C     C_3   0.515216 0.607611 0.541005 -0.277501
C80   C     C_3   0.022518 0.105223 0.460887 -0.269103
C81   C     C_3   0.444370 0.744104 0.042834 -0.115611
C82   C     C_3   0.015271 0.107645 0.541018 -0.277509
C83   C     C_R   0.239137 0.567548 0.429239 0.026633
C84   C     C_R   0.761996 0.563071 0.569301 0.022950
C85   C     C_R   0.739144 0.067569 0.429232 0.026630
C86   C     C_R   0.262003 0.063053 0.569297 0.022944
C87   C     C_R   0.178586 0.582810 0.470066 0.048531
C88   C     C_R   0.820348 0.603668 0.531697 0.042325
C89   C     C_R   0.678594 0.082831 0.470061 0.048539
C90   C     C_R   0.320356 0.103646 0.531692 0.042341
C91   C     C_R   0.182007 0.586468 0.542888 0.018843
C92   C     C_3   0.993010 0.219199 0.979146 -0.107855
C93   C     C_R   0.819312 0.608864 0.458998 0.028131
C94   C     C_R   0.682016 0.086485 0.542882 0.018838
C95   C     C_R   0.319319 0.108841 0.458993 0.028145
C96   C     C_R   0.307072 0.540979 0.537691 -0.167035
C97   C     C_R   0.705191 0.510293 0.457089 -0.172150
C98   C     C_R   0.807084 0.041021 0.537681 -0.167036
C99   C     C_R   0.205195 0.010277 0.457084 -0.172161
C100  C     C_R   0.303041 0.538258 0.463505 -0.172895
C101  C     C_R   0.706136 0.507671 0.531539 -0.165879
C102  C     C_R   0.803051 0.038294 0.463496 -0.172909
C103  C     C_3   0.944372 0.244102 0.042833 -0.115626
C104  C     C_R   0.206142 0.007651 0.531535 -0.165885
C105  C     C_3   0.123443 0.678940 0.464856 -0.266694
C106  C     C_3   0.861076 0.718059 0.540725 -0.278733
C107  C     C_3   0.623455 0.178967 0.464852 -0.266693
C108  C     C_3   0.361089 0.218031 0.540720 -0.278728
C109  C     C_3   0.125093 0.681320 0.545380 -0.269758
C110  C     C_3   0.861178 0.725075 0.460341 -0.268320
C111  C     C_3   0.625104 0.181341 0.545375 -0.269753
C112  C     C_3   0.361194 0.225044 0.460336 -0.268325
C113  C     C_R   0.274593 0.686397 0.858558 0.545924
C114  C     C_R   0.250657 0.602330 0.080143 0.021025
C115  C     C_R   0.740069 0.635171 0.148825 0.547756
C116  C     C_R   0.774596 0.186410 0.858553 0.545936
C117  C     C_R   0.240069 0.135173 0.148824 0.547764
C118  C     C_R   0.247732 0.577135 0.577248 0.017409
C119  C     C_R   0.757986 0.574539 0.421226 0.021538
C120  C     C_R   0.747741 0.077155 0.577241 0.017407
C121  C     C_R   0.257990 0.074526 0.421222 0.021531
C122  C     C_R   0.272685 0.042181 0.644267 0.550427
C123  C     C_R   0.727792 0.043728 0.354931 0.547258
C124  C     C_R   0.772683 0.542185 0.644270 0.550432
Cr1   Cr    Cr6+3 0.229640 0.835880 0.747370 0.997254
Cr2   Cr    Cr6+3 0.614230 0.677220 0.250660 1.012187
Cr3   Cr    Cr6+3 0.885770 0.177220 0.749340 1.007574
Cr4   Cr    Cr6+3 0.114230 0.177220 0.250660 1.012186
Cr5   Cr    Cr6+3 0.770360 0.835880 0.252630 1.001768
Cr6   Cr    Cr6+3 0.729640 0.335880 0.747370 0.997248
Cr7   Cr    Cr6+3 0.270360 0.335880 0.252630 1.001769
Cr8   Cr    Cr6+3 0.387390 0.989720 0.750850 1.014775
Cr9   Cr    Cr6+3 0.612610 0.989720 0.249150 1.023473
Cr10  Cr    Cr6+3 0.887390 0.489720 0.750850 1.014744
Cr11  Cr    Cr6+3 0.112610 0.489720 0.249150 1.023480
Cr12  Cr    Cr6+3 0.385770 0.677220 0.749340 1.007575
H1    H     H_    0.351680 0.868277 0.997327 0.109239
H2    H     H_    0.982397 0.032518 0.561940 0.134138
H3    H     H_    0.577790 0.619063 0.444174 0.171130
H4    H     H_    0.482321 0.532508 0.561916 0.134130
H5    H     H_    0.494190 0.528247 0.435189 0.128226
H6    H     H_    0.566180 0.622288 0.570013 0.139663
H7    H     H_    0.994260 0.028247 0.435209 0.128231
H8    H     H_    0.066236 0.122375 0.570020 0.139664
H9    H     H_    0.358172 0.527554 0.563070 0.138056
H10   H     H_    0.659734 0.474814 0.428455 0.117311
H11   H     H_    0.858188 0.027611 0.563058 0.138082
H12   H     H_    0.607115 0.796584 0.012786 0.099836
H13   H     H_    0.159736 0.974803 0.428452 0.117322
H14   H     H_    0.349806 0.516965 0.433171 0.121961
H15   H     H_    0.662342 0.467342 0.559388 0.119835
H16   H     H_    0.849815 0.017006 0.433160 0.121974
H17   H     H_    0.162348 0.967323 0.559384 0.119849
H18   H     H_    0.072864 0.646301 0.442025 0.138498
H19   H     H_    0.914500 0.704320 0.564617 0.132776
H20   H     H_    0.572874 0.146339 0.442019 0.138488
H21   H     H_    0.414512 0.204287 0.564614 0.132778
H22   H     H_    0.143743 0.763145 0.439930 0.135298
H23   H     H_    0.851678 0.368274 0.997332 0.109236
H24   H     H_    0.829299 0.790350 0.566109 0.142620
H25   H     H_    0.643759 0.263171 0.439929 0.135296
H26   H     H_    0.329316 0.290329 0.566102 0.142612
H27   H     H_    0.142709 0.769991 0.565904 0.164518
H28   H     H_    0.831150 0.804480 0.440407 0.176919
H29   H     H_    0.642723 0.270009 0.565901 0.164524
H30   H     H_    0.331175 0.304457 0.440401 0.176908
H31   H     H_    0.075816 0.646602 0.569714 0.126355
H32   H     H_    0.914766 0.714435 0.437442 0.120680
H33   H     H_    0.575827 0.146626 0.569708 0.126348
H34   H     H_    0.107115 0.296596 0.012782 0.099839
H35   H     H_    0.414782 0.214391 0.437439 0.120676
H36   H     H_    0.454985 0.026045 0.059843 0.097112
H37   H     H_    0.544119 0.982098 0.938154 0.108611
H38   H     H_    0.954984 0.526029 0.059861 0.097131
H39   H     H_    0.044114 0.482108 0.938156 0.108588
H40   H     H_    0.500081 0.627499 0.956776 0.121127
H41   H     H_    0.419728 0.676346 0.078243 0.131775
H42   H     H_    0.000079 0.127505 0.956773 0.121140
H43   H     H_    0.919729 0.176341 0.078238 0.131775
H44   H     H_    0.180910 0.779555 0.947455 0.147152
H45   H     H_    0.472382 0.024248 0.557567 0.125645
H46   H     H_    0.853350 0.679769 0.070516 0.138356
H47   H     H_    0.680894 0.279527 0.947446 0.147155
H48   H     H_    0.353346 0.179785 0.070508 0.138344
H49   H     H_    0.789948 0.868095 0.036632 0.163992
H50   H     H_    0.104181 0.939871 0.934624 0.130908
H51   H     H_    0.289958 0.368102 0.036620 0.164001
H52   H     H_    0.604190 0.439848 0.934624 0.130919
H53   H     H_    0.383192 0.413569 0.061031 0.131958
H54   H     H_    0.616387 0.607437 0.930695 0.143545
H55   H     H_    0.883186 0.913553 0.061019 0.131976
H56   H     H_    0.483689 0.022694 0.426260 0.117599
H57   H     H_    0.116383 0.107458 0.930699 0.143550
H58   H     H_    0.403345 0.472446 0.939361 0.138066
H59   H     H_    0.607422 0.612270 0.060276 0.162197
H60   H     H_    0.903312 0.972390 0.939342 0.138102
H61   H     H_    0.107423 0.112284 0.060280 0.162205
H62   H     H_    0.310837 0.424912 0.914367 0.201294
H63   H     H_    0.598811 0.446690 0.062306 0.183841
H64   H     H_    0.810796 0.924883 0.914378 0.201258
H65   H     H_    0.098808 0.946707 0.062308 0.183821
H66   H     H_    0.086522 0.598388 0.051907 0.139390
H67   H     H_    0.972340 0.524243 0.557559 0.125666
H68   H     H_    0.074140 0.738421 0.001470 0.074498
H69   H     H_    0.043932 0.725940 0.091431 0.128140
H70   H     H_    0.940481 0.601512 0.924278 0.161001
H71   H     H_    0.944304 0.710151 0.998320 0.070559
H72   H     H_    0.957117 0.757526 0.908541 0.126469
H73   H     H_    0.586518 0.098291 0.051988 0.139507
H74   H     H_    0.574151 0.238206 0.001424 0.074495
H75   H     H_    0.543912 0.225946 0.091390 0.128098
H76   H     H_    0.440468 0.101504 0.924424 0.160855
H77   H     H_    0.444288 0.210434 0.998303 0.070602
H78   H     H_    0.983653 0.522683 0.426252 0.117598
H79   H     H_    0.457096 0.257432 0.908459 0.126572
H80   H     H_    0.077835 0.119137 0.444178 0.171145
O1    O     O_R   0.214300 0.709080 0.827500 -0.518954
O2    O     O_R   0.543340 0.717710 0.330180 -0.524006
O3    O     O_R   0.956660 0.217710 0.669820 -0.514565
O4    O     O_R   0.043340 0.217710 0.330180 -0.524008
O5    O     O_R   0.320590 0.625770 0.672930 -0.505858
O6    O     O_R   0.679410 0.625770 0.327070 -0.508885
O7    O     O_R   0.820590 0.125770 0.672930 -0.505862
O8    O     O_R   0.179410 0.125770 0.327070 -0.508890
O9    O     O_3   0.334270 0.834280 0.749190 -0.293269
O10   O     O_3   0.665730 0.834280 0.250810 -0.252968
O11   O     O_3   0.834270 0.334280 0.749190 -0.293274
O12   O     O_R   0.785700 0.709080 0.172500 -0.535520
O13   O     O_3   0.165730 0.334280 0.250810 -0.252971
O14   O     O_R   0.236190 0.958390 0.823150 -0.529080
O15   O     O_R   0.763810 0.958390 0.176850 -0.513798
O16   O     O_R   0.736190 0.458390 0.823150 -0.529078
O17   O     O_R   0.263810 0.458390 0.176850 -0.513803
O18   O     O_R   0.332090 0.075280 0.831290 -0.475229
O19   O     O_R   0.667910 0.075280 0.168710 -0.467143
O20   O     O_R   0.832090 0.575280 0.831290 -0.475275
O21   O     O_R   0.167910 0.575280 0.168710 -0.467121
O22   O     O_R   0.446280 0.918040 0.826620 -0.510163
O23   O     O_R   0.714300 0.209080 0.827500 -0.518966
O24   O     O_R   0.553720 0.918040 0.173380 -0.511963
O25   O     O_R   0.946280 0.418040 0.826620 -0.510209
O26   O     O_R   0.053720 0.418040 0.173380 -0.511947
O27   O     O_R   0.457080 0.716270 0.831760 -0.521200
O28   O     O_R   0.542920 0.716270 0.168240 -0.531713
O29   O     O_R   0.957080 0.216270 0.831760 -0.521192
O30   O     O_R   0.042920 0.216270 0.168240 -0.531717
O31   O     O_R   0.320980 0.624440 0.823040 -0.506702
O32   O     O_R   0.679020 0.624440 0.176960 -0.494576
O33   O     O_R   0.820980 0.124440 0.823040 -0.506698
O34   O     O_R   0.285700 0.209080 0.172500 -0.535515
O35   O     O_R   0.179020 0.124440 0.176960 -0.494574
O36   O     O_R   0.213880 0.710510 0.665560 -0.521420
O37   O     O_R   0.786120 0.710510 0.334440 -0.527434
O38   O     O_R   0.713880 0.210510 0.665560 -0.521420
O39   O     O_R   0.286120 0.210510 0.334440 -0.527432
O40   O     O_R   0.235800 0.959720 0.673040 -0.508115
O41   O     O_R   0.764200 0.959720 0.326960 -0.512414
O42   O     O_R   0.735800 0.459720 0.673040 -0.508114
O43   O     O_R   0.264200 0.459720 0.326960 -0.512413
O44   O     O_R   0.331670 0.076720 0.669350 -0.517378
O45   O     O_R   0.445900 0.919370 0.676500 -0.501644
O46   O     O_R   0.668330 0.076720 0.330650 -0.517458
O47   O     O_R   0.831670 0.576720 0.669350 -0.517377
O48   O     O_R   0.168330 0.576720 0.330650 -0.517459
O49   O     O_3   0.151564 0.744135 0.081883 -0.549396
O50   O     O_3   0.854605 0.716385 0.932445 -0.566301
O51   O     O_3   0.651547 0.244106 0.081863 -0.549422
O52   O     O_3   0.354590 0.216408 0.932429 -0.566290
O53   O     O_R   0.554100 0.919370 0.323500 -0.506596
O54   O     O_R   0.945900 0.419370 0.676500 -0.501644
O55   O     O_R   0.054100 0.419370 0.323500 -0.506597
O56   O     O_R   0.456660 0.717710 0.669820 -0.514566

loop_
_geom_bond_atom_site_label_1
_geom_bond_atom_site_label_2
_ccdc_geom_bond_type
C18   C70   S    
C83   C87   A    
Cr12  O9    S    
C123  O41   A    
C4    O56   A    
Cr10  O47   S    
C12   C22   S    
C35   C53   S    
C100  H14   S    
C97   H10   S    
C14   C18   S    
C13   C32   A    
C20   H34   S    
C86   C104  A    
C78   H3    S    
Cr4   O8    S    
C71   C79   S    
C39   H44   S    
C117  O35   A    
C76   H67   S    
C8    C118  S    
C90   C95   A    
C80   H80   S    
C74   H45   S    
C11   C121  S    
Cr7   O17   S    
C28   H75   S    
C34   C56   A    
C96   H9    S    
C99   H13   S    
C116  O23   A    
C50   C54   S    
C28   O51   S    
C32   C36   A    
C14   C21   S    
C96   C118  A    
C16   C20   S    
C26   H66   S    
C70   H40   S    
C41   C58   A    
C43   O49   S    
C14   H37   S    
Cr5   O41   S    
C95   C112  S    
C43   C114  A    
C122  O40   A    
C97   C119  A    
C106  H24   S    
C15   C25   S    
C112  H35   S    
C6    O54   A    
C98   H11   S    
C123  O46   A    
C6    C64   S    
C15   C16   S    
C55   H65   S    
C106  C110  S    
C4    C62   S    
C94   C111  S    
C54   H64   S    
Cr5   O12   S    
C27   H72   S    
Cr9   O19   S    
C3    C83   S    
C23   C67   S    
C89   C94   A    
C69   C71   A    
C70   C81   S    
Cr8   O22   S    
C53   H59   S    
C22   C66   S    
C86   C90   A    
C34   C52   S    
C109  H31   S    
C92   C103  S    
C111  H29   S    
C65   O27   A    
C15   C19   S    
C94   C120  A    
C1    O14   A    
C38   C55   S    
C107  H25   S    
C2    C44   A    
C4    O45   A    
Cr5   O10   S    
C86   C122  S    
C11   O39   A    
C56   C113  S    
Cr11  O13   S    
Cr3   O29   S    
Cr9   O24   S    
C104  H17   S    
Cr4   O4    S    
C62   C74   A    
C51   C55   S    
C107  H20   S    
Cr12  O27   S    
Cr7   O34   S    
Cr3   O7    S    
C93   C110  S    
C99   C121  A    
C26   O49   S    
C66   O24   A    
C95   C121  A    
C42   H48   S    
C99   C104  A    
C45   O51   S    
C124  O42   A    
Cr11  O48   S    
C36   C54   S    
C18   C22   S    
C58   C116  S    
C84   C101  A    
Cr8   O44   S    
C69   C78   S    
C59   O17   A    
C25   C68   S    
C19   C103  S    
C31   C49   S    
Cr1   O9    S    
C9    O6    A    
C113  O1    A    
Cr6   O42   S    
C82   H8    S    
Cr8   O18   S    
C77   H78   S    
C37   O19   A    
C40   H46   S    
C5    O2    A    
C67   O25   A    
Cr9   O46   S    
C32   C50   S    
Cr6   O23   S    
Cr4   O35   S    
C54   H60   S    
C87   C91   A    
C30   C34   A    
Cr10  O20   S    
Cr3   O3    S    
C53   H63   S    
C22   C81   S    
C30   C47   S    
C52   H58   S    
Cr9   O10   S    
C24   C33   A    
C72   C73   A    
C57   C115  S    
Cr1   O14   S    
C74   C75   A    
C78   H5    S    
C42   C60   A    
C110  H28   S    
C78   C79   S    
C25   C103  S    
C44   O50   S    
C49   H54   S    
C124  O47   A    
C2    C48   S    
C28   H73   S    
C113  O31   A    
C103  H43   S    
C110  H32   S    
C101  H15   S    
Cr2   O32   S    
C61   C75   A    
Cr11  O21   S    
Cr12  O31   S    
C2    C31   A    
Cr3   O33   S    
C48   O16   A    
C47   H53   S    
Cr1   O40   S    
C26   H68   S    
Cr10  O25   S    
C80   H7    S    
C88   C106  S    
C42   C46   A    
C29   H77   S    
C105  H22   S    
C87   C105  S    
Cr6   O16   S    
C1    O18   A    
C64   C73   A    
Cr9   O53   S    
C112  H30   S    
C19   H23   S    
C89   C107  S    
Cr11  O55   S    
C64   C76   A    
C91   C118  A    
C68   O26   A    
C60   C117  S    
Cr12  O56   S    
C39   C56   A    
C108  H26   S    
C76   C77   A    
C50   H55   S    
C7    C63   S    
C48   O20   A    
C92   H42   S    
C10   O7    A    
C1    C24   S    
C38   C60   A    
C7    O4    A    
Cr6   O38   S    
C16   H39   S    
C122  O44   A    
C59   O21   A    
C12   C14   S    
Cr6   O11   S    
C116  O33   A    
C16   C23   S    
C83   C100  A    
C51   H57   S    
C9    C119  S    
Cr7   O43   S    
C65   O22   A    
C20   C92   S    
C26   H69   S    
C33   C51   S    
Cr2   O28   S    
Cr7   O39   S    
C47   H51   S    
Cr4   O13   S    
C73   C82   S    
Cr11  O26   S    
C29   H76   S    
C115  O32   A    
C30   C114  A    
C61   C69   A    
Cr10  O54   S    
C37   O15   A    
C105  C109  S    
C88   C93   A    
C8    O36   A    
C85   C89   A    
C40   C57   A    
C15   H38   S    
C21   C65   S    
C10   O38   A    
C107  C111  S    
Cr1   O36   S    
C9    O37   A    
C84   C88   A    
Cr5   O37   S    
C27   O50   S    
Cr8   O45   S    
C11   O8    A    
C39   C43   A    
C117  O34   A    
Cr2   O6    S    
C98   C120  A    
C47   C52   S    
C108  H21   S    
C84   C124  S    
C12   H36   S    
Cr5   O15   S    
C36   C58   A    
C33   C38   A    
C21   C70   S    
C35   C57   A    
C27   H70   S    
C68   O30   A    
Cr10  O11   S    
C91   C109  S    
C7    O55   A    
C75   H56   S    
C28   H74   S    
C81   H41   S    
C115  O12   A    
C72   C80   S    
C51   H50   S    
C98   C102  A    
Cr8   O9    S    
C82   H2    S    
C12   C17   S    
C13   C45   A    
C5    C61   S    
C67   O29   A    
Cr7   O13   S    
C55   H61   S    
C49   H52   S    
C66   O28   A    
C13   C37   S    
Cr3   O11   S    
C59   C114  S    
C49   C53   S    
C96   C100  A    
C31   C35   A    
C105  H18   S    
Cr4   O30   S    
C80   C82   S    
C62   C71   A    
C85   C123  S    
C109  H27   S    
C17   C81   S    
Cr12  O5    S    
C5    O53   A    
C17   C21   S    
C29   H79   S    
C85   C102  A    
C18   H12   S    
C90   C108  S    
C6    O3    A    
C79   H6    S    
C108  C112  S    
C19   C23   S    
C40   C44   A    
C52   H62   S    
C63   C72   A    
C79   H4    S    
C27   H71   S    
C46   O52   S    
C106  H19   S    
C20   C25   S    
C63   C77   A    
C3    O48   A    
C29   O52   S    
C41   C45   A    
C23   C92   S    
C41   H47   S    
C17   H1    S    
C93   C119  A    
C111  H33   S    
C50   H49   S    
Cr2   O10   S    
C3    O43   A    
C10   C120  S    
C97   C101  A    
C8    O5    A    
Cr2   O2    S    
C102  H16   S    
C24   C46   A    
Cr1   O1    S    
