data_mof_unit_29814.cif
_audit_creation_date              2012-10-26T20:06:05-0400
_audit_creation_method            fapswitch 2.2
_symmetry_space_group_name_H-M    P1
_symmetry_Int_Tables_number       1
_space_group_crystal_system       triclinic
_cell_length_a                    9.552004
_cell_length_b                    10.829584
_cell_length_c                    13.430868
_cell_angle_alpha                 90.086704
_cell_angle_beta                  72.873778
_cell_angle_gamma                 90.217011
_cell_volume                      1327.73026251

loop_
_atom_site_label
_atom_site_type_symbol
_atom_type_description
_atom_site_fract_x
_atom_site_fract_y
_atom_site_fract_z
_atom_type_partial_charge
C1    C     C_R   0.500687 0.737807 0.498709 0.596783
C2    C     C_R   0.377876 0.544426 0.812037 0.023527
C3    C     C_R   0.628187 0.936593 0.497859 -0.062900
C4    C     C_R   0.422546 0.514029 0.699256 0.566845
C5    C     C_R   0.627698 0.064313 0.498621 -0.123201
C6    C     C_R   0.500096 0.128247 0.499291 0.017780
C7    C     C_R   0.373043 0.063373 0.499106 -0.126647
C8    C     C_R   0.373483 0.935632 0.498475 -0.128012
C9    C     C_R   0.500981 0.871718 0.498042 0.042480
C10   C     C_R   0.955672 0.572944 0.431943 0.365360
C11   C     C_R   0.103599 0.572524 0.432353 0.042685
C12   C     C_R   0.436591 0.549168 0.977469 0.006840
C13   C     C_R   0.045850 0.427228 0.567692 -0.021280
C14   C     C_R   0.897327 0.426975 0.567508 -0.014185
C15   C     C_R   0.499854 0.262170 0.499913 0.544154
C16   C     C_R   0.577830 0.497777 0.299922 0.552808
C17   C     C_R   0.800412 0.486916 0.016616 -0.120909
C18   C     C_R   0.620029 0.497850 0.185690 0.012442
C19   C     C_R   0.228452 0.553526 0.866717 -0.123066
C20   C     C_R   0.184374 0.568484 0.974427 -0.122775
C21   C     C_R   0.285436 0.559222 0.030078 -0.098160
C22   C     C_R   0.482270 0.560875 0.867703 0.028375
C23   C     C_R   0.544978 0.529422 0.028912 0.025113
C24   C     C_R   0.693876 0.519797 0.969058 0.020628
C25   C     C_R   0.736004 0.555271 0.864613 -0.122866
C26   C     C_R   0.630043 0.592879 0.818914 0.238501
C27   C     C_R   0.510787 0.518024 0.137211 -0.113747
C28   C     C_R   0.764638 0.478184 0.124818 -0.108787
Cl1   Cl    Cl    0.909983 0.672338 0.343296 -0.617751
Cu1   Cu    Cu3+1 0.359340 0.499980 0.500000 0.949407
Cu2   Cu    Cu3+1 0.640660 0.500020 0.500000 1.079718
H1    H     H_    0.849649 0.457525 0.160653 0.147555
H2    H     H_    0.399816 0.527777 0.185866 0.123657
H3    H     H_    0.145720 0.550227 0.826304 0.124550
H4    H     H_    0.241434 0.562845 0.113623 0.124456
H5    H     H_    0.070895 0.583678 0.016411 0.136808
H6    H     H_    0.727809 0.888974 0.497594 0.205928
H7    H     H_    0.898833 0.700981 0.658923 0.329227
H8    H     H_    0.727116 0.112682 0.498753 0.138129
H9    H     H_    0.273343 0.111021 0.499556 0.140184
H10   H     H_    0.273981 0.887236 0.498566 0.145289
H11   H     H_    0.182897 0.630994 0.378632 0.138248
H12   H     H_    0.078820 0.368885 0.622071 0.123944
H13   H     H_    0.818847 0.368546 0.621801 0.117957
H14   H     H_    0.850923 0.570498 0.823995 0.105179
H15   H     H_    0.911360 0.469875 0.969387 0.100790
N1    N     N_R   0.147940 0.499970 0.499970 -0.261100
N2    N     N_R   0.852060 0.500060 0.499990 -0.190729
O1    O     O_R   0.381250 0.680340 0.500010 -0.525549
O2    O     O_2   0.714866 0.828030 0.806720 -0.275570
O3    O     O_3   0.810494 0.706442 0.634837 -0.503265
O4    O     O_R   0.618820 0.680370 0.500010 -0.396496
O5    O     O_R   0.323240 0.499950 0.650980 -0.515677
O6    O     O_R   0.560810 0.499980 0.650980 -0.479957
O7    O     O_R   0.381180 0.319630 0.499990 -0.508593
O8    O     O_R   0.618750 0.319660 0.499990 -0.523093
O9    O     O_R   0.439190 0.500020 0.349020 -0.524572
O10   O     O_R   0.676760 0.500050 0.349020 -0.457913
O11   O     O_2   0.538884 0.773488 0.714550 -0.273475
S1    S     S_3+6 0.670815 0.729159 0.743070 0.024927

loop_
_geom_bond_atom_site_label_1
_geom_bond_atom_site_label_2
_ccdc_geom_bond_type
C2    C22   A    
C2    C4    S    
C23   C24   A    
C24   C25   A    
C6    C7    A    
C3    C9    A    
C23   C27   A    
C4    O5    A    
Cu1   O7    S    
C11   N1    A    
C19   C20   A    
C12   C23   A    
C28   H1    S    
Cu2   O4    S    
C7    H9    S    
O2    S1    D    
C15   O8    A    
C6    C15   S    
C17   H15   S    
C1    C9    S    
O11   S1    D    
C25   C26   A    
C16   O10   A    
C13   C14   A    
C20   C21   A    
C10   Cl1   S    
Cu2   N2    S    
C5    C6    A    
C26   S1    S    
C21   H4    S    
Cu2   O10   S    
C14   H13   S    
Cu1   O5    S    
Cu1   O1    S    
C16   O9    A    
C5    H8    S    
Cu2   O6    S    
C10   N2    A    
Cu1   Cu2   S    
Cu2   O8    S    
C1    O4    A    
C12   C22   A    
O3    S1    S    
C17   C24   A    
C7    C8    A    
C10   C11   A    
C20   H5    S    
Cu1   O9    S    
C25   H14   S    
Cu1   N1    S    
C13   H12   S    
C18   C28   A    
C8    H10   S    
C3    H6    S    
C11   H11   S    
C16   C18   S    
C22   C26   A    
C13   N1    A    
C14   N2    A    
H7    O3    S    
C4    O6    A    
C2    C19   A    
C17   C28   A    
C1    O1    A    
C12   C21   A    
C27   H2    S    
C18   C27   A    
C8    C9    A    
C3    C5    A    
C19   H3    S    
C15   O7    A    
