data_mof_unit_7231.cif
_audit_creation_date              2013-03-05T16:01:36-0500
_audit_creation_method            fapswitch 2.2
_symmetry_space_group_name_H-M    P1
_symmetry_Int_Tables_number       1
_space_group_crystal_system       triclinic
_cell_length_a                    14.703278
_cell_length_b                    14.584524
_cell_length_c                    23.519841
_cell_angle_alpha                 75.844791
_cell_angle_beta                  103.078194
_cell_angle_gamma                 115.18279
_cell_volume                      4382.50555304

loop_
_atom_site_label
_atom_site_type_symbol
_atom_site_description
_atom_site_fract_x
_atom_site_fract_y
_atom_site_fract_z
_atom_type_partial_charge
O1    O     O_R   0.977900 0.338110 0.520250 -0.590478
O2    O     O_R   0.022100 0.661890 0.479750 -0.577816
O3    O     O_R   0.839850 0.379180 0.494310 -0.569754
O4    O     O_R   0.160150 0.620820 0.505690 -0.580311
C1    C     C_R   0.879701 0.310647 0.507172 0.863474
C2    C     C_R   0.119697 0.688391 0.493317 0.849487
O5    O     O_R   0.069020 0.479430 0.595090 -0.574820
O6    O     O_R   0.930980 0.520570 0.404910 -0.576488
O7    O     O_R   0.930970 0.520500 0.569150 -0.579641
O8    O     O_R   0.069030 0.479500 0.430850 -0.579900
C3    C     C_R   0.999609 0.499477 0.608746 0.887431
C4    C     C_R   0.999218 0.498623 0.391235 0.886442
Cu1   Cu    Cu3+1 0.081740 0.475680 0.515360 0.953479
Cu2   Cu    Cu3+1 0.918260 0.524320 0.484640 0.959123
C5    C     C_R   0.043697 0.437075 0.135256 0.590683
C6    C     C_R   0.916801 0.512957 0.866170 0.593010
N1    N     N_R   0.981961 0.473500 0.149644 -0.463162
N2    N     N_R   0.979298 0.477521 0.851713 -0.467646
C7    C     C_R   0.916732 0.506812 0.107815 0.590780
C8    C     C_R   0.038961 0.437038 0.893811 0.595345
C9    C     C_R   0.913533 0.507785 0.047166 -0.154825
C10   C     C_R   0.039579 0.432814 0.954557 -0.156616
C11   C     C_R   0.977683 0.470976 0.031090 -0.077901
C12   C     C_R   0.976008 0.470327 0.970617 -0.081892
C13   C     C_R   0.043846 0.435245 0.075477 -0.153331
C14   C     C_R   0.911210 0.507768 0.926148 -0.153347
C15   C     C_R   0.847460 0.542881 0.002483 0.246984
C16   C     C_R   0.103396 0.394832 0.999343 0.250005
C17   C     C_R   0.845126 0.541306 0.942774 0.254800
C18   C     C_R   0.106941 0.397857 0.058938 0.251912
O9    O     O_2   0.103814 0.402272 0.179188 -0.467300
O10   O     O_2   0.862228 0.554799 0.822184 -0.468555
O11   O     O_2   0.855332 0.538349 0.125559 -0.451882
O12   O     O_2   0.098597 0.403089 0.876229 -0.450553
C19   C     C_R   0.062605 0.568182 0.762325 0.167891
C20   C     C_R   0.921830 0.393505 0.246985 0.169908
C21   C     C_R   0.069969 0.572848 0.702659 0.077534
C22   C     C_R   0.925516 0.399465 0.306697 0.090941
C23   C     C_R   0.996612 0.495102 0.671244 -0.212745
C24   C     C_R   0.993942 0.489996 0.329373 -0.217239
C25   C     C_R   0.917491 0.412915 0.698948 0.259062
C26   C     C_R   0.058871 0.572765 0.293102 0.282951
C27   C     C_R   0.911338 0.407146 0.758676 0.040480
C28   C     C_R   0.054753 0.567295 0.233570 0.053941
C29   C     C_R   0.983990 0.484719 0.790220 0.259606
C30   C     C_R   0.986340 0.477731 0.210780 0.250145
C31   C     C_R   0.811168 0.198737 0.510116 -0.095011
C32   C     C_R   0.187038 0.796178 0.500143 -0.106547
C33   C     C_R   0.785563 0.015996 0.537122 0.179130
C34   C     C_R   0.224883 0.959743 0.529441 0.193037
C35   C     C_R   0.850407 0.120834 0.522700 0.128734
C36   C     C_R   0.156148 0.858073 0.523072 0.107552
C37   C     C_R   0.704609 0.168712 0.502195 0.087704
C38   C     C_R   0.287636 0.834406 0.488716 0.036366
C39   C     C_R   0.641157 0.065155 0.520471 0.018662
C40   C     C_R   0.362251 0.918725 0.514502 0.009897
C41   C     C_R   0.678541 0.986824 0.529491 0.049433
C42   C     C_R   0.331113 0.986830 0.532015 0.051900
C43   C     C_R   0.538890 0.037678 0.527239 0.036662
C44   C     C_R   0.467286 0.938820 0.521161 0.037486
C45   C     C_R   0.502662 0.861674 0.524744 -0.198906
C46   C     C_R   0.509211 0.104031 0.545733 -0.182179
C47   C     C_R   0.606175 0.883354 0.528613 0.179158
C48   C     C_R   0.408171 0.077603 0.551980 0.169418
H1    H     H_    0.449630 0.782463 0.526634 0.168999
H2    H     H_    0.566891 0.173927 0.559953 0.189940
N3    N     N_R   0.795430 0.560810 0.461550 -0.179594
N4    N     N_R   0.204570 0.439190 0.538450 -0.178662
C49   C     C_R   0.696653 0.641710 0.388288 -0.268965
C50   C     C_R   0.308145 0.367223 0.613999 -0.276519
C51   C     C_R   0.789223 0.632639 0.411749 0.330239
C52   C     C_R   0.215692 0.376415 0.591778 0.342779
C53   C     C_R   0.715924 0.512728 0.493587 -0.015034
C54   C     C_R   0.281483 0.482584 0.504477 -0.013195
C55   C     C_R   0.626247 0.533856 0.475881 -0.048070
C56   C     C_R   0.372685 0.463878 0.522615 -0.052636
C57   C     C_R   0.612603 0.588509 0.418546 0.067789
C58   C     C_R   0.389215 0.414546 0.581328 0.063813
C59   C     C_R   0.549115 0.500797 0.512471 -0.017386
C60   C     C_R   0.449900 0.497043 0.485811 -0.022919
C61   C     C_R   0.431859 0.526027 0.423331 0.140241
C62   C     C_R   0.569178 0.475959 0.574996 0.151588
C63   C     C_R   0.515264 0.586441 0.392114 0.153671
C64   C     C_R   0.487375 0.418874 0.607642 0.152723
H3    H     H_    0.272904 0.534919 0.464508 0.160185
H4    H     H_    0.722106 0.457082 0.532456 0.171500
H5    H     H_    0.691565 0.691536 0.346348 0.163302
H6    H     H_    0.315929 0.324168 0.658064 0.170036
N5    N     N_R   0.781093 0.580262 0.016795 0.194153
O13   O     O_R   0.683849 0.525827 0.011984 -0.242825
O14   O     O_R   0.815917 0.674383 0.026112 -0.252289
N6    N     N_R   0.166693 0.353528 0.985236 0.193044
O15   O     O_R   0.264514 0.404637 0.990101 -0.242850
O16   O     O_R   0.128100 0.259480 0.975283 -0.252119
C65   C     C_3   0.833363 0.940938 0.571102 -0.829389
H7    H     H_    0.909473 0.980912 0.595197 0.242217
H8    H     H_    0.788647 0.887777 0.606606 0.248512
H9    H     H_    0.842112 0.898445 0.540898 0.224618
C66   C     C_3   0.181683 0.039463 0.524493 -0.851917
H10   H     H_    0.102647 0.015111 0.501229 0.236045
H11   H     H_    0.180923 0.052720 0.568789 0.232337
H12   H     H_    0.224177 0.111759 0.496219 0.240403
C67   C     C_3   0.499313 0.642512 0.329594 -0.793235
H13   H     H_    0.420628 0.638052 0.315163 0.266526
H14   H     H_    0.548329 0.725599 0.327122 0.225846
H15   H     H_    0.518176 0.610114 0.297906 0.248323
C68   C     C_3   0.506525 0.370634 0.671841 -0.805072
H16   H     H_    0.584820 0.373529 0.685419 0.265073
H17   H     H_    0.492332 0.410492 0.701437 0.253386
H18   H     H_    0.455957 0.287902 0.678845 0.223256
C69   C     C_3   0.135679 0.319989 0.632407 -0.731010
H19   H     H_    0.058419 0.308931 0.611650 0.286738
H20   H     H_    0.133260 0.241108 0.650097 0.186241
H21   H     H_    0.155198 0.360677 0.670452 0.237095
C70   C     C_3   0.879270 0.706821 0.380877 -0.685610
H22   H     H_    0.937924 0.756107 0.411273 0.226755
H23   H     H_    0.910146 0.668387 0.360249 0.276071
H24   H     H_    0.858370 0.761368 0.343836 0.187750
C71   C     C_3   0.328250 0.477581 0.388107 -0.815332
H25   H     H_    0.336202 0.452095 0.349337 0.260847
H26   H     H_    0.277900 0.407054 0.414171 0.229297
H27   H     H_    0.291334 0.533264 0.371857 0.258564
C72   C     C_3   0.673877 0.527984 0.608323 -0.832956
H28   H     H_    0.667445 0.556255 0.646424 0.257124
H29   H     H_    0.712371 0.473853 0.625206 0.264281
H30   H     H_    0.722349 0.597422 0.580627 0.227864
N7    N     N_R   0.773099 0.572472 0.899578 0.190678
O17   O     O_R   0.780990 0.667093 0.890076 -0.260415
O18   O     O_R   0.692816 0.503647 0.875339 -0.276534
N8    N     N_R   0.176126 0.362617 0.102180 0.191370
O19   O     O_R   0.158716 0.265166 0.114763 -0.261648
O20   O     O_R   0.263242 0.428893 0.122199 -0.264396
C73   C     C_3   0.138894 0.652704 0.795938 -0.729119
H31   H     H_    0.137142 0.728030 0.772622 0.227271
H32   H     H_    0.123979 0.643002 0.841574 0.228733
H33   H     H_    0.216270 0.654922 0.799208 0.246102
C74   C     C_3   0.848713 0.297247 0.222161 -0.724509
H34   H     H_    0.866031 0.230231 0.247344 0.230435
H35   H     H_    0.769611 0.283284 0.225444 0.239524
H36   H     H_    0.852314 0.301603 0.175000 0.231729
C75   C     C_3   0.155742 0.661652 0.673378 -0.812171
H37   H     H_    0.155680 0.657858 0.626985 0.215928
H38   H     H_    0.150436 0.735483 0.672955 0.232705
H39   H     H_    0.229924 0.662735 0.698136 0.251327
C76   C     C_3   0.856807 0.308205 0.345374 -0.816758
H40   H     H_    0.866741 0.320182 0.391200 0.198948
H41   H     H_    0.776149 0.292046 0.326748 0.242478
H42   H     H_    0.872979 0.239475 0.347960 0.233469
N9    N     N_R   0.846672 0.331967 0.667136 0.120018
O21   O     O_R   0.879211 0.279130 0.645660 -0.391367
O22   O     O_R   0.749553 0.308106 0.661493 -0.405556
N10   N     N_R   0.128165 0.663102 0.316880 0.100350
O23   O     O_R   0.094022 0.723988 0.329041 -0.397312
O24   O     O_R   0.225491 0.687874 0.322730 -0.406737
C77   C     C_3   0.828977 0.315998 0.788748 -0.628816
H43   H     H_    0.838094 0.313065 0.837134 0.214468
H44   H     H_    0.753861 0.319048 0.769604 0.249323
H45   H     H_    0.829680 0.243417 0.782253 0.252461
C78   C     C_3   0.120624 0.656858 0.192858 -0.661047
H46   H     H_    0.173126 0.633830 0.177950 0.233724
H47   H     H_    0.072231 0.680225 0.153548 0.234898
H48   H     H_    0.166625 0.725937 0.213727 0.274529
C79   C     C_3   0.632026 0.796848 0.521857 -0.844344
H49   H     H_    0.563791 0.733322 0.504724 0.228590
H50   H     H_    0.685239 0.824485 0.488855 0.236975
H51   H     H_    0.663146 0.762522 0.565012 0.243019
C80   C     C_3   0.389905 0.143056 0.585465 -0.842775
H52   H     H_    0.461791 0.191289 0.609914 0.242734
H53   H     H_    0.358519 0.196872 0.554977 0.237283
H54   H     H_    0.340100 0.093729 0.619500 0.239747
C81   C     C_3   0.309552 0.797606 0.440319 -0.721684
H55   H     H_    0.380982 0.852543 0.422877 0.233643
H56   H     H_    0.313274 0.721011 0.455742 0.228378
H57   H     H_    0.248826 0.793396 0.402299 0.294963
C82   C     C_3   0.656493 0.239795 0.461492 -0.789595
H58   H     H_    0.578378 0.196473 0.440953 0.230945
H59   H     H_    0.653492 0.294292 0.485936 0.242889
H60   H     H_    0.699306 0.282971 0.423530 0.235192
C83   C     C_3   0.051787 0.816647 0.541842 -0.833489
H61   H     H_    0.033575 0.738529 0.568476 0.237322
H62   H     H_    0.047493 0.864000 0.570808 0.234348
H63   H     H_    0.993458 0.814601 0.502433 0.237294
C84   C     C_3   0.958410 0.146802 0.513984 -0.819954
H64   H     H_    0.978850 0.205568 0.473750 0.237074
H65   H     H_    0.012089 0.173857 0.553551 0.248537
H66   H     H_    0.967667 0.079701 0.505801 0.225536

loop_
_geom_bond_atom_site_label_1
_geom_bond_atom_site_label_2
_geom_bond_distance
_ccdc_geom_bond_type
C81   H55   1.109683 S    
C39   C43   1.418182 A    
C50   C58   1.393795 A    
C68   H17   1.110353 S    
C49   C57   1.395600 A    
C65   H7    1.110280 S    
C84   H64   1.110495 S    
C50   H6    1.081986 S    
C19   C73   1.517029 S    
C76   H40   1.101200 S    
C65   H9    1.108987 S    
C72   H28   1.110955 S    
C23   C25   1.410346 A    
C32   C38   1.405593 A    
C81   H56   1.107851 S    
C34   C66   1.515812 S    
C2    C32   1.484683 S    
O1    C1    1.306466 A    
C79   H50   1.109291 S    
C56   C58   1.412317 A    
C48   C80   1.511693 S    
C35   C84   1.518133 S    
N9    O22   1.300671 A    
C72   H29   1.107483 S    
C25   N9    1.439145 S    
C57   C63   1.416163 A    
Cu2   N3    2.018048 S    
N4    C54   1.367621 A    
C70   H22   1.102866 S    
C64   C68   1.520136 S    
C33   C41   1.424487 A    
C15   C17   1.402561 A    
C82   H59   1.108635 S    
C49   C51   1.397201 A    
O4    Cu1   1.915219 S    
C45   C47   1.402329 A    
C46   C48   1.400359 A    
C76   H41   1.109700 S    
C79   H49   1.111730 S    
C70   H23   1.097704 S    
C54   C56   1.431831 A    
C73   H33   1.109751 S    
C34   C36   1.416814 A    
C11   C12   1.419229 A    
C78   H47   1.109849 S    
C20   C30   1.412850 A    
N3    C53   1.366974 A    
C82   H60   1.109962 S    
C26   N10   1.430675 S    
C20   C74   1.516560 S    
C47   C79   1.514931 S    
N3    C51   1.382240 A    
C49   H5    1.081188 S    
N4    C52   1.382418 A    
C31   C37   1.416033 A    
C83   H63   1.107954 S    
C8    O12   1.348597 S    
C24   C26   1.407315 A    
C9    C15   1.417143 A    
C52   C69   1.508200 S    
C43   C44   1.395910 A    
C10   C16   1.416503 A    
Cu1   Cu2   2.686535 S    
C77   H45   1.110456 S    
C42   C48   1.429552 A    
C25   C27   1.407805 A    
O7    C3    1.295438 A    
O2    C2    1.300583 A    
C26   C28   1.408082 A    
C27   C77   1.513838 S    
O8    C4    1.297407 A    
C74   H36   1.107452 S    
C28   C30   1.409153 A    
C41   C47   1.431320 A    
C80   H54   1.109018 S    
C37   C39   1.414603 A    
C6    C14   1.413308 A    
C81   H57   1.104310 S    
C38   C40   1.413945 A    
C46   H2    1.083016 S    
C34   C42   1.429371 A    
C79   H51   1.107446 S    
N1    C30   1.439997 S    
C69   H20   1.111595 S    
C7    O11   1.348516 S    
C84   H66   1.109334 S    
C80   H52   1.110280 S    
N1    C7    1.363637 A    
C72   H30   1.109542 S    
C31   C35   1.423885 A    
C33   C35   1.419177 A    
C18   N8    1.433303 S    
C83   H61   1.108754 S    
C80   H53   1.107437 S    
C44   C45   1.405492 A    
C75   H38   1.109752 S    
C67   H15   1.110390 S    
C4    C24   1.472738 S    
N8    O20   1.301040 A    
O7    Cu2   1.943042 S    
N7    O18   1.301145 A    
C22   C76   1.516271 S    
C58   C64   1.416832 A    
C84   H65   1.107630 S    
C74   H35   1.109735 S    
O5    C3    1.295545 A    
C78   H46   1.110106 S    
O5    Cu1   1.942180 S    
O6    C4    1.297013 A    
C70   H24   1.110943 S    
N6    O16   1.301072 A    
C78   H48   1.106859 S    
C51   C70   1.510797 S    
C67   H14   1.110172 S    
C39   C41   1.419622 A    
C33   C65   1.517772 S    
C3    C23   1.465526 S    
C77   H44   1.109723 S    
C27   C29   1.412407 A    
C71   H26   1.109428 S    
C21   C75   1.519537 S    
O4    C2    1.299951 A    
C66   H11   1.108416 S    
N10   O24   1.300948 A    
C62   C64   1.408000 A    
C17   N7    1.434292 S    
C73   H31   1.109656 S    
C68   H18   1.109326 S    
C10   C12   1.418378 A    
C75   H39   1.109688 S    
O1    Cu1   1.931213 S    
C53   C55   1.428797 A    
C68   H16   1.108083 S    
N7    O17   1.300940 A    
C19   C29   1.415442 A    
N2    C29   1.439553 S    
C62   C72   1.520104 S    
C77   H43   1.107656 S    
C76   H42   1.109741 S    
C37   C82   1.524473 S    
C71   H27   1.108900 S    
C19   C21   1.414762 A    
C13   C18   1.416618 A    
C5    N1    1.363087 A    
C43   C46   1.402593 A    
O6    Cu2   1.942182 S    
C69   H19   1.089218 S    
C7    C9    1.413331 A    
C38   C81   1.516428 S    
C56   C60   1.429972 A    
C8    C10   1.413045 A    
C60   C61   1.422581 A    
O3    C1    1.305442 A    
O8    Cu1   1.943044 S    
C61   C63   1.410971 A    
C59   C62   1.419488 A    
C71   H25   1.110983 S    
C65   H8    1.108465 S    
C5    O9    1.348537 S    
O3    Cu2   1.915218 S    
C6    O10   1.348611 S    
C74   H34   1.109673 S    
C61   C71   1.518373 S    
C66   H10   1.109974 S    
C63   C67   1.518220 S    
C9    C11   1.418584 A    
N8    O19   1.300799 A    
C36   C83   1.517115 S    
C21   C23   1.415378 A    
C82   H58   1.110102 S    
N9    O21   1.300523 A    
C20   C22   1.415657 A    
C22   C24   1.418133 A    
C12   C14   1.418547 A    
C16   C18   1.401640 A    
N6    O15   1.300860 A    
C1    C31   1.503583 S    
C40   C42   1.427707 A    
C15   N5    1.433149 S    
C69   H21   1.110750 S    
N2    C8    1.363909 A    
C11   C13   1.418989 A    
C54   H3    1.076828 S    
O2    Cu2   1.931213 S    
C53   H4    1.079335 S    
C5    C13   1.413281 A    
C59   C60   1.434954 A    
C16   N6    1.433100 S    
C45   H1    1.081003 S    
C32   C36   1.417692 A    
C66   H12   1.108517 S    
C40   C44   1.422413 A    
N10   O23   1.300356 A    
C14   C17   1.416416 A    
C6    N2    1.363319 A    
N5    O14   1.301047 A    
C55   C57   1.407834 A    
C67   H13   1.107678 S    
C73   H32   1.107255 S    
C28   C78   1.514104 S    
C50   C52   1.392221 A    
N5    O13   1.300820 A    
C75   H37   1.105755 S    
C55   C59   1.425704 A    
C83   H62   1.109858 S    
Cu1   N4    2.018046 S    
