data_mof_unit_67572.cif
_audit_creation_date              2013-03-05T15:41:22-0500
_audit_creation_method            fapswitch 2.2
_symmetry_space_group_name_H-M    P1
_symmetry_Int_Tables_number       1
_space_group_crystal_system       triclinic
_cell_length_a                    10.655493
_cell_length_b                    8.826667
_cell_length_c                    7.578185
_cell_angle_alpha                 102.409227
_cell_angle_beta                  96.244554
_cell_angle_gamma                 93.830291
_cell_volume                      688.97416386

loop_
_atom_site_label
_atom_site_type_symbol
_atom_site_description
_atom_site_fract_x
_atom_site_fract_y
_atom_site_fract_z
_atom_type_partial_charge
O1    O     O_R   0.509190 0.286130 0.619780 -0.576585
O2    O     O_R   0.490810 0.713870 0.380220 -0.553794
O3    O     O_R   0.485310 0.256770 0.308360 -0.568482
O4    O     O_R   0.514690 0.743230 0.691640 -0.550794
C1    C     C_R   0.495666 0.201027 0.454076 0.823099
C2    C     C_R   0.502312 0.799009 0.545361 0.861075
O5    O     O_R   0.328790 0.514640 0.655680 -0.576701
O6    O     O_R   0.671210 0.485360 0.344320 -0.581198
O7    O     O_R   0.304910 0.485280 0.344260 -0.573457
O8    O     O_R   0.695090 0.514720 0.655740 -0.577804
C3    C     C_R   0.259729 0.491669 0.497475 0.852776
C4    C     C_R   0.740186 0.508576 0.502522 0.856674
Cu1   Cu    Cu3+1 0.514140 0.517380 0.684380 1.030172
Cu2   Cu    Cu3+1 0.485860 0.482620 0.315620 1.031652
N1    N     N_2   0.464560 0.456420 0.038510 -0.196774
N2    N     N_2   0.535440 0.543580 0.961490 -0.191834
C5    C     C_3   0.053531 0.472763 0.656428 -0.025390
C6    C     C_3   0.946141 0.527768 0.343497 -0.023105
C7    C     C_3   0.947206 0.366773 0.525126 0.009423
C8    C     C_3   0.052460 0.633643 0.474745 0.011586
C9    C     C_3   0.876887 0.510331 0.506439 -0.103346
C10   C     C_3   0.122865 0.490063 0.493390 -0.104479
C11   C     C_3   0.983356 0.617011 0.638741 -0.029735
C12   C     C_3   0.016247 0.383435 0.360989 -0.030344
H1    H     H_    0.401793 0.374633 0.948839 0.257702
H2    H     H_    0.598811 0.624657 0.051085 0.268917
C13   C     C_2   0.503095 0.035530 0.428840 -0.228938
C14   C     C_2   0.486440 0.963020 0.566274 -0.179507
C15   C     C_2   0.894260 0.212670 0.550716 0.287317
H3    H     H_    0.957507 0.123574 0.564141 0.092551
O9    O     O_2   0.780744 0.184758 0.550506 -0.599799
C16   C     C_2   0.105128 0.787623 0.448825 0.285940
H4    H     H_    0.042023 0.877182 0.437043 0.092063
O10   O     O_2   0.218377 0.814789 0.446577 -0.595251
C17   C     C_2   0.112082 0.431919 0.826376 0.325764
H5    H     H_    0.108429 0.507569 0.957962 0.080201
O11   O     O_2   0.163686 0.311621 0.816495 -0.623268
C18   C     C_2   0.887629 0.569415 0.173972 0.320310
H6    H     H_    0.891902 0.494701 0.042042 0.077640
O12   O     O_2   0.835652 0.689533 0.184610 -0.617389
C19   C     C_3   0.975671 0.756180 0.794051 -0.425151
C20   C     C_3   0.107754 0.847132 0.863169 -0.357964
C21   C     C_3   0.142979 0.869628 0.066703 -0.694674
H7    H     H_    0.060826 0.902715 0.138470 0.236497
H8    H     H_    0.173846 0.759859 0.097678 0.274859
H9    H     H_    0.222501 0.962291 0.115349 0.271100
H10   H     H_    0.184942 0.786722 0.798595 0.256518
H11   H     H_    0.109449 0.962911 0.827900 0.224780
H12   H     H_    0.909625 0.832856 0.741953 0.185513
H13   H     H_    0.933379 0.713944 0.902983 0.242877
C22   C     C_3   0.022450 0.244452 0.204732 -0.415114
C23   C     C_3   0.889618 0.155082 0.136426 -0.364176
C24   C     C_3   0.853389 0.132945 0.933091 -0.723003
H14   H     H_    0.825256 0.243792 0.902031 0.269344
H15   H     H_    0.934278 0.096251 0.860320 0.243572
H16   H     H_    0.771640 0.043134 0.885676 0.267695
H17   H     H_    0.887168 0.039204 0.171461 0.226901
H18   H     H_    0.813238 0.216579 0.201820 0.250222
H19   H     H_    0.064475 0.286559 0.095546 0.243287
H20   H     H_    0.088005 0.166847 0.255851 0.182821
C25   C     C_2   0.543548 0.958303 0.252748 0.515154
H21   H     H_    0.641317 0.976440 0.228450 0.085840
O13   O     O_2   0.465888 0.879342 0.132196 -0.494560
C26   C     C_2   0.437293 0.040955 0.735396 0.463947
H22   H     H_    0.348496 0.094047 0.727139 0.094587
O14   O     O_2   0.499145 0.052432 0.883443 -0.517765

loop_
_geom_bond_atom_site_label_1
_geom_bond_atom_site_label_2
_geom_bond_distance
_ccdc_geom_bond_type
C23   H17   1.109945 S    
O5    C3    1.305243 A    
O7    Cu2   1.964731 S    
C15   H3    1.083175 S    
C6    C9    1.535483 S    
O7    C3    1.296217 A    
C19   C20   1.551646 S    
C3    C10   1.454366 S    
C5    C10   1.536315 S    
C5    C11   1.541729 S    
C8    C11   1.539910 S    
O6    C4    1.304645 A    
C21   H7    1.103097 S    
C16   H4    1.083190 S    
C25   H21   1.084874 S    
C12   C22   1.521522 S    
C9    C11   1.543700 S    
C7    C12   1.540543 S    
C6    C18   1.494534 S    
O2    Cu2   1.989809 S    
C22   C23   1.552262 S    
C15   O9    1.217926 D    
C20   H11   1.110009 S    
Cu1   Cu2   2.725858 S    
C26   H22   1.085237 S    
C24   H16   1.110646 S    
C18   O12   1.220147 D    
C21   H8    1.107049 S    
C1    C13   1.440629 S    
C26   O14   1.218493 D    
O2    C2    1.302327 A    
O3    Cu2   1.982006 S    
O8    C4    1.296078 A    
O1    C1    1.304863 A    
C14   C26   1.485017 S    
C10   C12   1.544825 S    
C19   H12   1.107797 S    
C7    C9    1.538829 S    
C8    C10   1.539420 S    
C6    C8    1.536224 S    
C20   H10   1.110971 S    
C24   H15   1.102659 S    
N2    H2    1.027603 S    
C18   H6    1.080324 S    
C23   H18   1.110747 S    
C21   H9    1.110282 S    
C6    C12   1.541696 S    
N1    H1    1.027630 S    
C22   H19   1.101740 S    
C20   C21   1.513878 S    
N1    N2    1.309284 D    
C7    C15   1.496900 S    
O3    C1    1.299195 A    
C19   H13   1.101944 S    
O5    Cu1   1.961225 S    
C5    C17   1.494223 S    
O1    Cu1   1.989808 S    
C23   C24   1.514178 S    
C17   O11   1.219936 D    
O4    C2    1.303868 A    
C8    C16   1.495854 S    
Cu1   N2    2.048300 S    
O4    Cu1   1.982006 S    
C25   O13   1.220637 D    
Cu2   N1    2.048300 S    
O6    Cu2   1.961227 S    
C22   H20   1.107390 S    
C13   C25   1.484820 S    
C5    C7    1.536862 S    
C24   H14   1.106960 S    
C4    C9    1.452671 S    
C2    C14   1.445478 S    
C17   H5    1.080510 S    
C16   O10   1.217191 D    
C13   C14   1.355500 D    
O8    Cu1   1.964731 S    
C11   C19   1.521170 S    
