data_mof_unit_45807.cif
_audit_creation_date              2012-12-11T17:29:28-0500
_audit_creation_method            fapswitch 2.2
_symmetry_space_group_name_H-M    P1
_symmetry_Int_Tables_number       1
_space_group_crystal_system       triclinic
_cell_length_a                    6.950212
_cell_length_b                    21.495349
_cell_length_c                    23.684121
_cell_angle_alpha                 90.213617
_cell_angle_beta                  90.012431
_cell_angle_gamma                 90.094015
_cell_volume                      3538.31268958

loop_
_atom_site_label
_atom_site_type_symbol
_atom_type_description
_atom_site_fract_x
_atom_site_fract_y
_atom_site_fract_z
_atom_type_partial_charge
O1    O     O_R   0.385180 0.195030 0.193850 -0.534329
O2    O     O_R   0.614820 0.804970 0.806150 -0.533419
O3    O     O_R   0.714780 0.188250 0.308340 -0.540368
O4    O     O_R   0.285220 0.811750 0.691660 -0.539415
O5    O     O_R   0.885140 0.307540 0.308730 -0.536010
O6    O     O_R   0.114860 0.692460 0.691270 -0.535625
C1    C     C_R   0.545872 0.173180 0.327645 0.721443
C2    C     C_R   0.454128 0.826820 0.672355 0.725528
O7    O     O_R   0.714890 0.187670 0.194260 -0.539826
O8    O     O_R   0.285110 0.812330 0.805740 -0.538388
O9    O     O_R   0.885250 0.306950 0.193830 -0.532205
O10   O     O_R   0.114750 0.693050 0.806170 -0.535217
C3    C     C_R   0.546022 0.172636 0.174702 0.714521
C4    C     C_R   0.453995 0.827423 0.825255 0.712256
O11   O     O_R   0.385070 0.195610 0.308740 -0.536890
O12   O     O_R   0.614930 0.804390 0.691260 -0.535455
O13   O     O_3   0.551660 0.290420 0.251280 -0.358873
O14   O     O_3   0.448340 0.709580 0.748720 -0.363300
V1    V     V_3+5 0.826490 0.244020 0.251290 1.445291
V2    V     V_3+5 0.173510 0.755980 0.748710 1.437647
O15   O     O_R   0.214970 0.314310 0.194240 -0.528540
O16   O     O_R   0.785030 0.685690 0.805760 -0.535845
C5    C     C_R   0.046280 0.329350 0.174911 0.720233
C6    C     C_R   0.953754 0.670592 0.825034 0.726174
O17   O     O_R   0.214860 0.314890 0.308320 -0.530711
O18   O     O_R   0.785140 0.685110 0.691680 -0.530227
C7    C     C_R   0.046216 0.329975 0.327627 0.722809
C8    C     C_R   0.953786 0.670014 0.672384 0.726505
V3    V     V_3+5 0.326500 0.258540 0.251290 1.478109
V4    V     V_3+5 0.673500 0.741460 0.748710 1.456837
O19   O     O_3   0.051460 0.212150 0.251290 -0.374076
O20   O     O_3   0.948540 0.787850 0.748710 -0.370872
C9    C     C_3   0.954916 0.471038 0.547456 0.457182
C10   C     C_3   0.045090 0.528903 0.452609 0.458235
C11   C     C_3   0.138316 0.458971 0.512657 -0.081791
C12   C     C_3   0.861689 0.540967 0.487407 -0.081971
H1    H     H_    0.310560 0.554342 0.512638 0.170592
H2    H     H_    0.689446 0.445594 0.487431 0.170724
C13   C     C_1   0.036952 0.375356 0.372921 -0.149903
C14   C     C_1   0.963054 0.624613 0.627111 -0.151434
C15   C     C_3   0.828922 0.469916 0.493354 -0.338489
C16   C     C_3   0.171083 0.530022 0.506711 -0.338400
C17   C     C_3   0.014718 0.458271 0.458272 -0.012958
C18   C     C_3   0.985289 0.541668 0.541789 -0.012848
C19   C     C_1   0.027830 0.412895 0.411218 0.106354
C20   C     C_1   0.972178 0.587056 0.588829 0.105914
C21   C     C_R   0.137964 0.509922 0.042759 -0.141384
C22   C     C_R   0.868581 0.487420 0.954822 -0.161283
C23   C     C_R   0.021158 0.455823 0.044060 -0.109188
C24   C     C_R   0.987397 0.541025 0.953133 -0.109722
C25   C     C_R   0.889268 0.444487 0.999873 0.384807
C26   C     C_R   0.121278 0.551900 0.996910 0.379222
C27   C     C_1   0.030003 0.411804 0.091075 0.121448
C28   C     C_1   0.972550 0.586640 0.907566 0.094201
C29   C     C_1   0.963313 0.624790 0.869857 -0.161752
C30   C     C_1   0.037267 0.374520 0.129529 -0.136763
H3    H     H_    0.201958 0.044613 0.459096 0.112189
H4    H     H_    0.798042 0.955387 0.540905 0.112256
C31   C     C_R   0.319947 0.981658 0.520558 -0.154833
C32   C     C_R   0.680053 0.018343 0.479443 -0.154705
H5    H     H_    0.179559 0.967914 0.536011 0.111437
H6    H     H_    0.820441 0.032087 0.463989 0.111455
C33   C     C_R   0.487149 0.955970 0.544195 0.136019
C34   C     C_R   0.512851 0.044030 0.455806 0.136065
C35   C     C_R   0.667281 0.974637 0.523300 -0.153029
C36   C     C_R   0.332719 0.025364 0.476701 -0.152951
C37   C     C_1   0.474150 0.910556 0.589587 -0.057915
C38   C     C_1   0.525851 0.089444 0.410413 -0.057963
C39   C     C_1   0.535739 0.127484 0.372612 -0.185704
C40   C     C_1   0.464261 0.872516 0.627388 -0.186479
C41   C     C_R   0.326820 0.969320 0.988773 -0.314854
C42   C     C_R   0.673007 0.031428 0.010664 -0.319665
H7    H     H_    0.191635 0.945859 0.980437 0.195057
H8    H     H_    0.808177 0.054891 0.019015 0.192997
C43   C     C_R   0.488082 0.956238 0.955066 -0.033024
C44   C     C_R   0.511804 0.044451 0.044409 -0.032369
C45   C     C_R   0.661801 0.988114 0.965840 0.437852
C46   C     C_R   0.337989 0.012660 0.033564 0.434140
C47   C     C_1   0.474149 0.910813 0.909131 0.036936
C48   C     C_1   0.525893 0.089679 0.090489 0.031826
C49   C     C_1   0.536010 0.127289 0.128978 -0.183746
C50   C     C_1   0.464058 0.872992 0.870805 -0.178746
C51   C     C_2   0.294705 0.414357 0.528126 0.746634
O21   O     O_2   0.378955 0.420642 0.573075 -0.547072
O22   O     O_R   0.342947 0.365851 0.491395 -0.677599
H9    H     H_    0.449994 0.338745 0.506701 0.274677
C52   C     C_2   0.705292 0.585580 0.471941 0.747280
O23   O     O_2   0.621038 0.579295 0.426992 -0.546179
O24   O     O_R   0.657050 0.634085 0.508673 -0.677516
H10   H     H_    0.550005 0.661192 0.493368 0.274968
O25   O     O_3   0.909368 0.444001 0.600023 -0.531088
C53   C     C_3   0.865834 0.380387 0.592593 0.140144
H11   H     H_    0.991111 0.354594 0.575184 0.108863
H12   H     H_    0.740332 0.373964 0.564087 0.130024
C54   C     C_3   0.815064 0.352323 0.649512 -0.636880
H13   H     H_    0.688151 0.376497 0.667715 0.243536
H14   H     H_    0.780286 0.302194 0.644242 0.160079
H15   H     H_    0.938627 0.357093 0.678970 0.223077
O26   O     O_3   0.090646 0.555970 0.400055 -0.530842
C55   C     C_3   0.134171 0.619582 0.407522 0.136974
H16   H     H_    0.259705 0.625986 0.436018 0.130176
H17   H     H_    0.008913 0.645360 0.424961 0.109374
C56   C     C_3   0.184868 0.647698 0.350620 -0.628374
H18   H     H_    0.061277 0.642948 0.321169 0.224256
H19   H     H_    0.219623 0.697825 0.355923 0.160908
H20   H     H_    0.311780 0.623548 0.332390 0.244231
O27   O     O_3   0.225526 0.606823 0.996983 -0.530724
C57   C     C_3   0.400626 0.597301 0.968086 0.141087
H21   H     H_    0.376680 0.577938 0.924919 0.123768
H22   H     H_    0.495469 0.565284 0.992230 0.135996
C58   C     C_3   0.502563 0.659568 0.962128 -0.663536
H23   H     H_    0.532810 0.679605 0.004507 0.237177
H24   H     H_    0.640291 0.653301 0.939337 0.171971
H25   H     H_    0.410980 0.692357 0.937945 0.210761
O28   O     O_3   0.772506 0.392310 0.002405 -0.522580
C59   C     C_3   0.865886 0.342703 0.974429 0.138946
H26   H     H_    0.010008 0.333333 0.993192 0.107101
H27   H     H_    0.883101 0.352974 0.928647 0.123099
C60   C     C_3   0.744604 0.284120 0.980301 -0.678608
H28   H     H_    0.600397 0.291522 0.961274 0.233437
H29   H     H_    0.816095 0.244727 0.958312 0.165032
H30   H     H_    0.727281 0.272235 0.025630 0.215772
C61   C     C_2   0.277450 0.523672 0.088982 0.822466
O29   O     O_2   0.364991 0.481444 0.111963 -0.554364
O30   O     O_R   0.310761 0.585189 0.105811 -0.631847
H31   H     H_    0.409643 0.588552 0.137157 0.299199
C62   C     C_2   0.720477 0.475943 0.910390 0.770703
O31   O     O_2   0.567858 0.451006 0.922673 -0.545687
O32   O     O_R   0.755341 0.493120 0.854428 -0.666019
H32   H     H_    0.643433 0.482998 0.828489 0.297647
O33   O     O_3   0.175324 0.026511 0.064676 -0.550814
C63   C     C_3   0.154557 0.981408 0.107394 0.102201
H33   H     H_    0.285867 0.979139 0.134384 0.113341
H34   H     H_    0.125644 0.934677 0.088720 0.128042
C64   C     C_3   0.985403 0.998917 0.144942 -0.700133
H35   H     H_    0.850228 0.998687 0.120011 0.223962
H36   H     H_    0.971545 0.964798 0.179797 0.174047
H37   H     H_    0.008049 0.046009 0.163280 0.225902
O34   O     O_3   0.824270 0.974365 0.934598 -0.548816
C65   C     C_3   0.846266 0.020092 0.892479 0.100257
H38   H     H_    0.876849 0.066417 0.911753 0.120750
H39   H     H_    0.714868 0.023252 0.865601 0.110980
C66   C     C_3   0.014585 0.002617 0.854596 -0.701978
H40   H     H_    0.990185 0.955931 0.835606 0.227141
H41   H     H_    0.029438 0.037286 0.820226 0.171001
H42   H     H_    0.149898 0.001920 0.879448 0.222862

loop_
_geom_bond_atom_site_label_1
_geom_bond_atom_site_label_2
_ccdc_geom_bond_type
C66   H42   S    
V4    O20   S    
C52   O23   D    
C33   C35   A    
C64   H37   S    
O13   V3    S    
C54   H13   S    
C10   C16   S    
C65   C66   S    
H3    C36   S    
O4    C2    A    
V1    O19   S    
C54   H15   S    
C61   O29   D    
C21   C23   A    
O22   H9    S    
C57   H21   S    
C6    C29   S    
C14   C20   T    
O9    V1    S    
C24   C28   S    
C34   C38   S    
C65   H39   S    
O3    C1    A    
C9    O25   S    
C31   C36   A    
C61   O30   S    
C8    C14   S    
O12   V4    S    
O28   C59   S    
C3    C49   S    
C59   H26   S    
C32   H6    S    
O9    C5    A    
H1    C16   S    
C11   C16   S    
O7    C3    A    
C55   H16   S    
C9    C11   S    
O5    C7    A    
O7    V1    S    
C22   C25   A    
O6    C8    A    
C58   H23   S    
C26   O27   S    
O8    V2    S    
C63   H33   S    
C23   C25   A    
C24   C26   A    
O27   C57   S    
O3    V1    S    
O14   V4    S    
C56   H20   S    
C11   C17   S    
C10   C12   S    
C42   C44   A    
C13   C19   T    
C22   C24   A    
C2    O12   A    
C64   H36   S    
C15   C17   S    
C12   C15   S    
C16   C18   S    
C55   H17   S    
O18   C8    A    
C18   C20   S    
O11   V3    S    
C60   H29   S    
C12   C52   S    
O17   V3    S    
C33   C37   S    
C31   H5    S    
C44   C48   S    
C64   H35   S    
C65   H38   S    
H2    C15   S    
C58   H24   S    
O8    C4    A    
C7    C13   S    
O25   C53   S    
C41   H7    S    
C11   C51   S    
C38   C39   T    
O15   V3    S    
C55   C56   S    
C25   O28   S    
C34   C36   A    
C46   O33   S    
C62   O32   S    
C42   C45   A    
C17   C19   S    
H4    C35   S    
C21   C61   S    
C51   O21   D    
O34   C65   S    
O10   V2    S    
C53   H12   S    
C10   O26   S    
C56   H19   S    
C57   C58   S    
C43   C45   A    
C5    C30   S    
C59   H27   S    
C42   H8    S    
C51   O22   S    
C32   C35   A    
O18   V4    S    
O15   C5    A    
O30   H31   S    
O16   C6    A    
C12   C18   S    
O1    C3    A    
C4    C50   S    
C62   O31   D    
O32   H32   S    
V2    O20   S    
C27   C30   T    
C66   H41   S    
C28   C29   T    
O16   V4    S    
C9    C18   S    
C60   H30   S    
C10   C17   S    
C45   O34   S    
C44   C46   A    
C48   C49   T    
C1    C39   S    
C47   C50   T    
C60   H28   S    
C54   H14   S    
C21   C26   A    
O5    V1    S    
O17   C7    A    
O6    V2    S    
O10   C6    A    
C31   C33   A    
C2    C40   S    
C59   C60   S    
O2    V4    S    
C32   C34   A    
C37   C40   T    
C9    C15   S    
C52   O24   S    
C66   H40   S    
V3    O19   S    
O26   C55   S    
C22   C62   S    
C41   C43   A    
O1    V3    S    
C63   C64   S    
C23   C27   S    
C1    O11   A    
C53   H11   S    
O13   V1    S    
C57   H22   S    
C58   H25   S    
O14   V2    S    
C53   C54   S    
O2    C4    A    
O4    V2    S    
C63   H34   S    
C56   H18   S    
O24   H10   S    
C43   C47   S    
C41   C46   A    
O33   C63   S    
