data_mof_unit_26709.cif
_audit_creation_date              2012-12-11T17:00:20-0500
_audit_creation_method            fapswitch 2.2
_symmetry_space_group_name_H-M    P1
_symmetry_Int_Tables_number       1
_space_group_crystal_system       triclinic
_cell_length_a                    6.971026
_cell_length_b                    13.552676
_cell_length_c                    20.261479
_cell_angle_alpha                 103.046518
_cell_angle_beta                  90.12285
_cell_angle_gamma                 90.256929
_cell_volume                      1864.78442779

loop_
_atom_site_label
_atom_site_type_symbol
_atom_type_description
_atom_site_fract_x
_atom_site_fract_y
_atom_site_fract_z
_atom_type_partial_charge
O1    O     O_R   0.506770 0.599700 0.449550 -0.538251
O2    O     O_R   0.179980 0.595740 0.587960 -0.547250
O3    O     O_R   0.004580 0.400300 0.550450 -0.536925
C1    C     C_R   0.347966 0.617017 0.615243 0.689748
O4    O     O_R   0.177380 0.611700 0.452380 -0.540674
O5    O     O_R   0.001970 0.416370 0.413900 -0.541229
C2    C     C_R   0.346311 0.638414 0.435767 0.710901
O6    O     O_R   0.509390 0.583630 0.586100 -0.538920
O7    O     O_3   0.337530 0.435890 0.487530 -0.370176
V1    V     V_3+5 0.064660 0.511890 0.502310 1.413795
O8    O     O_R   0.671950 0.404260 0.412040 -0.540979
C3    C     C_R   0.840467 0.382631 0.384882 0.699207
O9    O     O_R   0.674540 0.388300 0.547620 -0.540277
C4    C     C_R   0.843843 0.361883 0.564441 0.698431
V2    V     V_3+5 0.564030 0.488110 0.497690 1.419359
O10   O     O_3   0.841030 0.564110 0.512470 -0.373084
C5    C     C_R   0.981338 0.122488 0.614506 -0.161733
H1    H     H_    0.967386 0.170467 0.520846 0.113653
H2    H     H_    0.068400 0.008397 0.700289 0.121140
H3    H     H_    0.042495 0.049867 0.590525 0.115475
C6    C     C_R   0.858886 0.284684 0.604174 -0.037977
C7    C     C_R   0.785291 0.311825 0.929493 -0.182147
C8    C     C_R   0.750838 0.386753 0.893555 0.269367
C9    C     C_R   0.779562 0.365311 0.823498 -0.167367
C10   C     C_R   0.849144 0.269994 0.788099 0.028615
C11   C     C_R   0.895499 0.196798 0.826239 0.069388
C12   C     C_R   0.873965 0.244748 0.716155 0.088134
C13   C     C_R   0.952604 0.148957 0.684801 0.147521
C14   C     C_R   0.005201 0.080729 0.723781 -0.200590
C15   C     C_R   0.976556 0.103963 0.793259 -0.184929
C16   C     C_R   0.825232 0.311293 0.674012 -0.216443
C17   C     C_R   0.936930 0.190439 0.574633 -0.168287
C18   C     C_R   0.857001 0.217396 0.896622 -0.114494
H4    H     H_    0.767274 0.385618 0.693844 0.096013
C19   C     C_R   0.717885 0.257233 0.201960 0.046185
C20   C     C_R   0.867571 0.188123 0.182701 -0.124542
C21   C     C_R   0.019340 0.191331 0.229324 -0.113107
H5    H     H_    0.139138 0.140273 0.216586 0.123040
C22   C     C_R   0.011667 0.255334 0.294687 -0.176848
H6    H     H_    0.126543 0.252393 0.330132 0.126280
C23   C     C_R   0.850929 0.317103 0.315653 -0.104206
C24   C     C_R   0.708796 0.319046 0.267026 0.054896
C25   C     C_3   0.496743 0.307174 0.271121 -0.384442
C26   C     C_3   0.505634 0.240529 0.199692 0.041514
H7    H     H_    0.420220 0.380097 0.275036 0.173725
H8    H     H_    0.463888 0.160217 0.195896 0.122602
C27   C     C_R   0.507397 0.683374 0.728023 0.054944
C28   C     C_R   0.350719 0.681979 0.684701 -0.083994
C29   C     C_R   0.193025 0.743969 0.709718 -0.179345
H9    H     H_    0.071263 0.747446 0.677313 0.130900
C30   C     C_R   0.196498 0.807494 0.775081 -0.188446
C31   C     C_R   0.357080 0.812052 0.817191 -0.066491
C32   C     C_R   0.512778 0.749892 0.791924 0.106766
C33   C     C_3   0.712243 0.782392 0.780207 0.018178
C34   C     C_3   0.709800 0.704818 0.713204 -0.404380
H10   H     H_    0.817176 0.767013 0.818033 0.116629
H11   H     H_    0.803310 0.638564 0.713178 0.141922
C35   C     C_R   0.407520 0.891080 0.390595 0.214008
C36   C     C_R   0.357002 0.716076 0.396258 -0.067735
C37   C     C_R   0.316180 0.684358 0.069945 -0.165959
C38   C     C_R   0.290780 0.608576 0.105511 0.253308
C39   C     C_R   0.305757 0.632425 0.176407 -0.201587
C40   C     C_R   0.345575 0.732690 0.213054 0.057867
C41   C     C_R   0.368865 0.809274 0.175732 0.073831
C42   C     C_R   0.360014 0.759675 0.285464 0.044111
C43   C     C_R   0.393850 0.862787 0.318973 0.128067
C44   C     C_R   0.413565 0.936222 0.280554 -0.193455
C45   C     C_R   0.402504 0.909978 0.210467 -0.205882
C46   C     C_R   0.342858 0.687555 0.325839 -0.221501
C47   C     C_R   0.388670 0.816967 0.428495 -0.212700
C48   C     C_R   0.354820 0.783981 0.104149 -0.131225
H12   H     H_    0.321426 0.608009 0.304469 0.102128
H13   H     H_    0.302396 0.665711 0.015204 0.125638
H14   H     H_    0.419762 0.970046 0.183653 0.108874
O11   O     O_R   0.203450 0.916320 0.913910 -0.547844
O12   O     O_R   0.535520 0.888300 0.047620 -0.539782
O13   O     O_R   0.710860 0.083650 0.086100 -0.548209
C49   C     C_R   0.366498 0.861567 0.064229 0.703078
O14   O     O_R   0.532860 0.904250 0.912040 -0.543081
O15   O     O_R   0.708190 0.099710 0.949550 -0.538165
C50   C     C_R   0.364610 0.882899 0.884708 0.696165
O16   O     O_R   0.206120 0.900260 0.050460 -0.536949
O17   O     O_3   0.375280 0.064080 0.012470 -0.373550
V3    V     V_3+5 0.648180 0.988110 0.997690 1.405631
O18   O     O_R   0.038220 0.111740 0.952370 -0.539106
C51   C     C_R   0.869274 0.138222 0.935483 0.696881
O19   O     O_R   0.040880 0.095790 0.087940 -0.533069
C52   C     C_R   0.872678 0.117370 0.115153 0.700710
V4    V     V_3+5 0.148800 0.011950 0.002300 1.419450
O20   O     O_3   0.871820 0.935920 0.987530 -0.373817
H15   H     H_    0.456400 0.264525 0.309876 0.143932
N1    N     N_3   0.410292 0.286296 0.149510 -0.647154
H16   H     H_    0.443381 0.242857 0.101446 0.248114
H17   H     H_    0.465671 0.358974 0.151925 0.223621
H18   H     H_    0.079653 0.858300 0.791660 0.122700
N2    N     N_3   0.714052 0.886523 0.770885 -0.638509
H19   H     H_    0.751710 0.934524 0.817058 0.233574
H20   H     H_    0.820165 0.893959 0.736019 0.224997
H21   H     H_    0.723813 0.736989 0.667524 0.178646
H22   H     H_    0.400765 0.837627 0.483241 0.102018
H23   H     H_    0.438295 0.015173 0.304440 0.150092
N3    N     N_3   0.441475 0.994946 0.424585 -0.688408
H24   H     H_    0.584442 0.011860 0.415939 0.222422
H25   H     H_    0.426724 0.004461 0.477001 0.230746
H26   H     H_    0.283204 0.571033 0.201176 0.110051
N4    N     N_3   0.244524 0.507737 0.068755 -0.663430
H27   H     H_    0.366138 0.478268 0.041333 0.228167
H28   H     H_    0.214941 0.460964 0.102076 0.232130
H29   H     H_    0.755320 0.326779 0.983323 0.103218
H30   H     H_    0.747219 0.425498 0.798529 0.119764
N5    N     N_3   0.681175 0.484754 0.927137 -0.670277
H31   H     H_    0.667502 0.489334 0.979113 0.224245
H32   H     H_    0.785657 0.538081 0.921988 0.226423
H33   H     H_    0.019899 0.048347 0.821022 0.115989

loop_
_geom_bond_atom_site_label_1
_geom_bond_atom_site_label_2
_ccdc_geom_bond_type
O19   C52   A    
C40   C42   A    
C23   C24   A    
N5    H31   S    
O15   V3    S    
O12   V3    S    
C22   C23   A    
C39   H26   S    
C32   C33   S    
C20   C52   S    
C6    C16   A    
C14   C15   A    
O16   V4    S    
C41   C45   A    
C4    C6    S    
C20   C21   A    
C21   H5    S    
O12   C49   A    
C1    C28   S    
O14   V3    S    
N4    H27   S    
C45   H14   S    
V2    O10   S    
C37   H13   S    
C5    H3    S    
C41   C48   A    
C19   C24   A    
O15   C51   A    
O8    V2    S    
C35   C43   A    
C27   C28   A    
O13   C52   A    
C47   H22   S    
C29   C30   A    
N2    H20   S    
C8    C9    A    
C35   N3    S    
O7    V1    S    
C33   N2    S    
C38   C39   A    
C26   N1    S    
C1    O6    A    
C27   C32   A    
C43   C44   A    
O9    C4    A    
N3    H24   S    
V3    O20   S    
C2    C36   S    
C26   H8    S    
O4    C2    A    
O17   V4    S    
C6    C17   A    
C33   H10   S    
C12   C16   A    
C30   C31   A    
C9    H30   S    
C9    C10   A    
C22   H6    S    
O14   C50   A    
O18   V4    S    
C35   C47   A    
C37   C48   A    
C10   C11   A    
O18   C51   A    
C25   H15   S    
C44   C45   A    
C37   C38   A    
C19   C20   A    
C46   H12   S    
O2    C1    A    
C18   C51   S    
C3    C23   S    
C38   N4    S    
C49   O16   A    
C11   C18   A    
O17   V3    S    
C7    H29   S    
N2    H19   S    
C39   C40   A    
N1    H17   S    
C16   H4    S    
N5    H32   S    
N3    H25   S    
C19   C26   S    
C25   H7    S    
O3    C4    A    
C36   C46   A    
O1    V2    S    
C28   C29   A    
C11   C15   A    
O6    V2    S    
O9    V2    S    
C25   C26   S    
H1    C17   S    
C24   C25   S    
O2    V1    S    
C31   C32   A    
C44   H23   S    
C27   C34   S    
C15   H33   S    
C5    C17   A    
C7    C18   A    
C33   C34   S    
C13   C14   A    
O1    C2    A    
C5    C13   A    
O11   C50   A    
O5    V1    S    
O8    C3    A    
C10   C12   A    
C8    N5    S    
O13   V3    S    
C34   H11   S    
O7    V2    S    
O4    V1    S    
C21   C22   A    
O3    V1    S    
V1    O10   S    
O5    C3    A    
N4    H28   S    
C42   C46   A    
N1    H16   S    
C42   C43   A    
C31   C50   S    
O11   V4    S    
C36   C47   A    
C40   C41   A    
C29   H9    S    
C34   H21   S    
C12   C13   A    
O19   V4    S    
C7    C8    A    
V4    O20   S    
C48   C49   S    
C30   H18   S    
H2    C14   S    
