data_mof_unit_49154.cif
_audit_creation_date              2012-12-11T15:59:26-0500
_audit_creation_method            fapswitch 2.2
_symmetry_space_group_name_H-M    P1
_symmetry_Int_Tables_number       1
_space_group_crystal_system       triclinic
_cell_length_a                    10.802737
_cell_length_b                    10.72707
_cell_length_c                    17.080891
_cell_angle_alpha                 100.098311
_cell_angle_beta                  99.656464
_cell_angle_gamma                 60.592904
_cell_volume                      1689.9053019

loop_
_atom_site_label
_atom_site_type_symbol
_atom_type_description
_atom_site_fract_x
_atom_site_fract_y
_atom_site_fract_z
_atom_type_partial_charge
C1    C     C_R   0.355336 0.777169 0.401635 0.539283
C2    C     C_R   0.844049 0.317371 0.328925 0.031878
C3    C     C_R   0.319106 0.859334 0.168711 -0.012740
C4    C     C_R   0.370006 0.345875 0.357508 0.549574
C5    C     C_R   0.455234 0.807056 0.211701 0.023190
C6    C     C_R   0.462193 0.820414 0.295975 -0.080110
C7    C     C_R   0.205328 0.911173 0.290158 0.207587
C8    C     C_R   0.196218 0.913670 0.209350 -0.095069
C9    C     C_R   0.583589 0.743037 0.174100 0.237887
C10   C     C_R   0.712006 0.717980 0.220714 -0.059373
C11   C     C_R   0.715713 0.752450 0.303219 0.208123
C12   C     C_R   0.800226 0.242963 0.188146 -0.100415
C13   C     C_R   0.591012 0.803577 0.340634 -0.075922
C14   C     C_R   0.339342 0.850398 0.332698 -0.017532
C15   C     C_R   0.302235 0.267033 0.797968 0.005749
C16   C     C_R   0.777929 0.372698 0.403840 0.555707
C17   C     C_R   0.440215 0.183104 0.768302 0.084767
C18   C     C_R   0.477800 0.247535 0.719489 -0.017354
C19   C     C_R   0.228895 0.425213 0.695347 -0.139333
C20   C     C_R   0.197111 0.385703 0.759479 -0.168043
C21   C     C_R   0.545898 0.042650 0.788174 0.286973
C22   C     C_R   0.690064 0.991094 0.777338 -0.096705
C23   C     C_R   0.806428 0.226339 0.269187 0.024761
C24   C     C_R   0.728810 0.073568 0.743942 -0.130907
C25   C     C_R   0.622707 0.199487 0.714396 -0.104710
C26   C     C_R   0.369803 0.355822 0.674823 -0.001934
C27   C     C_1   0.850418 0.328251 0.704877 -0.064590
C28   C     C_R   0.358064 0.768899 0.627404 0.539640
C29   C     C_1   0.896258 0.292915 0.771507 -0.064309
C30   C     C_1   0.338676 0.808697 0.709456 -0.010235
C31   C     C_1   0.312411 0.836288 0.777490 -0.004082
C32   C     C_R   0.896838 0.308840 0.089384 0.551100
C33   C     C_R   0.318729 0.300460 0.120086 0.550231
C34   C     C_R   0.911167 0.387603 0.308634 -0.146841
C35   C     C_R   0.291568 0.895353 0.086993 0.601588
C36   C     C_R   0.943802 0.272875 0.854353 0.535036
C37   C     C_R   0.279984 0.249915 0.877078 0.546732
C38   C     C_R   0.278889 0.884212 0.857403 0.550954
C39   C     C_R   0.403035 0.375274 0.599803 0.534427
C40   C     C_R   0.779674 0.377727 0.628526 0.532495
C41   C     C_1   0.343479 0.335578 0.274198 -0.039521
C42   C     C_1   0.330928 0.326968 0.203430 -0.044286
C43   C     C_R   0.859532 0.323786 0.169128 0.015889
C44   C     C_R   0.922534 0.387103 0.229759 -0.140153
C45   C     C_R   0.743761 0.170899 0.127897 -0.093199
C46   C     C_R   0.715185 0.067224 0.146046 0.325801
C47   C     C_R   0.730244 0.042724 0.224696 -0.028689
C48   C     C_R   0.776793 0.118340 0.285914 0.403267
Cr1   Cr    Cr6+3 0.608100 0.610860 0.522250 1.015185
Cr2   Cr    Cr6+3 0.288890 0.599990 0.488420 1.066350
Cr3   Cr    Cr6+3 0.603040 0.289190 0.489390 1.086136
Cr4   Cr    Cr6+3 0.053960 0.052250 0.967380 1.032970
Cr5   Cr    Cr6+3 0.059890 0.373160 0.992710 1.035915
Cr6   Cr    Cr6+3 0.373370 0.061690 0.991710 1.141716
F1    F     F_    0.680131 0.984698 0.086713 -0.614723
F2    F     F_    0.813105 0.067005 0.358123 -0.579213
H1    H     H_    0.948914 0.448925 0.353800 0.171910
H2    H     H_    0.981049 0.437559 0.216300 0.154787
H3    H     H_    0.709105 0.961854 0.238524 0.166587
H4    H     H_    0.089604 0.963460 0.178851 0.177263
H5    H     H_    0.828330 0.763463 0.403045 0.334142
H6    H     H_    0.591161 0.859540 0.821578 0.323763
H7    H     H_    0.098938 0.995211 0.383057 0.348583
H8    H     H_    0.680546 0.659830 0.076735 0.346893
H9    H     H_    0.809277 0.676135 0.192364 0.145345
H10   H     H_    0.594583 0.835517 0.404263 0.142675
H11   H     H_    0.144134 0.510768 0.662798 0.149528
H12   H     H_    0.090962 0.448016 0.779249 0.141876
H13   H     H_    0.771960 0.887123 0.794663 0.107756
H14   H     H_    0.839878 0.036986 0.737573 0.139438
H15   H     H_    0.651860 0.261990 0.688209 0.149560
H16   H     H_    0.725498 0.190395 0.065951 0.173487
O1    O     O_R   0.749810 0.499790 0.438040 -0.527177
O2    O     O_R   0.411730 0.181020 0.091530 -0.450344
O3    O     O_R   0.365010 0.944360 0.063320 -0.427650
O4    O     O_R   0.477660 0.726260 0.439290 -0.519578
O5    O     O_R   0.159380 0.906670 0.876210 -0.525813
O6    O     O_R   0.930820 0.177420 0.886730 -0.485798
O7    O     O_R   0.910360 0.395420 0.895720 -0.499802
O8    O     O_R   0.186010 0.361730 0.919870 -0.513344
O9    O     O_R   0.400000 0.173010 0.914630 -0.445497
O10   O     O_R   0.354140 0.936940 0.899340 -0.451078
O11   O     O_3   0.162410 0.162370 0.983930 -0.319110
O12   O     O_R   0.298970 0.468800 0.557390 -0.504799
O13   O     O_R   0.260150 0.743000 0.412270 -0.455449
O14   O     O_R   0.297740 0.466550 0.394720 -0.477810
O15   O     O_R   0.488080 0.253500 0.386430 -0.486681
O16   O     O_R   0.722670 0.303800 0.421940 -0.427368
O17   O     O_R   0.751130 0.502220 0.613520 -0.504046
O18   O     O_R   0.478890 0.728510 0.601960 -0.491124
O19   O     O_R   0.261470 0.745430 0.587750 -0.523440
O20   O     O_3   0.842641 0.735581 0.345461 -0.668835
O21   O     O_3   0.505903 0.953311 0.811877 -0.683303
O22   O     O_3   0.081031 0.966164 0.325666 -0.634168
O23   O     O_R   0.489400 0.255930 0.561910 -0.504744
O24   O     O_3   0.583258 0.698960 0.093064 -0.671038
O25   O     O_R   0.723890 0.306050 0.584610 -0.521171
O26   O     O_3   0.500010 0.500010 0.500020 -0.286828
O27   O     O_R   0.171100 0.914680 0.053100 -0.529116
O28   O     O_R   0.941680 0.184840 0.050710 -0.504947
O29   O     O_R   0.922080 0.403420 0.072610 -0.527428
O30   O     O_R   0.196880 0.369150 0.083850 -0.497030

loop_
_geom_bond_atom_site_label_1
_geom_bond_atom_site_label_2
_ccdc_geom_bond_type
Cr3   O25   S    
C27   C29   T    
C41   C42   T    
C19   C20   A    
C18   C26   A    
Cr1   O18   S    
C24   H14   S    
C7    C8    A    
C4    O15   A    
C45   C46   A    
C29   C36   S    
C35   O3    A    
C33   C42   S    
Cr5   O7    S    
C39   O12   A    
C12   C43   A    
C30   C31   T    
Cr4   O6    S    
C26   C39   S    
C4    O14   A    
C4    C41   S    
C48   F2    S    
C19   C26   A    
C15   C37   S    
Cr2   O13   S    
Cr1   O26   S    
Cr6   O2    S    
C11   O20   S    
C7    C14   A    
C44   H2    S    
C46   F1    S    
C34   H1    S    
C19   H11   S    
C25   H15   S    
C40   O17   A    
C2    C16   S    
C9    C10   A    
Cr5   O30   S    
C22   H13   S    
H5    O20   S    
C2    C34   A    
Cr3   O26   S    
C21   C22   A    
C38   O10   A    
C45   H16   S    
C37   O9    A    
C18   C25   A    
C35   O27   A    
Cr6   O11   S    
C13   H10   S    
C1    O13   A    
C15   C20   A    
C37   O8    A    
Cr2   O26   S    
Cr2   O12   S    
C33   O30   A    
Cr5   O8    S    
C34   C44   A    
C24   C25   A    
H8    O24   S    
C3    C8    A    
Cr3   O15   S    
C40   O25   A    
Cr4   O28   S    
C17   C21   A    
C32   O28   A    
Cr4   O11   S    
C43   C44   A    
C5    C9    A    
C6    C14   A    
Cr2   O19   S    
C47   C48   A    
C12   C23   A    
C3    C35   S    
C27   C40   S    
C17   C18   A    
Cr1   O4    S    
C9    O24   S    
C39   O23   A    
C36   O7    A    
Cr1   O1    S    
Cr4   O5    S    
Cr6   O10   S    
C10   H9    S    
C15   C17   A    
C7    O22   S    
C46   C47   A    
C23   C48   A    
C1    O4    A    
C20   H12   S    
Cr1   O17   S    
C12   C45   A    
C3    C5    A    
C16   O1    A    
Cr3   O16   S    
C38   O5    A    
Cr4   O27   S    
Cr5   O29   S    
C31   C38   S    
Cr5   O11   S    
C28   C30   S    
C36   O6    A    
C8    H4    S    
C6    C13   A    
C11   C13   A    
C5    C6    A    
C21   O21   S    
C32   C43   S    
H7    O22   S    
C28   O19   A    
C22   C24   A    
C10   C11   A    
Cr2   O14   S    
C47   H3    S    
Cr6   O3    S    
C33   O2    A    
H6    O21   S    
C2    C23   A    
C16   O16   A    
C32   O29   A    
C28   O18   A    
C1    C14   S    
Cr6   O9    S    
Cr3   O23   S    
