data_mof_unit_38984.cif
_audit_creation_date              2012-12-11T14:17:41-0500
_audit_creation_method            fapswitch 2.2
_symmetry_space_group_name_H-M    P1
_symmetry_Int_Tables_number       1
_space_group_crystal_system       triclinic
_cell_length_a                    11.147326
_cell_length_b                    11.137164
_cell_length_c                    18.83136
_cell_angle_alpha                 90.2419
_cell_angle_beta                  89.782997
_cell_angle_gamma                 120.37401
_cell_volume                      2016.99044865

loop_
_atom_site_label
_atom_site_type_symbol
_atom_type_description
_atom_site_fract_x
_atom_site_fract_y
_atom_site_fract_z
_atom_type_partial_charge
C1    C     C_R   0.524022 0.457735 0.146266 0.582995
C2    C     C_R   0.541273 0.064113 0.146712 0.536203
C3    C     C_R   0.934489 0.476626 0.146302 0.554481
C4    C     C_R   0.453928 0.520234 0.853962 0.596024
C5    C     C_R   0.065630 0.546152 0.853736 0.674701
C6    C     C_R   0.479423 0.932695 0.854242 0.654266
C7    C     C_R   0.393996 0.933785 0.454820 0.417747
C8    C     C_R   0.059651 0.452790 0.454757 0.391395
C9    C     C_R   0.558022 0.580215 0.457756 0.397355
C10   C     C_R   0.082970 0.459027 0.527250 0.392487
C11   C     C_R   0.378069 0.910848 0.527367 0.369114
C12   C     C_R   0.542862 0.605039 0.527995 0.396858
C13   C     C_R   0.743984 0.138851 0.589946 0.354916
C14   C     C_R   0.857945 0.596573 0.592132 0.355990
C15   C     C_R   0.413024 0.254244 0.607333 0.364249
C16   C     C_R   0.927294 0.701253 0.454798 0.475778
C17   C     C_R   0.777072 0.070964 0.451765 0.463627
C18   C     C_R   0.331013 0.192931 0.466493 0.409071
C19   C     C_R   0.871851 0.159701 0.568137 0.399031
C20   C     C_R   0.838382 0.704445 0.571619 0.398048
C21   C     C_R   0.301251 0.125541 0.590035 0.409307
C22   C     C_R   0.872687 0.756049 0.503196 0.487721
C23   C     C_R   0.888472 0.125736 0.499300 0.482874
C24   C     C_R   0.256982 0.097867 0.520267 0.488049
C25   C     C_R   0.541289 0.422674 0.361858 0.536088
C26   C     C_R   0.547042 0.063357 0.354223 0.576498
C27   C     C_R   0.936040 0.483553 0.354458 0.577016
C28   C     C_R   0.457128 0.519921 0.646788 0.684967
C29   C     C_R   0.066019 0.543780 0.645588 0.691454
C30   C     C_R   0.478770 0.933770 0.645581 0.678322
C31   C     C_R   0.495721 0.973554 0.929324 0.047244
C32   C     C_R   0.019776 0.521269 0.928115 0.033574
C33   C     C_R   0.479607 0.501791 0.928509 0.032370
C34   C     C_R   0.996073 0.487237 0.075668 -0.022227
C35   C     C_R   0.487534 0.999504 0.076765 0.017166
C36   C     C_R   0.515250 0.508542 0.075757 0.023211
C37   C     C_R   0.439381 0.051917 0.957572 -0.128711
C38   C     C_R   0.944409 0.385478 0.955893 -0.108357
C39   C     C_R   0.614964 0.557001 0.955916 -0.186959
C40   C     C_R   0.949617 0.367231 0.030239 -0.138519
C41   C     C_R   0.415505 0.046045 0.031877 -0.117985
C42   C     C_R   0.634195 0.582235 0.030384 -0.178872
C43   C     C_R   0.533136 0.914036 0.048627 0.233192
C44   C     C_R   0.077122 0.620300 0.047646 0.204337
C45   C     C_R   0.384315 0.461566 0.048976 0.233379
C46   C     C_R   0.089091 0.637327 0.974283 0.221205
C47   C     C_R   0.536809 0.900528 0.975173 0.267521
C48   C     C_R   0.367434 0.465048 0.975554 0.258749
C49   C     C_R   0.390922 0.120734 0.913102 0.195596
C50   C     C_R   0.878248 0.268015 0.910444 0.221170
C51   C     C_R   0.732843 0.609401 0.910471 0.210599
C52   C     C_R   0.920815 0.233380 0.054512 0.238669
C53   C     C_R   0.309474 0.071728 0.056883 0.253706
C54   C     C_R   0.768203 0.689887 0.054091 0.255526
C55   C     C_R   0.290247 0.149196 0.939300 0.406796
C56   C     C_R   0.852302 0.139126 0.935402 0.417271
C57   C     C_R   0.859852 0.715616 0.934813 0.464365
C58   C     C_R   0.873104 0.122315 0.006142 0.454427
C59   C     C_R   0.249993 0.124722 0.009862 0.436943
C60   C     C_R   0.877352 0.753640 0.005827 0.486798
C61   C     C_R   0.492897 0.983876 0.573393 -0.003875
C62   C     C_R   0.012782 0.503076 0.573959 0.028794
C63   C     C_R   0.502278 0.498711 0.578404 0.033460
C64   C     C_R   0.988596 0.514669 0.427347 0.002421
C65   C     C_R   0.526885 0.009173 0.426752 -0.001842
C66   C     C_R   0.513189 0.444388 0.435080 -0.032420
C67   C     C_R   0.626759 0.065751 0.545401 -0.178972
C68   C     C_R   0.930575 0.553646 0.546702 -0.182964
C69   C     C_R   0.461141 0.362788 0.556978 -0.168755
C70   C     C_R   0.945981 0.588385 0.474406 -0.173564
C71   C     C_R   0.645006 0.051462 0.472777 -0.167979
C72   C     C_R   0.438967 0.331135 0.483984 -0.191518
Cr1   Cr    Cr6+3 0.768550 0.541320 0.250660 1.189149
Cr2   Cr    Cr6+3 0.458680 0.227230 0.250660 1.205104
Cr3   Cr    Cr6+3 0.772770 0.231450 0.250660 1.166013
Cr4   Cr    Cr6+3 0.541320 0.768550 0.749340 1.288074
Cr5   Cr    Cr6+3 0.227230 0.458680 0.749340 1.280757
Cr6   Cr    Cr6+3 0.231450 0.772770 0.749340 1.302975
O1    O     O_R   0.910960 0.572410 0.171010 -0.452458
O2    O     O_R   0.427590 0.338550 0.171010 -0.443396
O3    O     O_R   0.661450 0.089040 0.171010 -0.486360
O4    O     O_R   0.572410 0.910960 0.828990 -0.420832
O5    O     O_R   0.338550 0.427590 0.828990 -0.412017
O6    O     O_R   0.089040 0.661450 0.828990 -0.382800
O7    O     O_R   0.639750 0.528530 0.175600 -0.502373
O8    O     O_R   0.471470 0.111220 0.175600 -0.456382
O9    O     O_R   0.888780 0.360250 0.175600 -0.440797
O10   O     O_R   0.528530 0.639750 0.824400 -0.436756
O11   O     O_R   0.111220 0.471470 0.824400 -0.444769
O12   O     O_R   0.360250 0.888780 0.824400 -0.436833
O13   O     O_R   0.909330 0.572400 0.331540 -0.441263
O14   O     O_R   0.427600 0.336930 0.331540 -0.366794
O15   O     O_R   0.663070 0.090670 0.331540 -0.446158
O16   O     O_R   0.572400 0.909330 0.668460 -0.414004
O17   O     O_R   0.336930 0.427600 0.668460 -0.420118
O18   O     O_R   0.090670 0.663070 0.668460 -0.400071
O19   O     O_R   0.638240 0.528520 0.324410 -0.428265
O20   O     O_R   0.471480 0.109720 0.324410 -0.445697
O21   O     O_R   0.890280 0.361760 0.324410 -0.467706
O22   O     O_R   0.528520 0.638240 0.675590 -0.414114
O23   O     O_R   0.109720 0.471480 0.675590 -0.419729
O24   O     O_R   0.361760 0.890280 0.675590 -0.418347
O25   O     O_3   0.666667 0.333333 0.250630 -0.385452
O26   O     O_3   0.333333 0.666667 0.749370 -0.407017
O27   O     O_3   0.567458 0.836202 0.091674 -0.694498
H1    H     H_    0.526152 0.827614 0.139428 0.346796
O28   O     O_3   0.151741 0.735343 0.090767 -0.610471
H2    H     H_    0.166880 0.704784 0.137563 0.357299
O29   O     O_3   0.276071 0.418912 0.096628 -0.627880
H3    H     H_    0.188383 0.375434 0.070314 0.397860
O30   O     O_3   0.178951 0.766404 0.946200 -0.638781
H4    H     H_    0.185278 0.838002 0.979146 0.401468
O31   O     O_3   0.574846 0.810635 0.946640 -0.634911
H5    H     H_    0.638803 0.803249 0.979781 0.395420
O32   O     O_3   0.243397 0.442101 0.949285 -0.630637
H6    H     H_    0.222047 0.503161 0.977926 0.301457
O33   O     O_3   0.441658 0.157017 0.844621 -0.633676
H7    H     H_    0.401328 0.208649 0.821881 0.404746
O34   O     O_3   0.841969 0.282308 0.842111 -0.618838
H8    H     H_    0.792036 0.190070 0.818575 0.406938
O35   O     O_3   0.727167 0.562716 0.841918 -0.552225
H9    H     H_    0.650249 0.464675 0.839411 0.344223
O36   O     O_3   0.965065 0.218688 0.120796 -0.593982
H10   H     H_    0.933551 0.119772 0.130590 0.410767
O37   O     O_3   0.246341 0.019101 0.121774 -0.551877
H11   H     H_    0.177192 0.047693 0.132267 0.410220
O38   O     O_3   0.793084 0.755464 0.119151 -0.535092
H12   H     H_    0.706266 0.749169 0.136143 0.375614
F1    F     F_    0.220470 0.187745 0.894848 -0.517205
F2    F     F_    0.818285 0.032179 0.889812 -0.531577
F3    F     F_    0.965092 0.787880 0.888289 -0.485017
F4    F     F_    0.853380 0.997757 0.027213 -0.547439
F5    F     F_    0.145026 0.144041 0.031341 -0.543192
F6    F     F_    0.999734 0.861569 0.027882 -0.506886
F7    F     F_    0.280996 0.876526 0.411730 -0.487599
F8    F     F_    0.115364 0.396545 0.410928 -0.502957
F9    F     F_    0.605189 0.687390 0.411018 -0.493019
F10   F     F_    0.176836 0.425342 0.551219 -0.547307
F11   F     F_    0.250077 0.817549 0.552430 -0.568665
F12   F     F_    0.565801 0.733046 0.546410 -0.555949
F13   F     F_    0.732112 0.179071 0.656618 -0.541779
F14   F     F_    0.818056 0.543195 0.658519 -0.516314
F15   F     F_    0.459942 0.278516 0.675387 -0.547531
F16   F     F_    0.986812 0.779069 0.395879 -0.414328
F17   F     F_    0.793624 0.012251 0.391962 -0.432771
F18   F     F_    0.277787 0.149640 0.400908 -0.450584
F19   F     F_    0.976867 0.202848 0.615646 -0.490825
F20   F     F_    0.794077 0.764903 0.619476 -0.491486
F21   F     F_    0.231578 0.029869 0.641315 -0.493594
F22   F     F_    0.856592 0.863151 0.483791 -0.435494
F23   F     F_    0.012087 0.140500 0.479100 -0.417778
F24   F     F_    0.144298 0.974698 0.503735 -0.443812

loop_
_geom_bond_atom_site_label_1
_geom_bond_atom_site_label_2
_ccdc_geom_bond_type
C2    C35   S    
Cr4   O26   S    
C39   C51   A    
C22   F22   S    
C6    O4    A    
C55   C59   A    
C8    F8    S    
C5    O6    A    
O27   H1    S    
C36   C42   A    
O30   H4    S    
C3    O1    A    
C14   F14   S    
C53   C59   A    
O36   H10   S    
Cr2   O20   S    
C54   C60   A    
Cr6   O12   S    
Cr1   O19   S    
C27   O21   A    
C33   C39   A    
C28   O17   A    
C34   C40   A    
C16   F16   S    
C32   C38   A    
C52   O36   S    
C45   O29   S    
C45   C48   A    
Cr6   O24   S    
Cr5   O5    S    
O32   H6    S    
C43   O27   S    
Cr2   O14   S    
C11   F11   S    
C9    C66   A    
C24   F24   S    
Cr4   O16   S    
C4    C33   S    
C9    F9    S    
C49   O33   S    
C63   C69   A    
Cr6   O18   S    
C55   F1    S    
C18   C72   A    
O28   H2    S    
C12   F12   S    
C27   O13   A    
C51   C57   A    
C13   F13   S    
C5    O11   A    
C35   C43   A    
Cr4   O10   S    
C53   O37   S    
C5    C32   S    
C21   F21   S    
C28   O22   A    
C26   O15   A    
C6    C31   S    
C41   C53   A    
Cr2   O2    S    
C46   O30   S    
Cr3   O25   S    
C10   C62   A    
Cr5   O17   S    
C44   C46   A    
C7    C11   A    
C39   C42   A    
C1    O7    A    
C15   C69   A    
C66   C72   A    
C38   C50   A    
C13   C19   A    
Cr6   O26   S    
C50   O34   S    
C14   C20   A    
C16   C70   A    
Cr1   O13   S    
C58   F4    S    
C12   C63   A    
Cr3   O3    S    
C57   C60   A    
C3    C34   S    
C11   C61   A    
C40   C52   A    
C3    O9    A    
C59   F5    S    
C19   F19   S    
C31   C37   A    
C69   C72   A    
C19   C23   A    
C7    F7    S    
C7    C65   A    
C37   C49   A    
C61   C67   A    
C15   C21   A    
Cr5   O11   S    
C30   O24   A    
Cr3   O21   S    
Cr1   O1    S    
C29   O23   A    
C36   C45   A    
C17   C23   A    
Cr2   O8    S    
Cr1   O7    S    
O35   H9    S    
C52   C58   A    
C8    C64   A    
C48   O32   S    
C15   F15   S    
Cr3   O9    S    
C26   O20   A    
C17   C71   A    
C64   C70   A    
C17   F17   S    
C51   O35   S    
C18   C24   A    
C21   C24   A    
Cr4   O4    S    
O38   H12   S    
C60   F6    S    
Cr3   O15   S    
O31   H5    S    
C13   C67   A    
C44   O28   S    
C25   O19   A    
C47   O31   S    
C34   C44   A    
C23   F23   S    
C29   C62   S    
C25   O14   A    
C16   C22   A    
C26   C65   S    
C32   C46   A    
C57   F3    S    
C8    C10   A    
C25   C66   S    
C20   C22   A    
C18   F18   S    
C49   C55   A    
C29   O18   A    
O34   H8    S    
C4    O10   A    
Cr4   O22   S    
C54   O38   S    
C62   C68   A    
C30   O16   A    
C65   C71   A    
O33   H7    S    
C42   C54   A    
C38   C40   A    
C20   F20   S    
O37   H11   S    
C4    O5    A    
C56   C58   A    
Cr5   O23   S    
C2    O8    A    
C67   C71   A    
C37   C41   A    
C35   C41   A    
C9    C12   A    
C50   C56   A    
C27   C64   S    
C28   C63   S    
Cr6   O6    S    
Cr1   O25   S    
C6    O12   A    
C68   C70   A    
C30   C61   S    
C33   C48   A    
C14   C68   A    
C1    O2    A    
C2    O3    A    
C31   C47   A    
Cr5   O26   S    
C10   F10   S    
O29   H3    S    
C43   C47   A    
C56   F2    S    
C1    C36   S    
Cr2   O25   S    
