data_mof_unit_63457.cif
_audit_creation_date              2013-03-05T16:09:35-0500
_audit_creation_method            fapswitch 2.2
_symmetry_space_group_name_H-M    P1
_symmetry_Int_Tables_number       1
_space_group_crystal_system       triclinic
_cell_length_a                    12.753384
_cell_length_b                    13.921318
_cell_length_c                    15.908062
_cell_angle_alpha                 90.246782
_cell_angle_beta                  92.720262
_cell_angle_gamma                 97.987789
_cell_volume                      2793.6551829

loop_
_atom_site_label
_atom_site_type_symbol
_atom_site_description
_atom_site_fract_x
_atom_site_fract_y
_atom_site_fract_z
_atom_type_partial_charge
O1    O     O_R   0.399110 0.356330 0.494870 -0.560642
O2    O     O_R   0.575900 0.366540 0.503830 -0.571159
C1    C     C_R   0.483492 0.315911 0.499010 0.828768
O3    O     O_R   0.411570 0.494900 0.374960 -0.561410
O4    O     O_R   0.588350 0.505100 0.383910 -0.555612
C2    C     C_R   0.500659 0.500001 0.339951 0.814371
Cu1   Cu    Cu3+1 0.395330 0.493960 0.494700 1.059827
Cu2   Cu    Cu3+1 0.604670 0.506040 0.505300 1.048387
O5    O     O_R   0.424100 0.633460 0.496170 -0.546478
O6    O     O_R   0.600890 0.643670 0.505130 -0.571497
O7    O     O_R   0.411650 0.494900 0.616090 -0.568329
O8    O     O_R   0.588430 0.505100 0.625040 -0.561856
C3    C     C_R   0.516414 0.684079 0.500835 0.817087
C4    C     C_R   0.499355 0.500018 0.660059 0.808879
C5    C     C_3   0.408297 0.427913 0.045391 0.504151
C6    C     C_3   0.608435 0.469654 0.051997 0.760318
C7    C     C_3   0.605672 0.469982 0.953366 0.347604
H1    H     H_    0.409212 0.355873 0.922581 0.283810
H2    H     H_    0.673464 0.519858 0.929932 0.160990
C8    C     C_1   0.498146 0.500349 0.749523 -0.089252
C9    C     C_3   0.502787 0.501274 0.082945 -0.346818
C10   C     C_3   0.406037 0.429983 0.947971 -0.444328
C11   C     C_3   0.500324 0.501639 0.917164 -0.255646
C12   C     C_3   0.491077 0.605295 0.950673 1.005711
C13   C     C_3   0.491972 0.605325 0.049072 -0.120028
C14   C     C_1   0.498517 0.500852 0.824957 0.206763
C15   C     C_1   0.502665 0.500598 0.175146 0.201242
C16   C     C_1   0.502114 0.500261 0.250524 -0.055636
H3    H     H_    0.563277 0.654711 0.072737 0.212496
H4    H     H_    0.331941 0.445477 0.067340 0.165570
H5    H     H_    0.329677 0.451838 0.923615 0.210319
C17   C     C_1   0.525203 0.787173 0.500187 -0.070455
C18   C     C_2   0.534851 0.977310 0.497193 -0.258757
C19   C     C_2   0.447429 0.021549 0.491686 0.350713
C20   C     C_1   0.462060 0.125745 0.494847 -0.012700
C21   C     C_1   0.530810 0.873906 0.499039 0.139872
C22   C     C_1   0.473358 0.212738 0.497094 -0.102539
H6    H     H_    0.612867 0.020333 0.502756 0.156721
N1    N     N_1   0.238030 0.484880 0.486720 -0.142283
C23   C     C_2   0.028350 0.473221 0.476329 -0.224207
C24   C     C_2   0.971657 0.526838 0.523597 -0.225995
C25   C     C_1   0.854582 0.519282 0.516930 0.278212
C26   C     C_1   0.145422 0.480745 0.483028 0.285528
N2    N     N_1   0.761970 0.515120 0.513270 -0.144034
H7    H     H_    0.013619 0.578440 0.569117 0.186510
H8    H     H_    0.986390 0.421621 0.430806 0.186712
F1    F     F_    0.576059 0.670032 0.925091 -0.615828
N3    N     N_R   0.340772 0.970079 0.483920 0.160667
O9    O     O_R   0.260805 0.016419 0.496040 -0.293964
O10   O     O_R   0.321601 0.880603 0.457126 -0.307646
F2    F     F_    0.415383 0.334492 0.072833 -0.538251
N4    N     N_R   0.702608 0.532384 0.088300 0.079765
O11   O     O_R   0.753125 0.504456 0.154812 -0.242589
O12   O     O_R   0.739046 0.614229 0.053922 -0.332303
F3    F     F_    0.615133 0.375615 0.078752 -0.485160
F4    F     F_    0.615902 0.378392 0.922675 -0.548659
N5    N     N_R   0.400260 0.644772 0.081615 0.190369
O13   O     O_R   0.303410 0.610295 0.057319 -0.271875
O14   O     O_R   0.416023 0.718576 0.133359 -0.261672
F5    F     F_    0.399476 0.635751 0.916062 -0.563752

loop_
_geom_bond_atom_site_label_1
_geom_bond_atom_site_label_2
_geom_bond_distance
_ccdc_geom_bond_type
O4    Cu2   1.932212 S    
C23   H8    1.085684 S    
C11   C12   1.557893 S    
C6    C9    1.574008 S    
C5    F2    1.387067 S    
C24   C25   1.480841 S    
C3    C17   1.424075 S    
C18   H6    1.087240 S    
C12   F5    1.387908 S    
Cu2   O8    1.925710 S    
N3    O10   1.301507 A    
C18   C19   1.346123 D    
C9    C15   1.466885 S    
C6    F3    1.390940 S    
Cu1   Cu2   2.648916 S    
C8    C14   1.199780 T    
O1    Cu1   1.923293 S    
N4    O11   1.301618 A    
Cu1   O7    1.932210 S    
C7    F4    1.388558 S    
Cu2   N2    1.990418 S    
N5    O13   1.301425 A    
C7    C11   1.557017 S    
C25   N2    1.173112 T    
O3    Cu1   1.925712 S    
C9    C13   1.569328 S    
C17   C21   1.199867 T    
Cu1   N1    1.990420 S    
Cu2   O6    1.923292 S    
N3    O9    1.301502 A    
C7    H2    1.111101 S    
N4    O12   1.302141 A    
O2    C1    1.285159 A    
C23   C26   1.480835 S    
C13   H3    1.110351 S    
O4    C2    1.283772 A    
O7    C4    1.283984 A    
C2    C16   1.423614 S    
N5    O14   1.301244 A    
C19   N3    1.446140 S    
C10   H5    1.112928 S    
C13   N5    1.473500 S    
C4    C8    1.424010 S    
C5    C9    1.560920 S    
C18   C21   1.433743 S    
O5    C3    1.284077 A    
C12   C13   1.564832 S    
C1    C22   1.424169 S    
C5    H4    1.108027 S    
O3    C2    1.282227 A    
C19   C20   1.436906 S    
C11   C14   1.465888 S    
C15   C16   1.199505 T    
Cu1   O5    1.925456 S    
C24   H7    1.085682 S    
C10   C11   1.551765 S    
C23   C24   1.357241 D    
N1    C26   1.173108 T    
C20   C22   1.199728 T    
H1    C10   1.113011 S    
C12   F1    1.387813 S    
C5    C10   1.549138 S    
O2    Cu2   1.925459 S    
C6    N4    1.475437 S    
O8    C4    1.282160 A    
C6    C7    1.567798 S    
O1    C1    1.280998 A    
O6    C3    1.282028 A    
