data_mof_unit_40625.cif
_audit_creation_date              2012-12-10T17:47:45-0500
_audit_creation_method            fapswitch 2.2
_symmetry_space_group_name_H-M    P1
_symmetry_Int_Tables_number       1
_space_group_crystal_system       triclinic
_cell_length_a                    10.695076
_cell_length_b                    10.719552
_cell_length_c                    9.95628
_cell_angle_alpha                 89.961173
_cell_angle_beta                  90.119794
_cell_angle_gamma                 92.959196
_cell_volume                      1139.92714931

loop_
_atom_site_label
_atom_site_type_symbol
_atom_type_description
_atom_site_fract_x
_atom_site_fract_y
_atom_site_fract_z
_atom_type_partial_charge
C1    C     C_R   0.516703 0.262182 0.501377 0.891461
C2    C     C_R   0.520979 0.064441 0.630317 0.094350
C3    C     C_R   0.539230 0.129873 0.507125 -0.193498
C4    C     C_R   0.258578 0.507912 0.500463 0.858933
C5    C     C_R   0.556842 0.063889 0.387089 -0.002833
C6    C     C_R   0.536435 0.936378 0.386749 -0.249133
C7    C     C_R   0.494176 0.874065 0.502763 -0.144970
C8    C     C_R   0.303046 0.348233 0.126011 -0.086623
C9    C     C_R   0.203865 0.299418 0.042751 -0.075053
C10   C     C_R   0.220053 0.295118 0.905359 -0.048366
C11   C     C_R   0.325898 0.351466 0.850224 -0.217298
C12   C     C_3   0.878723 0.507326 0.501067 0.118657
C13   C     C_R   0.412049 0.425822 0.925055 0.100582
C14   C     C_R   0.407665 0.425079 0.069811 0.115664
C15   C     C_R   0.582773 0.572577 0.072136 -0.151686
C16   C     C_R   0.493457 0.739841 0.500480 0.874971
C17   C     C_R   0.581332 0.574500 0.929537 0.018968
C18   C     C_R   0.742090 0.505275 0.500289 0.853757
C19   C     C_3   0.071268 0.557235 0.642316 0.037287
C20   C     C_3   0.929614 0.572210 0.630951 -0.443297
C21   C     C_3   0.075805 0.598328 0.388778 -0.413525
C22   C     C_3   0.067066 0.378499 0.475307 -0.440101
C23   C     C_3   0.932289 0.585154 0.379913 -0.390251
C24   C     C_3   0.122009 0.512621 0.502626 0.110737
C25   C     C_3   0.136308 0.676565 0.701426 -0.905455
C26   C     C_3   0.858591 0.283255 0.397421 -0.832431
C27   C     C_1   0.603672 0.123077 0.265268 0.186521
C28   C     C_1   0.297086 0.285004 0.253197 0.293584
C29   C     C_1   0.090928 0.236424 0.097583 0.160023
C30   C     C_1   0.133146 0.223923 0.819457 0.151141
C31   C     C_1   0.664541 0.662701 0.861188 0.222713
C32   C     C_3   0.925039 0.371472 0.499117 -0.033196
C33   C     C_R   0.541137 0.119066 0.759031 -0.133994
C34   C     C_R   0.490554 0.062058 0.873679 -0.134507
C35   C     C_R   0.425332 0.947432 0.863371 -0.145724
C36   C     C_R   0.419827 0.885939 0.740310 -0.146850
C37   C     C_R   0.477047 0.939800 0.624215 0.109039
H1    H     H_    0.115181 0.572298 0.289859 0.187579
H2    H     H_    0.336830 0.335968 0.746435 0.233879
H3    H     H_    0.885062 0.530921 0.722858 0.178289
H4    H     H_    0.907416 0.672558 0.627539 0.211118
H5    H     H_    0.106611 0.697330 0.407479 0.177131
H6    H     H_    0.893857 0.679734 0.379165 0.164904
H7    H     H_    0.086143 0.354112 0.369298 0.213399
H8    H     H_    0.111945 0.309350 0.540345 0.173590
H9    H     H_    0.907129 0.329001 0.599939 0.173734
H10   H     H_    0.162618 0.745999 0.622539 0.237541
H11   H     H_    0.075076 0.721003 0.775549 0.251060
H12   H     H_    0.904731 0.539524 0.283276 0.192947
H13   H     H_    0.220260 0.651512 0.758580 0.252613
H14   H     H_    0.860403 0.324181 0.295107 0.268450
H15   H     H_    0.903581 0.192161 0.395836 0.258124
H16   H     H_    0.760522 0.264476 0.428381 0.221733
H17   H     H_    0.596824 0.205123 0.773135 0.169602
H18   H     H_    0.499363 0.108169 0.969771 0.159756
H19   H     H_    0.382171 0.904384 0.951336 0.140668
H20   H     H_    0.368878 0.797438 0.737678 0.158697
H21   H     H_    0.555082 0.885676 0.295235 0.170921
H22   H     H_    0.649765 0.632527 0.126737 0.141086
H23   H     H_    0.085342 0.481528 0.716872 0.169810
N1    N     N_R   0.498810 0.498800 0.142780 -0.113298
N2    N     N_R   0.498760 0.498720 0.857170 -0.142216
N3    N     N_1   0.642412 0.171001 0.168708 -0.215153
N4    N     N_1   0.281061 0.226301 0.350048 -0.237812
N5    N     N_1   0.001565 0.185021 0.139416 -0.209904
N6    N     N_1   0.063656 0.166080 0.751976 -0.219770
N7    N     N_1   0.730938 0.735003 0.807153 -0.222504
O1    O     O_R   0.500000 0.316780 0.614690 -0.657282
O2    O     O_R   0.499990 0.316750 0.385360 -0.598046
O3    O     O_R   0.314800 0.499990 0.614670 -0.649661
O4    O     O_R   0.314790 0.499970 0.385330 -0.629292
O5    O     O_R   0.500010 0.683250 0.614640 -0.620053
O6    O     O_R   0.500000 0.683220 0.385310 -0.624327
O7    O     O_R   0.685210 0.500030 0.614670 -0.631826
O8    O     O_R   0.685200 0.500010 0.385330 -0.620317
Zn1   Zn    Zn3+2 0.500010 0.500020 0.653130 0.923516
Zn2   Zn    Zn3+2 0.499990 0.499980 0.346870 0.951718

loop_
_geom_bond_atom_site_label_1
_geom_bond_atom_site_label_2
_ccdc_geom_bond_type
C26   C32   S    
C18   O8    A    
C6    H21   S    
O2    Zn2   S    
C35   C36   A    
C16   O5    A    
O5    Zn1   S    
C4    O3    A    
C20   H4    S    
C31   N7    T    
C12   C23   S    
C22   C32   S    
C36   C37   A    
C5    C6    A    
C4    C24   S    
C23   H12   S    
C1    O1    A    
C23   H6    S    
C34   C35   A    
C25   H13   S    
C5    C27   S    
C22   H7    S    
C13   N2    A    
C19   C20   S    
N1    Zn2   S    
C8    C9    A    
C9    C10   A    
C25   H10   S    
C9    C29   S    
C34   H18   S    
C18   O7    A    
C13   C14   A    
C12   C32   S    
N2    Zn1   S    
C15   H22   S    
C15   N1    A    
C21   H1    S    
C16   O6    A    
C36   H20   S    
C14   N1    A    
C1    O2    A    
C1    C3    S    
C26   H15   S    
C17   N2    A    
C10   C30   S    
C12   C20   S    
C33   C34   A    
C7    C37   A    
C11   H2    S    
O8    Zn2   S    
C25   H11   S    
C30   N6    T    
O7    Zn1   S    
C29   N5    T    
C28   N4    T    
C2    C33   A    
C7    C16   S    
C21   C23   S    
O3    Zn1   S    
C17   C31   S    
C22   C24   S    
C26   H16   S    
O4    Zn2   S    
C33   H17   S    
C15   C17   A    
C8    C14   A    
C35   H19   S    
C32   H9    S    
C3    C5    A    
C6    C7    A    
C19   H23   S    
O1    Zn1   S    
C2    C3    A    
C26   H14   S    
C11   C13   A    
C2    C37   A    
C20   H3    S    
C19   C24   S    
C19   C25   S    
C10   C11   A    
C21   H5    S    
C22   H8    S    
C8    C28   S    
C21   C24   S    
C12   C18   S    
O6    Zn2   S    
C27   N3    T    
C4    O4    A    
