data_mof_unit_42287.cif
_audit_creation_date              2012-12-10T17:16:42-0500
_audit_creation_method            fapswitch 2.2
_symmetry_space_group_name_H-M    P1
_symmetry_Int_Tables_number       1
_space_group_crystal_system       triclinic
_cell_length_a                    10.165061
_cell_length_b                    10.649672
_cell_length_c                    10.818424
_cell_angle_alpha                 90.453311
_cell_angle_beta                  95.160476
_cell_angle_gamma                 78.724279
_cell_volume                      1143.82639194

loop_
_atom_site_label
_atom_site_type_symbol
_atom_type_description
_atom_site_fract_x
_atom_site_fract_y
_atom_site_fract_z
_atom_type_partial_charge
C1    C     C_R   0.444021 0.504690 0.267244 0.943489
C2    C     C_R   0.492745 0.741327 0.485038 0.887984
C3    C     C_R   0.754605 0.060241 0.473556 -0.078978
C4    C     C_R   0.246500 0.940034 0.530064 -0.079042
C5    C     C_R   0.845531 0.984086 0.401584 -0.181122
C6    C     C_R   0.156089 0.016190 0.602558 -0.181865
C7    C     C_R   0.808834 0.880936 0.335699 -0.010006
C8    C     C_R   0.193083 0.119482 0.667995 -0.008575
C9    C     C_R   0.683257 0.850416 0.350909 -0.179012
C10   C     C_R   0.318336 0.150156 0.651813 -0.179310
C11   C     C_R   0.594961 0.921558 0.431698 0.052068
C12   C     C_R   0.556276 0.488063 0.732726 0.943562
C13   C     C_R   0.406164 0.078771 0.570841 0.054217
C14   C     C_R   0.623413 0.036010 0.480378 0.080316
C15   C     C_R   0.377618 0.964216 0.522425 0.079715
C16   C     C_R   0.480883 0.878909 0.467512 -0.218654
C17   C     C_R   0.519885 0.121442 0.534554 -0.216473
C18   C     C_2   0.100141 0.197659 0.749881 0.923778
C19   C     C_2   0.902436 0.802767 0.254360 0.921244
C20   C     C_2   0.878192 0.375641 0.341521 1.012055
C21   C     C_2   0.121911 0.623467 0.659014 1.014939
C22   C     C_2   0.412652 0.495411 0.135436 -0.336397
C23   C     C_2   0.588797 0.469204 0.864384 -0.336438
C24   C     C_2   0.514140 0.455965 0.065852 -0.121736
C25   C     C_2   0.489440 0.459353 0.933721 -0.141980
C26   C     C_2   0.074429 0.488580 0.492457 -0.111280
C27   C     C_2   0.925499 0.511830 0.507048 -0.107486
C28   C     C_R   0.507434 0.258844 0.515567 0.879154
H1    H     H_    0.790232 0.135287 0.526601 0.193578
H2    H     H_    0.308948 0.521844 0.095237 0.172893
H3    H     H_    0.883445 0.582107 0.572806 0.193806
H4    H     H_    0.116451 0.418721 0.426335 0.195072
H5    H     H_    0.069977 0.341506 0.873036 0.364124
H6    H     H_    0.933779 0.658586 0.131700 0.364802
H7    H     H_    0.966071 0.361579 0.180482 0.339141
H8    H     H_    0.033733 0.636375 0.819871 0.340453
H9    H     H_    0.210312 0.865233 0.477142 0.194380
H10   H     H_    0.943728 0.007524 0.395765 0.180808
H11   H     H_    0.057998 0.992734 0.609012 0.180765
H12   H     H_    0.654370 0.770492 0.300180 0.191984
H13   H     H_    0.347384 0.230400 0.701900 0.186683
H14   H     H_    0.386459 0.463427 0.893800 0.214367
H15   H     H_    0.618132 0.429818 0.105637 0.211431
H16   H     H_    0.691473 0.465356 0.904720 0.174296
N1    N     N_2   0.157300 0.551390 0.551120 -0.170830
N2    N     N_2   0.842700 0.448610 0.448880 -0.168605
O1    O     O_R   0.568940 0.489660 0.307530 -0.611855
O2    O     O_R   0.141847 0.295911 0.820207 -0.795371
O3    O     O_2   0.015559 0.824342 0.248182 -0.638498
O4    O     O_R   0.861450 0.704164 0.184066 -0.786495
O5    O     O_2   0.833664 0.278414 0.320582 -0.636476
O6    O     O_R   0.951921 0.420580 0.254147 -0.826572
O7    O     O_2   0.166749 0.720370 0.680906 -0.628720
O8    O     O_R   0.047826 0.577993 0.745755 -0.827852
O9    O     O_R   0.431060 0.510340 0.692470 -0.610334
O10   O     O_R   0.348880 0.522640 0.340350 -0.604334
O11   O     O_R   0.651120 0.477360 0.659650 -0.604252
O12   O     O_R   0.610030 0.300280 0.483580 -0.598273
O13   O     O_R   0.389970 0.699720 0.516420 -0.595281
O14   O     O_R   0.389970 0.333270 0.516400 -0.630135
O15   O     O_R   0.610030 0.666730 0.483600 -0.627641
O16   O     O_2   0.986982 0.176359 0.756534 -0.637937
Zn1   Zn    Zn3+2 0.646940 0.477980 0.478080 0.998378
Zn2   Zn    Zn3+2 0.353060 0.522020 0.521920 0.998335

loop_
_geom_bond_atom_site_label_1
_geom_bond_atom_site_label_2
_ccdc_geom_bond_type
C25   H14   S    
C9    H12   S    
C6    C8    A    
O10   Zn2   S    
C26   H4    S    
C28   O12   A    
C2    C16   S    
C11   C16   A    
C19   O3    D    
N1    Zn2   S    
C7    C19   S    
C19   O4    S    
C2    O15   A    
C13   C17   A    
N2    Zn1   S    
O14   Zn2   S    
O9    Zn2   S    
C4    C15   A    
C13   C15   A    
C26   C27   S    
C1    C22   S    
C20   O6    S    
C5    H10   S    
C24   C25   S    
C10   H13   S    
C21   O7    D    
C9    C11   A    
C14   C17   A    
C3    H1    S    
O13   Zn2   S    
C3    C14   A    
C12   O11   A    
C27   N2    D    
C4    C6    A    
C1    O10   A    
H5    O2    S    
O11   Zn1   S    
C20   O5    D    
C21   N1    S    
C23   C25   D    
O1    Zn1   S    
C21   O8    S    
C11   C14   A    
C22   C24   D    
H6    O4    S    
C12   O9    A    
H8    O8    S    
C27   H3    S    
C15   C16   A    
C7    C9    A    
O12   Zn1   S    
C28   O14   A    
C4    H9    S    
O15   Zn1   S    
H7    O6    S    
C5    C7    A    
C24   H15   S    
C6    H11   S    
C18   O16   D    
C12   C23   S    
C22   H2    S    
C26   N1    D    
C2    O13   A    
C17   C28   S    
C10   C13   A    
C8    C10   A    
C8    C18   S    
C23   H16   S    
C1    O1    A    
C3    C5    A    
C20   N2    S    
C18   O2    S    
