data_mof_unit_30100.cif
_audit_creation_date              2013-03-05T16:04:12-0500
_audit_creation_method            fapswitch 2.2
_symmetry_space_group_name_H-M    P1
_symmetry_Int_Tables_number       1
_space_group_crystal_system       triclinic
_cell_length_a                    19.496582
_cell_length_b                    6.941078
_cell_length_c                    17.7159
_cell_angle_alpha                 89.968357
_cell_angle_beta                  109.014729
_cell_angle_gamma                 89.989622
_cell_volume                      2266.62740306

loop_
_atom_site_label
_atom_site_type_symbol
_atom_site_description
_atom_site_fract_x
_atom_site_fract_y
_atom_site_fract_z
_atom_type_partial_charge
O1    O     O_R   0.561710 0.369960 0.440200 -0.563822
O2    O     O_R   0.061710 0.630040 0.940200 -0.565317
O3    O     O_R   0.412630 0.033330 0.406330 -0.603297
O4    O     O_R   0.912630 0.966670 0.906330 -0.601896
O5    O     O_R   0.438290 0.869790 0.559800 -0.603357
O6    O     O_R   0.938290 0.130210 0.059800 -0.602448
C1    C     C_R   0.384625 0.203159 0.383521 0.925220
C2    C     C_R   0.884962 0.796903 0.883029 0.929446
O7    O     O_R   0.559570 0.039810 0.430640 -0.580862
O8    O     O_R   0.059570 0.960190 0.930640 -0.583077
O9    O     O_R   0.586280 0.876320 0.584290 -0.591472
O10   O     O_R   0.086280 0.123680 0.084290 -0.602590
C3    C     C_R   0.582558 0.208938 0.417358 1.007849
C4    C     C_R   0.082695 0.791169 0.917570 1.003105
O11   O     O_R   0.413720 0.363440 0.415710 -0.599924
O12   O     O_R   0.913720 0.636560 0.915710 -0.600001
O13   O     O_3   0.508590 0.205630 0.550380 -0.286848
O14   O     O_3   0.008590 0.794370 0.050380 -0.284314
V1    V     V_3+5 0.498410 0.928130 0.490650 1.178077
V2    V     V_3+5 0.998410 0.071870 0.990650 1.174535
O15   O     O_R   0.587370 0.546990 0.593670 -0.578644
O16   O     O_R   0.087370 0.453010 0.093670 -0.573976
C5    C     C_R   0.614868 0.716812 0.617409 1.017355
C6    C     C_R   0.115619 0.283186 0.116382 1.017119
O17   O     O_R   0.440430 0.540520 0.569360 -0.605678
O18   O     O_R   0.940430 0.459480 0.069360 -0.605313
C7    C     C_R   0.418736 0.709306 0.584343 0.900838
C8    C     C_R   0.918696 0.290653 0.084263 0.902878
V3    V     V_3+5 0.501590 0.428960 0.509350 1.183592
V4    V     V_3+5 0.001590 0.571040 0.009350 1.184082
O19   O     O_3   0.491410 0.701330 0.449620 -0.269602
O20   O     O_3   0.991410 0.298670 0.949620 -0.269759
C9    C     C_R   0.304193 0.911478 0.703669 -0.147511
C10   C     C_R   0.804336 0.088435 0.203773 -0.147711
H1    H     H_    0.292580 0.051820 0.723246 0.107543
H2    H     H_    0.793369 0.948325 0.224159 0.108070
C11   C     C_R   0.351005 0.899922 0.658354 -0.162052
C12   C     C_R   0.851458 0.100072 0.158829 -0.162141
H3    H     H_    0.373183 0.032165 0.643520 0.130516
H4    H     H_    0.874488 0.968069 0.145025 0.131230
C13   C     C_R   0.369412 0.720482 0.633199 -0.122576
C14   C     C_R   0.869136 0.279364 0.132795 -0.122940
C15   C     C_R   0.339326 0.552936 0.654307 -0.158733
C16   C     C_R   0.837957 0.446621 0.152525 -0.158528
H5    H     H_    0.351670 0.412447 0.635493 0.125124
H6    H     H_    0.849682 0.586924 0.132931 0.125315
C17   C     C_R   0.292223 0.564599 0.699358 -0.151721
C18   C     C_R   0.790493 0.434855 0.197113 -0.151775
H7    H     H_    0.269293 0.432746 0.713428 0.105812
H8    H     H_    0.766708 0.566484 0.210082 0.105604
C19   C     C_R   0.274129 0.744029 0.724901 0.147508
C20   C     C_R   0.773208 0.255640 0.223670 0.148031
C21   C     C_R   0.229362 0.617090 0.833630 -0.261724
C22   C     C_R   0.727515 0.385148 0.331116 -0.263082
H9    H     H_    0.269268 0.502915 0.844271 0.156324
H10   H     H_    0.766653 0.500946 0.340750 0.156122
C23   C     C_R   0.185369 0.628643 0.882555 0.381660
C24   C     C_R   0.683705 0.374137 0.380202 0.383173
C25   C     C_R   0.133921 0.780054 0.870952 -0.300901
C26   C     C_R   0.633421 0.220387 0.370235 -0.304275
C27   C     C_R   0.130453 0.919822 0.812318 -0.113844
C28   C     C_R   0.630741 0.078507 0.312678 -0.106824
H11   H     H_    0.091833 0.037129 0.802077 0.145234
H12   H     H_    0.592960 0.959537 0.303533 0.147220
C29   C     C_R   0.175444 0.908210 0.764910 -0.125606
C30   C     C_R   0.675533 0.089823 0.265018 -0.124958
H13   H     H_    0.170262 0.017040 0.719584 0.109733
H14   H     H_    0.671041 0.979142 0.220632 0.109502
C31   C     C_R   0.225242 0.756089 0.774609 0.049560
C32   C     C_R   0.724305 0.243826 0.273345 0.048988
C33   C     C_R   0.804162 0.620311 0.762588 0.156650
C34   C     C_R   0.268201 0.376499 0.311254 0.171414
C35   C     C_R   0.818139 0.782673 0.812558 -0.225821
C36   C     C_R   0.314350 0.217363 0.317688 -0.218134
C37   C     C_R   0.765356 0.928906 0.793995 -0.157669
C38   C     C_R   0.290756 0.072407 0.259575 -0.165187
H15   H     H_    0.773136 0.055367 0.831297 0.139563
H16   H     H_    0.324190 0.946999 0.261792 0.143556
C39   C     C_R   0.699396 0.906255 0.730883 -0.165149
C40   C     C_R   0.226201 0.094755 0.194567 -0.111149
H17   H     H_    0.659027 0.018986 0.720228 0.138268
H18   H     H_    0.211535 0.983670 0.149299 0.149738
C41   C     C_R   0.683786 0.735558 0.684987 -0.260764
C42   C     C_R   0.183336 0.263124 0.185451 -0.208065
C43   C     C_R   0.738839 0.597463 0.700368 0.300828
C44   C     C_R   0.204376 0.398707 0.247005 0.137275
C45   C     C_3   0.735868 0.387793 0.716763 -0.488513
C46   C     C_3   0.215464 0.610182 0.242841 -0.467834
C47   C     C_3   0.807320 0.412195 0.783997 -0.480743
C48   C     C_3   0.284759 0.586479 0.313256 -0.446177
H19   H     H_    0.740626 0.297081 0.667045 0.238252
H20   H     H_    0.225368 0.652589 0.186793 0.225155
H21   H     H_    0.689794 0.351548 0.738143 0.177620
H22   H     H_    0.173080 0.694879 0.257482 0.188400
H23   H     H_    0.853375 0.337063 0.772675 0.207940
H24   H     H_    0.334805 0.616549 0.298225 0.200729
H25   H     H_    0.802792 0.388215 0.844259 0.193589
H26   H     H_    0.282227 0.656596 0.368691 0.183125
N1    N     N_R   0.196671 0.491735 0.946287 0.232691
O21   O     O_R   0.206116 0.551477 0.018595 -0.434912
O22   O     O_R   0.209663 0.311967 0.934989 -0.417397
N2    N     N_R   0.694188 0.514110 0.442581 0.233153
O23   O     O_R   0.704979 0.457523 0.515551 -0.439052
O24   O     O_R   0.705855 0.693739 0.429488 -0.418647

loop_
_geom_bond_atom_site_label_1
_geom_bond_atom_site_label_2
_geom_bond_distance
_ccdc_geom_bond_type
C30   H14   1.082602 S    
C45   H19   1.111172 S    
O13   V3    1.698231 S    
C21   H9    1.083044 S    
O4    C2    1.305988 A    
V1    O19   1.721018 S    
C17   H7    1.082638 S    
C3    C26   1.491980 S    
C4    C25   1.490966 S    
O9    V1    1.990848 S    
C37   C39   1.411355 A    
C36   C38   1.405909 A    
C38   H16   1.080378 S    
C12   C14   1.408313 A    
O3    C1    1.306308 A    
C22   C24   1.405563 A    
C44   C46   1.489023 S    
C23   C25   1.420534 A    
C24   C26   1.420901 A    
C23   N1    1.436321 S    
C26   C28   1.406669 A    
C8    C14   1.490063 S    
C27   H11   1.083251 S    
O7    C3    1.304980 A    
C28   H12   1.083216 S    
O13   V1    2.175937 S    
O5    C7    1.297253 A    
O7    V1    1.994612 S    
O6    C8    1.297013 A    
C46   H20   1.111072 S    
O8    V2    1.994900 S    
C29   H13   1.082623 S    
C33   C47   1.489468 S    
O3    V1    1.982940 S    
O14   V4    1.699010 S    
V4    O20   2.144470 S    
C10   H2    1.082570 S    
C40   C42   1.414841 A    
C18   H8    1.082638 S    
C21   C31   1.405256 A    
C2    O12   1.294517 A    
C33   C43   1.395583 A    
C13   C15   1.406785 A    
C14   C16   1.406455 A    
C16   H6    1.082846 S    
O11   V3    2.010713 S    
C1    C36   1.485172 S    
C46   H22   1.111478 S    
C43   C45   1.488705 S    
O17   V3    1.994575 S    
C22   H10   1.083025 S    
C25   C27   1.406358 A    
C28   C30   1.400761 A    
C34   C36   1.405448 A    
O8    C4    1.304377 A    
C39   H17   1.081746 S    
C21   C23   1.406354 A    
C17   C19   1.408836 A    
C1    O11   1.294149 A    
O15   V3    2.018299 S    
C9    C11   1.400496 A    
C9    C19   1.406896 A    
C47   H25   1.111972 S    
O4    V2    1.983772 S    
C47   H23   1.111639 S    
C34   C48   1.490812 S    
C7    C13   1.490761 S    
N1    O21   1.301436 A    
C22   C32   1.404634 A    
O10   V2    1.991290 S    
O1    V3    1.994602 S    
N2    O24   1.301639 A    
C15   H5    1.082800 S    
C5    C41   1.485833 S    
C24   N2    1.435633 S    
C40   H18   1.082017 S    
C41   C43   1.397804 A    
C46   C48   1.519861 S    
O18   V4    1.994289 S    
O15   C5    1.306748 A    
O16   C6    1.307493 A    
O1    C3    1.298333 A    
C35   C37   1.405754 A    
C33   C35   1.404292 A    
V2    O20   1.720239 S    
O16   V4    2.017383 S    
N1    O22   1.301688 A    
C10   C12   1.400400 A    
O18   C8    1.302005 A    
C38   C40   1.410575 A    
C42   C44   1.397447 A    
C34   C44   1.394481 A    
C48   H24   1.111687 S    
O5    V1    1.993475 S    
O17   C7    1.302002 A    
O6    V2    1.993665 S    
O10   C6    1.290427 A    
C10   C20   1.406814 A    
O2    V4    1.994410 S    
C45   C47   1.518936 S    
C6    C42   1.485522 S    
V3    O19   2.143376 S    
C12   H4    1.082851 S    
C30   C32   1.406311 A    
C15   C17   1.401633 A    
C29   C31   1.406326 A    
C45   H21   1.111459 S    
O9    C5    1.290998 A    
C2    C35   1.485270 S    
C9    H1    1.082557 S    
O14   V2    2.174839 S    
C11   C13   1.408311 A    
N2    O23   1.300708 A    
O2    C4    1.298281 A    
C20   C32   1.495644 S    
C39   C41   1.413328 A    
C27   C29   1.400516 A    
C18   C20   1.408950 A    
C11   H3    1.082821 S    
C37   H15   1.079627 S    
C19   C31   1.495977 S    
O12   V4    2.010158 S    
C48   H26   1.111715 S    
C16   C18   1.401172 A    
