data_mof_unit_21417.cif
_audit_creation_date              2012-12-10T16:53:30-0500
_audit_creation_method            fapswitch 2.2
_symmetry_space_group_name_H-M    P1
_symmetry_Int_Tables_number       1
_space_group_crystal_system       triclinic
_cell_length_a                    7.860921
_cell_length_b                    8.577577
_cell_length_c                    13.511997
_cell_angle_alpha                 93.078886
_cell_angle_beta                  78.035449
_cell_angle_gamma                 93.649577
_cell_volume                      888.716211411

loop_
_atom_site_label
_atom_site_type_symbol
_atom_type_description
_atom_site_fract_x
_atom_site_fract_y
_atom_site_fract_z
_atom_type_partial_charge
C1    C     C_R   0.546043 0.794468 0.497088 0.931930
C2    C     C_1   0.549477 0.441564 0.120376 -0.028089
C3    C     C_2   0.570476 0.958066 0.496055 -0.392282
C4    C     C_2   0.432301 0.041904 0.498172 -0.375312
C5    C     C_3   0.121618 0.565412 0.038148 0.107071
C6    C     C_3   0.087777 0.717019 0.992763 -0.355837
C7    C     C_3   0.898976 0.720052 0.982420 -0.958551
C8    C     C_3   0.597752 0.199918 0.915211 0.085996
C9    C     C_3   0.601629 0.071808 0.989078 -0.389479
C10   C     C_3   0.535337 0.914604 0.949481 -0.936657
C11   C     C_3   0.029797 0.349550 0.316580 0.186070
C12   C     C_R   0.454605 0.205534 0.501111 0.932142
C13   C     C_3   0.934020 0.200905 0.283781 -0.360319
C14   C     C_3   0.942657 0.191513 0.169736 -0.992994
C15   C     C_3   0.992910 0.771296 0.612141 0.194745
C16   C     C_3   0.075518 0.815773 0.703667 -0.371726
C17   C     C_3   0.067085 0.990044 0.732432 -0.974293
C18   C     C_R   0.469777 0.505776 0.687560 0.874366
C19   C     C_R   0.529753 0.493662 0.312543 0.888549
C20   C     C_1   0.546338 0.466780 0.207884 -0.221123
C21   C     C_1   0.444597 0.508530 0.793432 -0.185416
C22   C     C_2   0.535104 0.419713 0.017983 0.395259
C23   C     C_2   0.409115 0.493300 0.989003 0.343236
C24   C     C_1   0.422619 0.505938 0.882945 -0.080005
H1    H     H_    0.701003 0.009104 0.495332 0.180234
H2    H     H_    0.681803 0.168167 0.841139 0.175469
H3    H     H_    0.463524 0.204786 0.900953 0.113876
H4    H     H_    0.736990 0.063440 0.999613 0.236570
H5    H     H_    0.517901 0.101602 0.063747 0.220501
H6    H     H_    0.401464 0.923207 0.936699 0.257813
H7    H     H_    0.532999 0.824908 0.005971 0.299677
H8    H     H_    0.621358 0.877860 0.877035 0.263488
H9    H     H_    0.164099 0.353283 0.270184 0.153845
H10   H     H_    0.971839 0.456973 0.298971 0.132835
H11   H     H_    0.994123 0.096865 0.304748 0.221307
H12   H     H_    0.302851 0.991091 0.497261 0.173730
H13   H     H_    0.795627 0.197586 0.323209 0.248513
H14   H     H_    0.875328 0.289717 0.147382 0.277145
H15   H     H_    0.877254 0.079754 0.148721 0.270396
H16   H     H_    0.080208 0.195423 0.127779 0.261117
H17   H     H_    0.869495 0.832026 0.621800 0.141145
H18   H     H_    0.076561 0.813709 0.540936 0.108808
H19   H     H_    0.005567 0.748984 0.769314 0.244852
H20   H     H_    0.213493 0.785005 0.687289 0.241441
H21   H     H_    0.133176 0.060796 0.667775 0.280537
H22   H     H_    0.132530 0.017748 0.797123 0.264429
H23   H     H_    0.026623 0.551307 0.110819 0.163572
H24   H     H_    0.929438 0.021883 0.755500 0.265232
H25   H     H_    0.097128 0.461850 0.988339 0.144826
H26   H     H_    0.117680 0.818371 0.042326 0.237183
H27   H     H_    0.173210 0.728631 0.916770 0.220249
H28   H     H_    0.864903 0.619444 0.933728 0.304452
H29   H     H_    0.882030 0.829551 0.946610 0.271129
H30   H     H_    0.810460 0.716665 0.057985 0.270504
N1    N     N_2   0.954190 0.457600 0.473930 0.169076
N2    N     N_2   0.045810 0.542400 0.526070 0.170934
O1    O     O_R   0.388300 0.738660 0.506400 -0.639647
O2    O     O_3   0.665157 0.344886 0.950118 -0.659508
O3    O     O_3   0.043534 0.342388 0.418721 -0.555409
O4    O     O_3   0.948722 0.609498 0.609426 -0.541772
O5    O     O_R   0.611700 0.261340 0.493600 -0.619818
O6    O     O_R   0.679920 0.711490 0.489690 -0.636131
O7    O     O_R   0.320080 0.288510 0.510310 -0.575268
O8    O     O_R   0.333200 0.515510 0.649910 -0.616554
O9    O     O_R   0.666800 0.484490 0.350090 -0.649056
O10   O     O_R   0.624820 0.488340 0.633200 -0.551774
O11   O     O_R   0.375180 0.511660 0.366800 -0.602425
O12   O     O_3   0.289908 0.575351 0.060718 -0.674096
Zn1   Zn    Zn3+2 0.305280 0.518140 0.511160 1.016218
Zn2   Zn    Zn3+2 0.694720 0.481860 0.488840 1.003079

loop_
_geom_bond_atom_site_label_1
_geom_bond_atom_site_label_2
_ccdc_geom_bond_type
C23   O12   S    
C2    C22   S    
C23   C24   S    
C4    H12   S    
C19   O11   A    
C6    C7    S    
N1    O3    S    
C6    H27   S    
C4    C12   S    
C18   C21   S    
C11   C13   S    
C9    C10   S    
C10   H6    S    
O1    Zn1   S    
C13   H13   S    
C19   C20   S    
C17   H24   S    
C9    H5    S    
N1    N2    D    
C18   O8    A    
C1    O6    A    
C9    H4    S    
O8    Zn1   S    
O5    Zn2   S    
C13   C14   S    
C6    H26   S    
C12   O5    A    
C5    H23   S    
C16   H19   S    
C5    H25   S    
C22   O2    S    
O10   Zn2   S    
C5    O12   S    
C11   O3    S    
N2    O4    S    
C17   H21   S    
C7    H28   S    
C19   O9    A    
C1    O1    A    
C11   H10   S    
O7    Zn1   S    
C5    C6    S    
N1    Zn2   S    
C14   H14   S    
C7    H29   S    
C15   H17   S    
C14   H16   S    
O9    Zn2   S    
C10   H8    S    
C11   H9    S    
C3    H1    S    
C8    H2    S    
C17   H22   S    
O6    Zn2   S    
N2    Zn1   S    
C15   O4    S    
C21   C24   T    
C1    C3    S    
C8    H3    S    
C12   O7    A    
C16   H20   S    
C18   O10   A    
C16   C17   S    
C7    H30   S    
C8    O2    S    
C14   H15   S    
C22   C23   D    
C2    C20   T    
C10   H7    S    
C13   H11   S    
C3    C4    D    
C15   C16   S    
C15   H18   S    
C8    C9    S    
O11   Zn1   S    
