data_mof_unit_46863.cif
_audit_creation_date              2012-12-11T14:57:58-0500
_audit_creation_method            fapswitch 2.2
_symmetry_space_group_name_H-M    P1
_symmetry_Int_Tables_number       1
_space_group_crystal_system       triclinic
_cell_length_a                    6.948567
_cell_length_b                    16.684767
_cell_length_c                    17.030033
_cell_angle_alpha                 100.372058
_cell_angle_beta                  91.249913
_cell_angle_gamma                 89.890315
_cell_volume                      1941.65188617

loop_
_atom_site_label
_atom_site_type_symbol
_atom_type_description
_atom_site_fract_x
_atom_site_fract_y
_atom_site_fract_z
_atom_type_partial_charge
O1    O     O_R   0.506180 0.438940 0.579430 -0.544244
O2    O     O_R   0.170520 0.406230 0.413590 -0.536616
O3    O     O_R   0.005180 0.561060 0.420570 -0.543874
C1    C     C_R   0.338824 0.383121 0.385305 0.697609
O4    O     O_R   0.176140 0.429310 0.578370 -0.534251
O5    O     O_R   0.010830 0.584300 0.586530 -0.533315
C2    C     C_R   0.345820 0.417037 0.607705 0.680369
O6    O     O_R   0.500520 0.415700 0.413470 -0.533827
O7    O     O_3   0.340830 0.550820 0.502480 -0.370832
V1    V     V_3+5 0.064040 0.490570 0.499540 1.421250
O8    O     O_R   0.681400 0.593770 0.586410 -0.547498
C3    C     C_R   0.851643 0.616671 0.614626 0.694929
O9    O     O_R   0.675790 0.570690 0.421630 -0.539159
C4    C     C_R   0.841811 0.586081 0.394563 0.697356
V2    V     V_3+5 0.564650 0.509430 0.500460 1.409033
O10   O     O_3   0.837730 0.449180 0.497520 -0.363257
C5    C     C_R   0.930881 0.861240 0.167112 -0.113774
C6    C     C_R   0.839194 0.638520 0.332674 -0.041791
C7    C     C_R   0.660739 0.692461 0.229176 -0.168742
C8    C     C_R   0.675819 0.638450 0.282609 -0.170630
C9    C     C_R   0.989990 0.692984 0.327214 -0.183912
C10   C     C_R   0.976150 0.749657 0.274285 0.095872
C11   C     C_R   0.807176 0.749077 0.225250 0.189834
C12   C     C_R   0.785565 0.804833 0.172661 -0.209059
C13   C     C_R   0.096080 0.862953 0.216561 -0.150280
C14   C     C_R   0.122008 0.808340 0.269999 -0.041712
H1    H     H_    0.658289 0.802654 0.134322 0.119145
H2    H     H_    0.208318 0.906893 0.212241 0.164069
H3    H     H_    0.531938 0.691000 0.191861 0.101224
H4    H     H_    0.557628 0.596852 0.285378 0.117411
H5    H     H_    0.111412 0.692714 0.367625 0.101364
H6    H     H_    0.817211 0.624567 0.978682 0.105669
C15   C     C_R   0.919181 0.911853 0.723819 -0.143215
C16   C     C_R   0.909809 0.928707 0.646700 -0.218171
C17   C     C_R   0.881099 0.866072 0.581217 0.036812
C18   C     C_R   0.868782 0.785253 0.593457 -0.129074
C19   C     C_R   0.879009 0.766528 0.671292 0.028126
C20   C     C_R   0.900607 0.831276 0.737764 0.067157
C21   C     C_R   0.866164 0.684906 0.683715 -0.186962
C22   C     C_R   0.866215 0.668581 0.762610 0.064443
C23   C     C_R   0.874597 0.733961 0.829005 0.064744
C24   C     C_R   0.899169 0.814935 0.816564 -0.186826
C25   C     C_R   0.853109 0.587872 0.776985 -0.116213
C26   C     C_R   0.833404 0.572563 0.854229 -0.079747
C27   C     C_R   0.832584 0.636770 0.918818 -0.125435
C28   C     C_R   0.856603 0.716575 0.906828 -0.150687
H7    H     H_    0.938510 0.962970 0.772406 0.113476
H8    H     H_    0.921603 0.991364 0.638322 0.114073
H9    H     H_    0.849163 0.737383 0.541825 0.127785
H10   H     H_    0.851568 0.535975 0.728618 0.096330
H11   H     H_    0.818312 0.510550 0.863956 0.108751
H12   H     H_    0.859456 0.764365 0.959049 0.090254
H13   H     H_    0.116496 0.468640 0.137477 0.109427
C29   C     C_R   0.482744 0.224936 0.406007 -0.130188
C30   C     C_R   0.560880 0.150931 0.417837 -0.138744
C31   C     C_R   0.591396 0.088879 0.353055 -0.083036
C32   C     C_R   0.543897 0.100310 0.275913 -0.136247
C33   C     C_R   0.465165 0.174904 0.261909 0.055925
C34   C     C_R   0.433624 0.238593 0.328412 0.074663
C35   C     C_R   0.414984 0.186133 0.183451 -0.185251
C36   C     C_R   0.333345 0.261327 0.171772 0.074427
C37   C     C_R   0.301643 0.324989 0.238277 0.067268
C38   C     C_R   0.351682 0.313755 0.316754 -0.186468
C39   C     C_R   0.284833 0.275060 0.094139 -0.127886
C40   C     C_R   0.207237 0.349136 0.082261 -0.126956
C41   C     C_R   0.176359 0.411128 0.147057 -0.126158
C42   C     C_R   0.223101 0.399597 0.224241 -0.148501
H14   H     H_    0.459659 0.270922 0.458410 0.097960
H15   H     H_    0.597127 0.141586 0.477685 0.114786
H16   H     H_    0.651656 0.031424 0.362618 0.157283
H17   H     H_    0.569409 0.049987 0.227599 0.118518
H18   H     H_    0.308125 0.229100 0.041739 0.092528
H19   H     H_    0.171709 0.358583 0.022375 0.108255
H20   H     H_    0.197338 0.449888 0.272556 0.103913
C43   C     C_R   0.405630 0.138063 0.832752 -0.047488
C44   C     C_R   0.359456 0.370772 0.674560 -0.080207
C45   C     C_R   0.429473 0.356901 0.812738 -0.217842
C46   C     C_R   0.389385 0.408453 0.756592 -0.002280
C47   C     C_R   0.345529 0.285103 0.654806 -0.243917
C48   C     C_R   0.365852 0.235849 0.713454 0.153675
C49   C     C_R   0.413084 0.271938 0.792729 0.142769
C50   C     C_R   0.436510 0.222720 0.851711 -0.226923
C51   C     C_R   0.356208 0.102770 0.753734 -0.173029
C52   C     C_R   0.339346 0.150959 0.694349 -0.174733
H21   H     H_    0.472769 0.250432 0.912795 0.098688
H22   H     H_    0.331521 0.037702 0.737932 0.116251
H23   H     H_    0.468892 0.383004 0.873851 0.111764
H24   H     H_    0.302482 0.121974 0.633737 0.116715
H25   H     H_    0.316669 0.256686 0.593249 0.104957
O11   O     O_R   0.265840 0.084300 0.086750 -0.533260
O12   O     O_R   0.589750 0.070740 0.921690 -0.536193
O13   O     O_R   0.755020 0.915730 0.913400 -0.536013
C53   C     C_R   0.419330 0.086779 0.895396 0.691601
O14   O     O_R   0.595830 0.093740 0.086480 -0.537748
O15   O     O_R   0.761150 0.938890 0.079360 -0.537447
C54   C     C_R   0.427632 0.116784 0.114907 0.696147
O16   O     O_R   0.259710 0.061140 0.920790 -0.537248
O17   O     O_3   0.425260 0.949200 0.997610 -0.371499
V3    V     V_3+5 0.702060 0.009430 0.000450 1.423105
O18   O     O_R   0.090530 0.929220 0.078150 -0.545316
C55   C     C_R   0.924854 0.913640 0.105144 0.700165
O19   O     O_R   0.084440 0.906220 0.913360 -0.542240
C56   C     C_R   0.914084 0.883048 0.885607 0.696672
V4    V     V_3+5 0.201450 0.990520 0.999290 1.410820
O20   O     O_3   0.928380 0.050800 0.002390 -0.363464
C57   C     C_2   0.861231 0.886510 0.500484 0.374137
H26   H     H_    0.885609 0.948539 0.491771 0.041939
O21   O     O_2   0.814031 0.834962 0.443034 -0.523217
C58   C     C_R   0.366140 0.498740 0.788906 0.067064
C59   C     C_R   0.300795 0.524509 0.867692 -0.122341
C60   C     C_R   0.291376 0.607099 0.901837 -0.101772
C61   C     C_R   0.335197 0.666326 0.856967 -0.064878
C62   C     C_R   0.391191 0.642935 0.778250 -0.093263
C63   C     C_R   0.410137 0.560354 0.745118 -0.142618
H27   H     H_    0.255023 0.481128 0.903666 0.096265
H28   H     H_    0.245410 0.625164 0.962784 0.101075
H29   H     H_    0.324855 0.730288 0.883046 0.110169
H30   H     H_    0.426573 0.688965 0.743461 0.117725
H31   H     H_    0.469079 0.547039 0.687024 0.133325
C64   C     C_2   0.303939 0.814091 0.318894 0.379069
H32   H     H_    0.347586 0.766791 0.351268 0.064540
O22   O     O_2   0.411347 0.872643 0.322922 -0.523200

loop_
_geom_bond_atom_site_label_1
_geom_bond_atom_site_label_2
_ccdc_geom_bond_type
C30   C31   A    
C6    C9    A    
H6    C27   S    
C4    C6    S    
O2    C1    A    
C7    C8    A    
C44   C47   A    
C48   C52   A    
C24   C56   S    
C49   C50   A    
C8    H4    S    
C45   C46   A    
C26   C27   A    
C13   H2    S    
C9    H5    S    
C1    C38   S    
C37   C38   A    
C37   C42   A    
C18   C19   A    
C44   C46   A    
C20   C24   A    
O5    C3    A    
C61   H29   S    
O19   V4    S    
O15   V3    S    
C29   H14   S    
C57   H26   S    
C33   C35   A    
V2    O10   S    
C28   H12   S    
O18   V4    S    
C40   H19   S    
C31   C32   A    
C16   C17   A    
C23   C24   A    
C5    C55   S    
C59   C60   A    
V4    O20   S    
O13   C56   A    
O8    V2    S    
C22   C25   A    
C17   C18   A    
C23   C28   A    
C12   H1    S    
C60   H28   S    
O1    V2    S    
O7    V1    S    
C63   H31   S    
C1    O6    A    
C41   C42   A    
O9    C4    A    
C36   C37   A    
C61   C62   A    
C64   O22   D    
C29   C34   A    
V3    O20   S    
C5    C12   A    
C21   C22   A    
O4    C2    A    
C13   C14   A    
C27   C28   A    
C47   C48   A    
C35   C36   A    
C36   C39   A    
C7    C11   A    
C25   C26   A    
C19   C20   A    
O12   C53   A    
C51   C52   A    
C45   C49   A    
C11   C12   A    
C15   C16   A    
C43   C50   A    
C42   H20   S    
C32   H17   S    
O14   C54   A    
H13   C41   S    
O11   V4    S    
C30   H15   S    
O3    C4    A    
C58   C63   A    
C35   C54   S    
C26   H11   S    
C22   C23   A    
O17   V3    S    
O6    V2    S    
C31   H16   S    
O9    V2    S    
C15   H7    S    
C16   H8    S    
O2    V1    S    
C53   O16   A    
C64   H32   S    
C43   C53   S    
C62   C63   A    
C29   C30   A    
C60   C61   A    
O1    C2    A    
C52   H24   S    
C14   C64   S    
C48   C49   A    
O5    V1    S    
O8    C3    A    
C25   H10   S    
O11   C54   A    
C2    C44   S    
C50   H21   S    
C34   C38   A    
C15   C20   A    
C5    C13   A    
C39   C40   A    
C3    C21   S    
C33   C34   A    
O4    V1    S    
C19   C21   A    
O3    V1    S    
V1    O10   S    
C58   C59   A    
C43   C51   A    
C32   C33   A    
C57   O21   D    
O14   V3    S    
O17   V4    S    
O18   C55   A    
C46   C58   S    
C6    C8    A    
C39   H18   S    
O7    V2    S    
O19   C56   A    
C47   H25   S    
O16   V4    S    
C62   H30   S    
C51   H22   S    
C45   H23   S    
C40   C41   A    
C10   C14   A    
C17   C57   S    
C10   C11   A    
O12   V3    S    
C9    C10   A    
C59   H27   S    
C18   H9    S    
O15   C55   A    
O13   V3    S    
C7    H3    S    
