data_mof_unit_38836.cif
_audit_creation_date              2012-12-10T19:06:28-0500
_audit_creation_method            fapswitch 2.2
_symmetry_space_group_name_H-M    P1
_symmetry_Int_Tables_number       1
_space_group_crystal_system       triclinic
_cell_length_a                    23.516708
_cell_length_b                    10.824712
_cell_length_c                    9.527941
_cell_angle_alpha                 89.820778
_cell_angle_beta                  90.096424
_cell_angle_gamma                 90.055869
_cell_volume                      2425.43138147

loop_
_atom_site_label
_atom_site_type_symbol
_atom_type_description
_atom_site_fract_x
_atom_site_fract_y
_atom_site_fract_z
_atom_type_partial_charge
C1    C     C_R   0.500808 0.262247 0.500172 0.837892
C2    C     C_R   0.970213 0.272987 0.458038 -0.158361
C3    C     C_R   0.029549 0.272832 0.458993 -0.161911
C4    C     C_R   0.059901 0.383192 0.479494 -0.033832
C5    C     C_R   0.030031 0.494510 0.499348 -0.019396
C6    C     C_R   0.060027 0.605738 0.519743 -0.012159
C7    C     C_R   0.029831 0.716193 0.539785 -0.164105
C8    C     C_R   0.970510 0.716224 0.539828 -0.162370
C9    C     C_R   0.119549 0.385345 0.480886 0.597533
C10   C     C_R   0.119651 0.603485 0.519139 0.517307
C11   C     C_R   0.238817 0.476707 0.373103 0.491012
C12   C     C_R   0.390915 0.499516 0.499922 0.840908
C13   C     C_R   0.298367 0.476782 0.374294 -0.305064
C14   C     C_R   0.328344 0.498451 0.499516 -0.089596
C15   C     C_R   0.298061 0.518491 0.624279 -0.236576
C16   C     C_R   0.238842 0.516435 0.623948 -0.177750
C17   C     C_R   0.209031 0.494887 0.499090 0.274208
C18   C     C_R   0.761095 0.485878 0.372419 -0.101593
C19   C     C_R   0.701802 0.487321 0.372698 -0.213923
C20   C     C_R   0.671827 0.497531 0.499755 -0.039051
C21   C     C_R   0.702374 0.505366 0.626375 -0.212095
C22   C     C_R   0.761654 0.504559 0.625753 -0.101402
C23   C     C_R   0.500920 0.737688 0.499783 0.804762
C24   C     C_R   0.791133 0.494918 0.498851 0.360382
C25   C     C_R   0.505162 0.062758 0.626313 0.064981
C26   C     C_R   0.505995 0.129113 0.500295 -0.055081
C27   C     C_R   0.514501 0.064852 0.373960 -0.215372
C28   C     C_R   0.514522 0.936071 0.373597 -0.207075
C29   C     C_R   0.506212 0.870707 0.499610 -0.058975
C30   C     C_R   0.505451 0.935676 0.625751 0.044087
C31   C     C_3   0.465102 0.927051 0.746174 -0.524172
C32   C     C_3   0.465006 0.067906 0.748036 0.287527
C33   C     C_R   0.519923 0.599969 0.073422 0.253126
C34   C     C_R   0.609143 0.499384 0.500007 0.795965
C35   C     C_R   0.474432 0.407905 0.074625 -0.087473
C36   C     C_R   0.474397 0.408060 0.925648 -0.094947
C37   C     C_R   0.519900 0.599954 0.926002 0.256370
C38   C     C_3   0.578277 0.653284 0.920017 -0.496352
C39   C     C_3   0.578343 0.653238 0.079382 -0.498374
C40   C     C_R   0.880524 0.603602 0.519036 0.533861
C41   C     C_R   0.880349 0.385881 0.477876 0.533460
C42   C     C_R   0.940003 0.383453 0.477943 -0.015570
C43   C     C_R   0.970020 0.494602 0.498904 -0.015989
C44   C     C_R   0.940164 0.605847 0.519492 -0.015805
Cu1   Cu    Cu3+1 0.500000 0.499980 0.640670 0.952187
Cu2   Cu    Cu3+1 0.500000 0.500020 0.359330 0.943069
H1    H     H_    0.948139 0.186313 0.441857 0.189719
H2    H     H_    0.680633 0.512189 0.725872 0.147933
H3    H     H_    0.784760 0.511119 0.723857 0.138015
H4    H     H_    0.518481 0.113394 0.274869 0.157001
H5    H     H_    0.518343 0.888435 0.274323 0.152256
H6    H     H_    0.423788 0.884712 0.715668 0.211172
H7    H     H_    0.485441 0.110276 0.841928 0.058649
H8    H     H_    0.454565 0.332236 0.130421 0.138873
H9    H     H_    0.051511 0.186048 0.443476 0.188956
H10   H     H_    0.454465 0.333056 0.869801 0.158348
H11   H     H_    0.578601 0.747617 0.873599 0.196423
H12   H     H_    0.609935 0.588447 0.125252 0.214357
H13   H     H_    0.578756 0.747614 0.124860 0.190437
H14   H     H_    0.051903 0.802919 0.555625 0.189715
H15   H     H_    0.948554 0.802963 0.555727 0.190296
H16   H     H_    0.215964 0.531593 0.720849 0.156081
H17   H     H_    0.783765 0.478234 0.274003 0.138404
N1    N     N_R   0.852037 0.494780 0.498419 -0.471965
N2    N     N_R   0.148043 0.494447 0.499889 -0.455479
N3    N     N_R   0.500360 0.500930 0.147930 -0.181562
N4    N     N_R   0.500360 0.500890 0.852020 -0.184116
O1    O     O_R   0.500000 0.319640 0.618810 -0.573795
O2    O     O_2   0.850820 0.280358 0.458346 -0.528894
O3    O     O_2   0.148896 0.279365 0.464087 -0.515798
O4    O     O_2   0.149087 0.709424 0.536621 -0.546412
O5    O     O_R   0.500010 0.319680 0.381230 -0.597877
O6    O     O_R   0.417880 0.499940 0.618820 -0.580924
O7    O     O_R   0.417880 0.499980 0.381240 -0.583186
O8    O     O_R   0.499990 0.680320 0.618770 -0.577897
O9    O     O_R   0.500000 0.680360 0.381190 -0.587767
O10   O     O_R   0.582120 0.500020 0.618760 -0.585127
O11   O     O_R   0.582120 0.500060 0.381180 -0.583771
O12   O     O_2   0.851166 0.709235 0.538320 -0.528988
H18   H     H_    0.679555 0.479911 0.273578 0.150548
H19   H     H_    0.485352 0.885990 0.840885 0.157332
O13   O     O_3   0.412311 0.120059 0.708031 -0.553574
C45   C     C_3   0.374896 0.120143 0.823834 0.065638
H20   H     H_    0.395557 0.155657 0.921044 0.109798
H21   H     H_    0.358820 0.025070 0.843919 0.157421
C46   C     C_3   0.324581 0.203438 0.790594 -0.737695
H22   H     H_    0.302404 0.170634 0.694654 0.266855
H23   H     H_    0.294195 0.202751 0.879680 0.205854
H24   H     H_    0.339673 0.299460 0.773228 0.241351
H25   H     H_    0.609753 0.588371 0.874980 0.211595
O14   O     O_3   0.209461 0.451289 0.250794 -0.560835
C47   C     C_3   0.208158 0.559002 0.167054 0.045568
H26   H     H_    0.251765 0.585111 0.132360 0.138152
H27   H     H_    0.188701 0.637599 0.225118 0.166041
C48   C     C_3   0.172293 0.534476 0.037095 -0.749943
H28   H     H_    0.128152 0.510290 0.068198 0.256170
H29   H     H_    0.171218 0.618301 0.969645 0.203919
H30   H     H_    0.190753 0.456901 0.976289 0.246291
H31   H     H_    0.320916 0.459213 0.277346 0.167370
H32   H     H_    0.320090 0.535815 0.722183 0.164800

loop_
_geom_bond_atom_site_label_1
_geom_bond_atom_site_label_2
_ccdc_geom_bond_type
C12   O7    A    
C41   C42   A    
C7    H14   S    
C48   H28   S    
C31   H6    S    
Cu2   O9    S    
C48   H30   S    
C7    C8    A    
Cu1   Cu2   S    
C26   C27   A    
C29   C30   A    
C18   C24   A    
C23   C29   S    
C28   C29   A    
Cu2   N3    S    
C34   O10   A    
C30   C31   S    
C28   H5    S    
C46   H23   S    
C18   H17   S    
C15   C16   A    
C1    O1    A    
Cu1   O6    S    
C18   C19   A    
C3    H9    S    
C45   H20   S    
C16   C17   A    
Cu1   N4    S    
C13   C14   A    
C15   H32   S    
Cu2   O5    S    
C27   H4    S    
C8    H15   S    
C21   H2    S    
C20   C34   S    
C10   O4    S    
C25   C32   S    
C5    C43   A    
C24   N1    S    
C12   O6    A    
C35   H8    S    
C16   H16   S    
C33   N3    A    
C38   C39   S    
C36   N4    A    
C1    O5    A    
C9    O3    S    
O14   C47   S    
Cu2   O11   S    
C46   H22   S    
C35   N3    A    
C25   C26   A    
C39   H12   S    
C47   C48   S    
C33   C37   A    
C35   C36   A    
C13   H31   S    
C43   C44   A    
C37   C38   S    
C36   H10   S    
C38   H11   S    
C31   C32   S    
C39   H13   S    
Cu1   O1    S    
C47   H27   S    
C40   O12   S    
C33   C39   S    
C22   H3    S    
C45   H21   S    
C12   C14   S    
C1    C26   S    
C22   C24   A    
C42   C43   A    
C3    C4    A    
C32   H7    S    
Cu2   O7    S    
C41   O2    S    
C10   N2    A    
C25   C30   A    
C11   C17   A    
C8    C44   A    
C23   O8    A    
C4    C5    A    
C46   H24   S    
C40   N1    A    
C6    C10   A    
C48   H29   S    
C6    C7    A    
C2    H1    S    
C32   O13   S    
C38   H25   S    
C17   N2    S    
C31   H19   S    
Cu1   O8    S    
C19   C20   A    
C2    C3    A    
C34   O11   A    
C11   C13   A    
C5    C6    A    
C2    C42   A    
C37   N4    A    
C47   H26   S    
C19   H18   S    
C9    N2    A    
C11   O14   S    
C40   C44   A    
C45   C46   S    
C20   C21   A    
O13   C45   S    
C27   C28   A    
C23   O9    A    
C14   C15   A    
Cu1   O10   S    
C41   N1    A    
C4    C9    A    
C21   C22   A    
