data_mof_unit_24822.cif
_audit_creation_date              2012-12-10T18:11:39-0500
_audit_creation_method            fapswitch 2.2
_symmetry_space_group_name_H-M    P1
_symmetry_Int_Tables_number       1
_space_group_crystal_system       triclinic
_cell_length_a                    10.468208
_cell_length_b                    12.714471
_cell_length_c                    13.219086
_cell_angle_alpha                 83.434265
_cell_angle_beta                  93.188911
_cell_angle_gamma                 102.00143
_cell_volume                      1708.76734804

loop_
_atom_site_label
_atom_site_type_symbol
_atom_type_description
_atom_site_fract_x
_atom_site_fract_y
_atom_site_fract_z
_atom_type_partial_charge
C1    C     C_R   0.474801 0.440827 0.690100 0.859063
C2    C     C_3   0.065269 0.573532 0.560819 -0.261677
C3    C     C_3   0.957698 0.475402 0.592083 0.507882
C4    C     C_3   0.877454 0.502964 0.497504 -0.053934
C5    C     C_R   0.417516 0.715143 0.066775 0.496232
C6    C     C_R   0.486004 0.590848 0.201985 -0.089518
C7    C     C_R   0.438642 0.297681 0.834732 -0.171848
C8    C     C_R   0.420376 0.263827 0.937341 -0.164261
C9    C     C_R   0.413327 0.338625 0.004631 -0.174536
C10   C     C_R   0.418128 0.448722 0.968885 0.118048
C11   C     C_R   0.413161 0.478575 0.863034 0.027431
C12   C     C_R   0.742017 0.501225 0.499018 0.924899
C13   C     C_R   0.429498 0.530127 0.035357 -0.067017
C14   C     C_R   0.410474 0.635377 0.998670 -0.043851
C15   C     C_R   0.397063 0.661723 0.893383 0.515862
C16   C     C_R   0.387713 0.581562 0.827745 -0.362097
C17   C     C_R   0.473892 0.512124 0.135512 -0.218095
C18   C     C_R   0.454579 0.690772 0.168776 -0.335043
C19   C     C_R   0.439273 0.405560 0.796679 -0.083000
C20   C     C_R   0.277954 0.081490 0.379683 -0.403346
C21   C     C_R   0.687843 0.808437 0.596762 -0.072327
C22   C     C_R   0.740141 0.916832 0.606387 0.395003
C23   C     C_R   0.509285 0.559149 0.309286 0.916273
C24   C     C_R   0.663139 0.993647 0.576795 -0.318736
C25   C     C_R   0.539139 0.963600 0.528811 -0.076481
C26   C     C_R   0.495398 0.852811 0.512218 0.151462
C27   C     C_R   0.464382 0.041256 0.486739 0.020229
C28   C     C_R   0.347488 0.007254 0.429943 0.096862
C29   C     C_R   0.306391 0.900320 0.414386 -0.344858
C30   C     C_R   0.385127 0.826213 0.444977 0.451616
C31   C     C_R   0.501929 0.152535 0.495622 -0.136950
C32   C     C_R   0.323704 0.191470 0.386673 0.626331
C33   C     C_R   0.257936 0.498989 0.500554 0.931221
C34   C     C_3   0.935170 0.427591 0.437723 -0.309691
C35   C     C_3   0.016697 0.399610 0.534794 -0.314690
C36   C     C_3   0.122545 0.498211 0.500773 -0.115982
C37   C     C_3   0.042470 0.526184 0.405400 0.558597
C38   C     C_3   0.983670 0.602130 0.463806 -0.327087
H1    H     H_    0.034472 0.318615 0.565107 0.160976
H2    H     H_    0.504296 0.437458 0.162515 0.171436
H3    H     H_    0.453618 0.239268 0.785331 0.163209
H4    H     H_    0.400817 0.308209 0.083957 0.147218
H5    H     H_    0.416293 0.179882 0.965254 0.151651
H6    H     H_    0.364791 0.604007 0.748700 0.192994
H7    H     H_    0.219841 0.876763 0.366436 0.137023
H8    H     H_    0.193336 0.053855 0.331556 0.153934
H9    H     H_    0.583427 0.186250 0.543339 0.156115
H10   H     H_    0.746220 0.748686 0.620812 0.178334
H11   H     H_    0.878183 0.369810 0.386933 0.155494
H12   H     H_    0.705614 0.076697 0.586761 0.143277
H13   H     H_    0.963953 0.683439 0.437316 0.158790
H14   H     H_    0.121818 0.630446 0.612637 0.174869
H15   H     H_    0.455894 0.748963 0.222267 0.202633
N1    N     N_R   0.432930 0.222190 0.444670 -0.139359
N2    N     N_R   0.566370 0.776980 0.554790 -0.157679
O1    O     O_R   0.467970 0.366730 0.627150 -0.622275
O2    O     O_R   0.510820 0.544830 0.662520 -0.629674
O3    O     O_R   0.664630 0.410960 0.482340 -0.629459
O4    O     O_R   0.707470 0.589060 0.517710 -0.627112
O5    O     O_R   0.489180 0.455170 0.337480 -0.591091
O6    O     O_R   0.532030 0.633270 0.372850 -0.559197
O7    O     O_R   0.292530 0.410940 0.482290 -0.599789
O8    O     O_R   0.335370 0.589040 0.517660 -0.577939
Zn1   Zn    Zn3+2 0.471390 0.381080 0.476380 0.985206
Zn2   Zn    Zn3+2 0.528610 0.618920 0.523620 0.974501
O9    O     O_3   0.270008 0.271745 0.330102 -0.619505
C39   C     C_3   0.131670 0.248326 0.324986 0.089208
H16   H     H_    0.098946 0.321189 0.343272 0.208579
H17   H     H_    0.085622 0.181416 0.381801 0.113199
C40   C     C_3   0.082915 0.227700 0.216272 -0.361694
H18   H     H_    0.121498 0.300384 0.163238 0.244591
H19   H     H_    0.119453 0.158500 0.192761 0.211320
C41   C     C_3   0.933900 0.203574 0.207722 -0.955231
H20   H     H_    0.893201 0.129979 0.258770 0.265799
H21   H     H_    0.901571 0.189559 0.128079 0.269118
H22   H     H_    0.895239 0.272911 0.228569 0.259214
O10   O     O_3   0.867633 0.945380 0.642118 -0.780277
H23   H     H_    0.890715 0.024924 0.643414 0.332469
O11   O     O_3   0.368240 0.737494 0.392866 -0.723256
H24   H     H_    0.286132 0.729197 0.350530 0.321915
O12   O     O_3   0.099773 0.545158 0.308813 -0.658532
C42   C     C_3   0.037150 0.613351 0.239994 0.076314
H25   H     H_    0.102363 0.641863 0.174635 0.190224
H26   H     H_    0.026541 0.687563 0.272932 0.112106
C43   C     C_3   0.905272 0.552804 0.199151 -0.371148
H27   H     H_    0.919134 0.478260 0.168511 0.237296
H28   H     H_    0.834810 0.529370 0.261507 0.200602
C44   C     C_3   0.847060 0.623010 0.114913 -0.941245
H29   H     H_    0.828175 0.696308 0.144880 0.259307
H30   H     H_    0.753146 0.576469 0.085849 0.268534
H31   H     H_    0.914550 0.647752 0.050609 0.276716
O13   O     O_3   0.906238 0.449496 0.689225 -0.770566
H32   H     H_    0.980702 0.436461 0.735204 0.326912
O14   O     O_3   0.416774 0.769384 0.853909 -0.603208
C45   C     C_3   0.545807 0.802770 0.817418 0.095250
H33   H     H_    0.554600 0.885807 0.778113 0.173509
H34   H     H_    0.562452 0.750236 0.760324 0.151595
C46   C     C_3   0.653483 0.804103 0.902544 -0.455929
H35   H     H_    0.636830 0.854233 0.961261 0.221060
H36   H     H_    0.653227 0.720875 0.938761 0.223408
C47   C     C_3   0.789434 0.850106 0.862646 -0.844471
H37   H     H_    0.812225 0.800160 0.805156 0.290862
H38   H     H_    0.862786 0.848938 0.926572 0.257346
H39   H     H_    0.796052 0.935138 0.829233 0.278280
O15   O     O_3   0.370695 0.808991 0.035155 -0.601973
C48   C     C_3   0.454217 0.903725 0.065958 0.095225
H40   H     H_    0.483937 0.958929 0.996095 0.165875
H41   H     H_    0.546528 0.890217 0.106745 0.108491
C49   C     C_3   0.380253 0.961438 0.131087 -0.357118
H42   H     H_    0.300501 0.990062 0.083842 0.223233
H43   H     H_    0.335648 0.904274 0.195479 0.224080
C50   C     C_3   0.471475 0.057989 0.173040 -0.955503
H44   H     H_    0.536635 0.029478 0.234702 0.275276
H45   H     H_    0.413184 0.109540 0.204181 0.271387
H46   H     H_    0.532410 0.108174 0.112133 0.255287

loop_
_geom_bond_atom_site_label_1
_geom_bond_atom_site_label_2
_ccdc_geom_bond_type
O8    Zn2   S    
C47   H37   S    
C34   C37   S    
C41   H20   S    
C35   C36   S    
C8    H5    S    
C26   N2    A    
C15   O14   S    
C50   H45   S    
O12   C42   S    
C45   C46   S    
C7    C8    A    
C5    O15   S    
O10   H23   S    
C11   C19   A    
C9    H4    S    
C37   C38   S    
C48   H41   S    
C36   C37   S    
C1    O1    A    
C49   H43   S    
C48   H40   S    
C15   C16   A    
C46   H35   S    
C33   C36   S    
C34   C35   S    
O7    Zn1   S    
C18   H15   S    
C12   O4    A    
C45   H33   S    
C8    C9    A    
O1    Zn1   S    
C40   H18   S    
C4    C12   S    
C9    C10   A    
C16   H6    S    
C21   H10   S    
C12   O3    A    
O9    C39   S    
C47   H38   S    
C31   H9    S    
C21   C22   A    
O3    Zn1   S    
C41   H21   S    
C37   O12   S    
C32   N1    A    
C50   H44   S    
N2    Zn2   S    
C43   H28   S    
C24   H12   S    
C23   O5    A    
C6    C18   A    
C4    C34   S    
C1    C19   S    
C27   C31   A    
C39   H16   S    
C24   C25   A    
C49   C50   S    
C21   N2    A    
C33   O7    A    
C5    C18   A    
C20   C28   A    
C25   C26   A    
C43   H27   S    
C29   H7    S    
C3    O13   S    
C39   H17   S    
C17   H2    S    
C35   H1    S    
C29   C30   A    
C1    O2    A    
C11   C16   A    
C2    C38   S    
C44   H31   S    
C3    C35   S    
C33   O8    A    
C40   C41   S    
C5    C14   A    
C2    H14   S    
C30   O11   S    
C44   H30   S    
C26   C30   A    
C47   H39   S    
C7    C19   A    
C41   H22   S    
C22   C24   A    
C3    C4    S    
C42   C43   S    
C32   O9    S    
C20   C32   A    
C43   C44   S    
C2    C36   S    
C6    C17   A    
C28   C29   A    
C34   H11   S    
C22   O10   S    
O2    Zn2   S    
C10   C13   A    
C45   H34   S    
C38   H13   S    
C25   C27   A    
C46   C47   S    
O15   C48   S    
C42   H26   S    
C13   C17   A    
O5    Zn1   S    
C39   C40   S    
C2    C3    S    
C49   H42   S    
O4    Zn2   S    
N1    Zn1   S    
C6    C23   S    
O13   H32   S    
C7    H3    S    
C31   N1    A    
O14   C45   S    
C46   H36   S    
C10   C11   A    
O11   H24   S    
O6    Zn2   S    
C23   O6    A    
C44   H29   S    
C42   H25   S    
C27   C28   A    
C14   C15   A    
C4    C38   S    
C40   H19   S    
C13   C14   A    
C50   H46   S    
C20   H8    S    
C48   C49   S    
