data_mof_unit_55312.cif
_audit_creation_date              2012-12-11T15:36:38-0500
_audit_creation_method            fapswitch 2.2
_symmetry_space_group_name_H-M    P1
_symmetry_Int_Tables_number       1
_space_group_crystal_system       triclinic
_cell_length_a                    15.07174
_cell_length_b                    15.026236
_cell_length_c                    34.764201
_cell_angle_alpha                 90.973173
_cell_angle_beta                  91.649561
_cell_angle_gamma                 60.046115
_cell_volume                      6818.61419292

loop_
_atom_site_label
_atom_site_type_symbol
_atom_type_description
_atom_site_fract_x
_atom_site_fract_y
_atom_site_fract_z
_atom_type_partial_charge
C1    C     C_R   0.611587 0.300945 0.444404 0.574905
C2    C     C_R   0.751946 0.683899 0.183786 -0.030578
C3    C     C_R   0.608369 0.154291 0.831014 0.030935
C4    C     C_R   0.680670 0.171805 0.850910 -0.121003
C5    C     C_R   0.712406 0.135341 0.888157 -0.132663
C6    C     C_R   0.586889 0.263672 0.774338 -0.120212
C7    C     C_R   0.591222 0.273848 0.734825 -0.117892
C8    C     C_R   0.598463 0.196679 0.709628 0.026994
C9    C     C_R   0.595181 0.112050 0.724235 -0.116053
C10   C     C_R   0.591901 0.101263 0.763889 -0.114073
C11   C     C_R   0.590845 0.175571 0.789334 0.027913
C12   C     C_R   0.547354 0.195423 0.640826 -0.123392
C13   C     C_R   0.836301 0.622026 0.161223 -0.139773
C14   C     C_R   0.550924 0.218326 0.602362 -0.124910
C15   C     C_R   0.691447 0.248665 0.618093 -0.120597
C16   C     C_R   0.686922 0.227089 0.656538 -0.121335
C17   C     C_R   0.612376 0.204152 0.668351 0.028853
C18   C     C_R   0.620361 0.249094 0.590981 0.027165
C19   C     C_R   0.001397 0.757726 0.054393 0.587644
C20   C     C_R   0.746495 0.745595 0.064016 0.559686
C21   C     C_R   0.750745 0.040962 0.050554 0.540000
C22   C     C_R   0.017950 0.722340 0.939886 0.573347
C23   C     C_R   0.717106 0.729848 0.955022 0.545341
C24   C     C_R   0.830138 0.637023 0.121555 -0.164369
C25   C     C_R   0.721366 0.024761 0.942091 0.531064
C26   C     C_R   0.781662 0.580379 0.242762 -0.108452
C27   C     C_R   0.769934 0.575656 0.282204 -0.117529
C28   C     C_R   0.735664 0.664073 0.305283 0.053384
C29   C     C_R   0.720766 0.755277 0.288741 -0.068309
C30   C     C_R   0.730695 0.760436 0.249196 -0.120663
C31   C     C_R   0.758174 0.673795 0.225882 0.020304
C32   C     C_R   0.607395 0.736741 0.358100 0.287792
C33   C     C_R   0.593323 0.610522 0.449346 0.540667
C34   C     C_R   0.572880 0.721110 0.393155 -0.109229
C35   C     C_R   0.735740 0.566363 0.404307 -0.135003
C36   C     C_R   0.770113 0.580007 0.369320 -0.171097
C37   C     C_R   0.705391 0.662579 0.345290 0.037755
C38   C     C_R   0.635593 0.634809 0.415910 -0.026050
C39   C     C_R   0.029486 0.758967 0.095869 0.024445
C40   C     C_R   0.053328 0.673910 0.119807 0.218313
C41   C     C_R   0.054325 0.684359 0.159781 -0.116298
C42   C     C_R   0.037669 0.776054 0.176919 -0.057798
C43   C     C_R   0.023552 0.857201 0.153498 -0.121199
C44   C     C_R   0.302335 0.592671 0.442704 0.542114
C45   C     C_R   0.021549 0.848624 0.113168 0.218996
C46   C     C_R   0.104697 0.816438 0.237214 -0.110557
C47   C     C_R   0.126556 0.802135 0.276658 -0.108074
C48   C     C_R   0.085940 0.754101 0.298872 0.029704
C49   C     C_R   0.016296 0.728533 0.281474 -0.117415
C50   C     C_R   0.994772 0.742522 0.242019 -0.119290
C51   C     C_R   0.042283 0.782524 0.219323 0.026711
C52   C     C_R   0.153625 0.619340 0.350018 -0.117904
C53   C     C_R   0.207256 0.579410 0.384681 -0.126892
C54   C     C_R   0.203533 0.740062 0.397742 -0.115478
C55   C     C_R   0.605677 0.300250 0.553720 0.549947
C56   C     C_R   0.149662 0.780056 0.363143 -0.100859
C57   C     C_R   0.126635 0.719143 0.338416 0.033734
C58   C     C_R   0.235245 0.638386 0.408371 0.020603
C59   C     C_R   0.721944 0.100870 0.086599 0.015471
C60   C     C_R   0.791309 0.123547 0.106068 -0.100301
C61   C     C_R   0.778269 0.151128 0.144888 -0.120782
C62   C     C_R   0.693213 0.161035 0.164004 0.021429
C63   C     C_R   0.617822 0.150321 0.143464 -0.114229
C64   C     C_R   0.632274 0.119931 0.105045 -0.117700
C65   C     C_R   0.601503 0.254587 0.222563 -0.114601
C66   C     C_R   0.587512 0.606388 0.559221 0.548183
C67   C     C_R   0.592344 0.261013 0.262386 -0.105979
C68   C     C_R   0.667722 0.183949 0.286217 0.032134
C69   C     C_R   0.753654 0.101346 0.269296 -0.116003
C70   C     C_R   0.763652 0.096080 0.229430 -0.110939
C71   C     C_R   0.687252 0.172389 0.205938 0.026088
C72   C     C_R   0.743651 0.165616 0.352724 -0.089138
C73   C     C_R   0.732728 0.188825 0.392107 0.264888
C74   C     C_R   0.548481 0.262447 0.383622 -0.178668
C75   C     C_R   0.560856 0.235998 0.344865 -0.144291
C76   C     C_R   0.657698 0.193030 0.328555 -0.022051
C77   C     C_R   0.297929 0.589150 0.551714 0.545512
C78   C     C_R   0.632851 0.245288 0.407239 0.004249
C79   C     C_R   0.690941 0.688532 0.920422 0.023106
C80   C     C_R   0.764117 0.594158 0.904631 -0.127389
C81   C     C_R   0.751276 0.567538 0.867077 -0.124285
C82   C     C_R   0.665265 0.634939 0.844621 0.029965
C83   C     C_R   0.587480 0.724417 0.861755 -0.125169
C84   C     C_R   0.600045 0.750792 0.899361 -0.123070
C85   C     C_R   0.569582 0.647633 0.782824 -0.117738
C86   C     C_R   0.565034 0.647089 0.742694 -0.116165
C87   C     C_R   0.653497 0.617606 0.721504 0.028472
C88   C     C_R   0.739718 0.714112 0.103644 -0.005770
C89   C     C_R   0.747271 0.585132 0.741022 -0.114683
C90   C     C_R   0.751695 0.586633 0.781152 -0.114698
C91   C     C_R   0.662538 0.619564 0.802487 0.029548
C92   C     C_R   0.715710 0.537409 0.657182 -0.143960
C93   C     C_R   0.701237 0.536633 0.617404 -0.178529
C94   C     C_R   0.555640 0.710059 0.620408 0.270907
C95   C     C_R   0.569245 0.708917 0.660427 -0.098513
C96   C     C_R   0.647130 0.621793 0.679102 -0.016921
C97   C     C_R   0.618170 0.620562 0.598731 0.021027
C98   C     C_R   0.070993 0.697317 0.903049 -0.009992
C99   C     C_R   0.650536 0.768405 0.126162 0.264442
C100  C     C_R   0.108520 0.758990 0.888156 0.275777
C101  C     C_R   0.148532 0.739298 0.850961 0.276221
C102  C     C_R   0.140318 0.666390 0.827471 -0.012687
C103  C     C_R   0.107559 0.602713 0.843033 -0.191471
C104  C     C_R   0.074720 0.616986 0.880674 -0.193382
C105  C     C_R   0.214137 0.570053 0.766914 -0.129913
C106  C     C_R   0.221015 0.567670 0.727066 -0.118396
C107  C     C_R   0.168529 0.658951 0.705753 0.025964
C108  C     C_R   0.109985 0.752729 0.724740 -0.123567
C109  C     C_R   0.102778 0.755034 0.764567 -0.074398
C110  C     C_R   0.658985 0.754501 0.166076 -0.084021
C111  C     C_R   0.154920 0.663753 0.785855 0.051965
C112  C     C_R   0.206363 0.722260 0.646398 -0.116828
C113  C     C_R   0.236556 0.706292 0.608270 -0.119128
C114  C     C_R   0.203817 0.563822 0.603924 -0.123153
C115  C     C_R   0.173909 0.579707 0.642026 -0.122152
C116  C     C_R   0.179565 0.655916 0.663932 0.029392
C117  C     C_R   0.240388 0.623630 0.587394 0.020217
C118  C     C_R   0.672405 0.080748 0.906310 0.020976
C119  C     C_R   0.594651 0.069593 0.887580 -0.127612
C120  C     C_R   0.563132 0.105797 0.850077 -0.122417
Cr1   Cr    Cr6+3 0.426010 0.422500 0.497000 1.013627
Cr2   Cr    Cr6+3 0.651300 0.426310 0.501970 1.074571
Cr3   Cr    Cr6+3 0.422670 0.651170 0.501050 1.036407
Cr4   Cr    Cr6+3 0.905130 0.911420 0.992650 1.052127
Cr5   Cr    Cr6+3 0.911860 0.682710 0.002320 1.029399
Cr6   Cr    Cr6+3 0.682710 0.906840 0.004710 1.072433
H1    H     H_    0.494667 0.772911 0.401323 0.133197
H2    H     H_    0.907978 0.564987 0.174462 0.127081
H3    H     H_    0.786118 0.499470 0.421424 0.162040
H4    H     H_    0.128581 0.857658 0.355193 0.129195
H5    H     H_    0.181094 0.821946 0.289150 0.115325
H6    H     H_    0.142561 0.847025 0.220300 0.112801
H7    H     H_    0.069245 0.619457 0.177500 0.126002
H8    H     H_    0.982130 0.693450 0.298042 0.110431
H9    H     H_    0.897962 0.590817 0.105071 0.196193
H10   H     H_    0.944826 0.717534 0.228866 0.116681
H11   H     H_    0.138220 0.569965 0.331350 0.104693
H12   H     H_    0.230502 0.500913 0.392098 0.125939
H13   H     H_    0.011960 0.928209 0.166451 0.118633
H14   H     H_    0.222839 0.787952 0.415635 0.128144
H15   H     H_    0.858941 0.113528 0.092138 0.173859
H16   H     H_    0.576379 0.105044 0.090585 0.167954
H17   H     H_    0.493583 0.253893 0.327257 0.116236
H18   H     H_    0.526592 0.327054 0.274498 0.109560
H19   H     H_    0.541868 0.313770 0.204676 0.109636
H20   H     H_    0.846055 0.523426 0.360186 0.122107
H21   H     H_    0.836236 0.160936 0.160370 0.110496
H22   H     H_    0.812331 0.040082 0.286735 0.116065
H23   H     H_    0.829447 0.030963 0.216807 0.117513
H24   H     H_    0.819262 0.130251 0.340690 0.157607
H25   H     H_    0.551349 0.158439 0.157866 0.126691
H26   H     H_    0.471305 0.302840 0.394380 0.141584
H27   H     H_    0.834457 0.543913 0.920327 0.124401
H28   H     H_    0.542033 0.823858 0.910743 0.133213
H29   H     H_    0.517175 0.775661 0.677006 0.117836
H30   H     H_    0.781815 0.504417 0.294263 0.115127
H31   H     H_    0.492217 0.670311 0.728144 0.112049
H32   H     H_    0.500074 0.671763 0.798457 0.090097
H33   H     H_    0.811234 0.496792 0.854921 0.100647
H34   H     H_    0.816337 0.562279 0.725208 0.105481
H35   H     H_    0.824161 0.566397 0.795377 0.102616
H36   H     H_    0.776804 0.469584 0.671061 0.115613
H37   H     H_    0.751360 0.467304 0.601689 0.136727
H38   H     H_    0.520397 0.778222 0.845224 0.098337
H39   H     H_    0.802853 0.512912 0.225101 0.116002
H40   H     H_    0.045670 0.569334 0.891352 0.148045
H41   H     H_    0.151311 0.529192 0.654986 0.105680
H42   H     H_    0.268406 0.494739 0.712908 0.112209
H43   H     H_    0.254812 0.499020 0.782966 0.107956
H44   H     H_    0.068839 0.823749 0.708712 0.106149
H45   H     H_    0.054677 0.827799 0.778711 0.134946
H46   H     H_    0.211084 0.781599 0.662915 0.114999
H47   H     H_    0.263982 0.753842 0.596175 0.156499
H48   H     H_    0.101889 0.545574 0.825370 0.126148
H49   H     H_    0.592565 0.798528 0.183662 0.175363
H50   H     H_    0.204699 0.500418 0.588299 0.130953
H51   H     H_    0.562637 0.027632 0.900957 0.126681
H52   H     H_    0.772146 0.145395 0.902004 0.118444
H53   H     H_    0.738943 0.232392 0.677382 0.107493
H54   H     H_    0.591084 0.341050 0.723924 0.113145
H55   H     H_    0.584222 0.322898 0.793283 0.105810
H56   H     H_    0.506487 0.092325 0.835441 0.103873
H57   H     H_    0.600208 0.052060 0.705139 0.103948
H58   H     H_    0.596207 0.032004 0.774686 0.105953
H59   H     H_    0.489746 0.177220 0.649443 0.102884
H60   H     H_    0.697337 0.823561 0.306110 0.130790
H61   H     H_    0.495393 0.217870 0.581996 0.120342
H62   H     H_    0.717837 0.207795 0.836842 0.104446
H63   H     H_    0.745578 0.272374 0.610247 0.128819
H64   H     H_    0.713843 0.832795 0.236549 0.114880
O1    O     O_R   0.324990 0.503440 0.453910 -0.519862
O2    O     O_R   0.639980 0.519500 0.542640 -0.518675
O3    O     O_R   0.500750 0.673190 0.545480 -0.458731
O4    O     O_R   0.336260 0.640450 0.538210 -0.497276
O5    O     O_3   0.499990 0.499990 0.500010 -0.252222
O6    O     O_R   0.834210 0.019400 0.034570 -0.487729
O7    O     O_R   0.002210 0.824620 0.031030 -0.454193
O8    O     O_R   0.024400 0.669340 0.039790 -0.469902
O9    O     O_R   0.830490 0.694950 0.045870 -0.523677
O10   O     O_R   0.675430 0.831160 0.051290 -0.418092
O11   O     O_R   0.698870 0.998880 0.039560 -0.500280
O12   O     O_R   0.522030 0.339050 0.458320 -0.518647
O13   O     O_R   0.811290 0.006780 0.950620 -0.534547
O14   O     O_R   0.980960 0.812920 0.953200 -0.460489
O15   O     O_R   0.001480 0.656720 0.955830 -0.525727
O16   O     O_R   0.809240 0.683250 0.968050 -0.506752
O17   O     O_R   0.652500 0.818540 0.967340 -0.505130
O18   O     O_R   0.677620 0.987170 0.961730 -0.501605
O19   O     O_3   0.833240 0.833660 0.999890 -0.283643
O20   O     O_R   0.676180 0.324490 0.458320 -0.425398
O21   O     O_R   0.643570 0.521510 0.464260 -0.493446
O22   O     O_R   0.504630 0.675350 0.460920 -0.523157
O23   O     O_R   0.339850 0.642450 0.459830 -0.501661
O24   O     O_R   0.321120 0.501280 0.538470 -0.518420
O25   O     O_R   0.518440 0.337050 0.536710 -0.503378
O26   O     O_R   0.672300 0.322330 0.542880 -0.502823
S1    S     S_3+6 0.526534 0.851455 0.106473 0.006968
O27   O     O_2   0.514806 0.955340 0.099636 -0.294725
O28   O     O_2   0.511486 0.808304 0.069103 -0.269170
O29   O     O_3   0.436835 0.864183 0.137296 -0.547541
H65   H     H_    0.370538 0.910854 0.124233 0.361111
O30   O     O_3   0.069450 0.581619 0.104555 -0.566625
C121  C     C_3   0.175802 0.512211 0.104317 -0.103617
H66   H     H_    0.208841 0.493006 0.134070 0.104604
H67   H     H_    0.216413 0.542694 0.087381 0.132293
H68   H     H_    0.188995 0.439845 0.090321 0.146149
O31   O     O_3   0.004466 0.930979 0.090818 -0.560058
C122  C     C_3   0.095396 0.935928 0.090159 -0.106808
H69   H     H_    0.114629 0.955802 0.118988 0.104963
H70   H     H_    0.083466 0.997646 0.070030 0.143308
H71   H     H_    0.160655 0.862781 0.079469 0.139344
S2    S     S_3+6 0.845937 0.145311 0.420692 0.008281
O32   O     O_2   0.871946 0.229575 0.424200 -0.280897
O33   O     O_2   0.830615 0.115963 0.460053 -0.272985
O34   O     O_3   0.943274 0.042386 0.399753 -0.554481
H72   H     H_    0.003252 0.022646 0.417236 0.363864
O35   O     O_3   0.474099 0.795200 0.603482 -0.553177
C123  C     C_3   0.507390 0.864430 0.593965 -0.114934
H73   H     H_    0.571018 0.829515 0.573201 0.118254
H74   H     H_    0.531025 0.891823 0.620150 0.102225
H75   H     H_    0.442643 0.932480 0.579886 0.142769
O36   O     O_3   0.110462 0.835000 0.910658 -0.544095
C124  C     C_3   0.033315 0.932180 0.897256 -0.067713
H76   H     H_    0.958616 0.935259 0.891666 0.117334
H77   H     H_    0.057437 0.954610 0.870983 0.152703
H78   H     H_    0.020707 0.990253 0.919779 0.131699
O37   O     O_3   0.188656 0.796848 0.836747 -0.579113
C125  C     C_3   0.295813 0.741374 0.842510 -0.107053
H79   H     H_    0.331058 0.668154 0.825881 0.111830
H80   H     H_    0.317136 0.726039 0.873616 0.146733
H81   H     H_    0.328023 0.788388 0.831979 0.129180
O38   O     O_3   0.540706 0.814851 0.333560 -0.563516
C126  C     C_3   0.509037 0.911118 0.351193 -0.134646
H82   H     H_    0.574608 0.916209 0.364441 0.109200
H83   H     H_    0.449775 0.928437 0.372870 0.118650
H84   H     H_    0.473749 0.971395 0.328759 0.147713

loop_
_geom_bond_atom_site_label_1
_geom_bond_atom_site_label_2
_ccdc_geom_bond_type
C8    C9    A    
C15   C18   A    
C59   C60   A    
C83   H38   S    
C26   H39   S    
C101  C102  A    
C81   H33   S    
C108  H44   S    
C10   H58   S    
C41   C42   A    
C14   C18   A    
C95   C96   A    
C112  C116  A    
Cr2   O5    S    
C72   C76   A    
C74   H26   S    
C25   C118  S    
C122  H70   S    
C114  C115  A    
C85   C91   A    
C121  H68   S    
O29   H65   S    
C7    C8    A    
C112  H46   S    
C85   C86   A    
C56   C57   A    
S1    O29   S    
C123  H75   S    
O31   C122  S    
C59   C64   A    
C62   C63   A    
C105  H43   S    
Cr4   O14   S    
C22   C98   S    
C121  H67   S    
Cr1   O25   S    
C66   C97   S    
C28   C29   A    
Cr1   O12   S    
C21   C59   S    
C77   C117  S    
C69   C70   A    
C109  C111  A    
C44   O1    A    
C55   O25   A    
C126  H82   S    
C80   C81   A    
C33   O22   A    
C98   C104  A    
C106  C107  A    
C93   H37   S    
Cr6   O10   S    
C124  H76   S    
Cr5   O16   S    
C92   C96   A    
C108  C109  A    
C45   O31   S    
C46   C51   A    
C2    C13   A    
C118  C119  A    
S2    O32   D    
C49   H8    S    
Cr4   O19   S    
C85   H32   S    
C46   C47   A    
C13   H2    S    
C84   H28   S    
C54   H14   S    
C99   S1    S    
C44   C58   S    
C16   C17   A    
C124  H77   S    
C66   O2    A    
C12   C17   A    
C62   C71   S    
O34   H72   S    
Cr2   O20   S    
Cr3   O4    S    
C43   H13   S    
C70   C71   A    
C25   O18   A    
C9    C10   A    
C35   H3    S    
C95   H29   S    
C90   C91   A    
C125  H81   S    
C42   C51   S    
C39   C45   A    
C23   O17   A    
C114  H50   S    
C15   H63   S    
C26   C31   A    
C63   C64   A    
O35   C123  S    
C87   C96   S    
C1    C78   S    
Cr3   O5    S    
C102  C111  S    
C102  C103  A    
C70   H23   S    
C1    O12   A    
C41   H7    S    
C122  H69   S    
C125  H80   S    
C77   O24   A    
C50   C51   A    
C123  H74   S    
Cr6   O11   S    
C107  C116  S    
C54   C56   A    
C19   O7    A    
C120  H56   S    
C74   C75   A    
Cr4   O13   S    
C67   C68   A    
C114  C117  A    
C47   C48   A    
C21   O11   A    
C80   H27   S    
C35   C38   A    
C121  H66   S    
C3    C120  A    
C34   H1    S    
Cr6   O18   S    
C6    C11   A    
C126  H83   S    
Cr5   O19   S    
C86   C87   A    
C68   C69   A    
Cr5   O9    S    
C6    H55   S    
C94   C97   A    
C65   C67   A    
S1    O27   D    
C110  H49   S    
C99   C110  A    
Cr4   O7    S    
C103  H48   S    
C81   C82   A    
C82   C91   S    
C44   O23   A    
C22   O15   A    
C40   O30   S    
C60   C61   A    
C35   C36   A    
C32   C34   A    
C75   C76   A    
C20   O9    A    
C29   C30   A    
C9    H57   S    
C60   H15   S    
C24   C88   A    
C94   O35   S    
C83   C84   A    
Cr6   O17   S    
C73   C78   A    
C124  H78   S    
Cr3   O22   S    
Cr4   O6    S    
S2    O33   D    
C52   H11   S    
C26   C27   A    
C94   C95   A    
C32   C37   A    
C119  C120  A    
C43   C45   A    
C63   H25   S    
C75   H17   S    
C18   C55   S    
C29   H60   S    
C113  C117  A    
C24   H9    S    
C67   H18   S    
C40   C41   A    
C12   C14   A    
Cr5   O8    S    
C49   C50   A    
C72   H24   S    
C53   H12   S    
C87   C89   A    
C23   O16   A    
C68   C76   S    
C42   C43   A    
C107  C108  A    
C65   H19   S    
C3    C4    A    
C101  O37   S    
C93   C97   A    
C55   O26   A    
C66   O3    A    
C100  O36   S    
C125  H79   S    
C89   H34   S    
C113  H47   S    
C54   C58   A    
C92   H36   S    
C27   H30   S    
C123  H73   S    
C36   C37   A    
C19   O8    A    
O36   C124  S    
C1    O20   A    
C34   C38   A    
Cr3   O3    S    
C33   C38   S    
C4    C5    A    
C25   O13   A    
Cr6   O19   S    
Cr1   O1    S    
C126  H84   S    
C53   C58   A    
C16   H53   S    
Cr2   O2    S    
C6    C7    A    
C52   C57   A    
S1    O28   D    
C105  C106  A    
C32   O38   S    
C98   C100  A    
C8    C17   S    
C22   O14   A    
C5    C118  A    
C73   S2    S    
Cr1   O24   S    
C4    H62   S    
Cr3   O23   S    
C61   H21   S    
C77   O4    A    
C50   H10   S    
C36   H20   S    
C46   H6    S    
C14   H61   S    
C33   O21   A    
C30   C31   A    
C115  C116  A    
C79   C84   A    
C64   H16   S    
C28   C37   S    
C72   C73   A    
C48   C49   A    
C12   H59   S    
C20   C88   S    
C30   H64   S    
Cr5   O15   S    
C92   C93   A    
Cr2   O26   S    
C7    H54   S    
C106  H42   S    
C112  C113  A    
S2    O34   S    
C21   O6    A    
C105  C111  A    
C61   C62   A    
C86   H31   S    
C5    H52   S    
C88   C99   A    
C3    C11   S    
C10   C11   A    
C104  H40   S    
C79   C80   A    
C39   C40   A    
C109  H45   S    
C90   H35   S    
C65   C71   A    
C48   C57   S    
C13   C24   A    
C19   C39   S    
C82   C83   A    
C74   C78   A    
C47   H5    S    
C103  C104  A    
C69   H22   S    
C20   O10   A    
Cr2   O21   S    
C2    C31   S    
C100  C101  A    
C119  H51   S    
C23   C79   S    
C89   C90   A    
C115  H41   S    
O30   C121  S    
Cr1   O5    S    
C122  H71   S    
C56   H4    S    
C15   C16   A    
O37   C125  S    
C52   C53   A    
O38   C126  S    
C27   C28   A    
C2    C110  A    
