data_mof_unit_17131.cif
_audit_creation_date              2013-03-05T16:43:04-0500
_audit_creation_method            fapswitch 2.2
_symmetry_space_group_name_H-M    P1
_symmetry_Int_Tables_number       1
_space_group_crystal_system       triclinic
_cell_length_a                    11.066713
_cell_length_b                    10.90024
_cell_length_c                    10.062034
_cell_angle_alpha                 88.363084
_cell_angle_beta                  93.16211
_cell_angle_gamma                 95.163908
_cell_volume                      1206.67453286

loop_
_atom_site_label
_atom_site_type_symbol
_atom_site_description
_atom_site_fract_x
_atom_site_fract_y
_atom_site_fract_z
_atom_type_partial_charge
O1    O     O_R   0.500020 0.316790 0.614690 -0.587473
O2    O     O_R   0.500000 0.316760 0.385350 -0.627423
C1    C     C_R   0.495717 0.260738 0.501783 1.010354
O3    O     O_R   0.314800 0.500000 0.614670 -0.613266
O4    O     O_R   0.314790 0.499960 0.385330 -0.532325
C2    C     C_R   0.258264 0.504829 0.497028 1.034866
Zn1   Zn    Zn3+2 0.500010 0.500020 0.653130 1.123360
Zn2   Zn    Zn3+2 0.499990 0.499980 0.346870 1.105005
O5    O     O_R   0.500000 0.683240 0.614650 -0.566012
O6    O     O_R   0.499980 0.683210 0.385310 -0.649816
O7    O     O_R   0.685210 0.500040 0.614670 -0.581074
O8    O     O_R   0.685200 0.500000 0.385330 -0.610492
C3    C     C_R   0.506384 0.740233 0.498113 1.014790
C4    C     C_R   0.741714 0.497925 0.501215 1.001087
C5    C     C_3   0.068694 0.404942 0.595031 0.011034
H1    H     H_    0.115051 0.421134 0.693105 0.177462
C6    C     C_3   0.929827 0.413073 0.609178 -0.383957
H2    H     H_    0.883730 0.320597 0.595096 0.290011
C7    C     C_3   0.083216 0.638872 0.543016 -0.003365
C8    C     C_3   0.058711 0.477114 0.350839 -0.402493
C9    C     C_3   0.121142 0.509026 0.493651 -0.272854
H3    H     H_    0.097056 0.393305 0.322610 0.267083
C10   C     C_3   0.878407 0.498909 0.496864 -0.319810
C11   C     C_3   0.941669 0.634451 0.511204 -0.034730
C12   C     C_3   0.916481 0.445024 0.357220 0.380320
H4    H     H_    0.935086 0.674159 0.410158 0.237164
C13   C     C_R   0.492639 0.057094 0.620185 0.100210
C14   C     C_R   0.483628 0.128466 0.503848 -0.078925
C15   C     C_R   0.465136 0.068163 0.382719 -0.145113
H5    H     H_    0.447149 0.119891 0.292253 0.198846
C16   C     C_R   0.472241 0.941596 0.374756 0.342444
C17   C     C_R   0.504002 0.873310 0.493247 -0.151934
C18   C     C_R   0.517730 0.937797 0.612200 -0.050477
C19   C     C_3   0.587407 0.936410 0.744650 -0.359109
C20   C     C_3   0.551018 0.067588 0.758526 0.065729
H6    H     H_    0.545767 0.868592 0.817221 0.235970
H7    H     H_    0.487613 0.068190 0.839007 0.134485
C21   C     C_R   0.474888 0.392433 0.070819 0.160076
N1    N     N_R   0.499150 0.499140 0.142800 -0.134477
C22   C     C_R   0.558570 0.594287 0.072403 -0.081648
C23   C     C_R   0.571469 0.585633 0.931083 0.342966
N2    N     N_R   0.499150 0.499180 0.857150 -0.132508
C24   C     C_R   0.460049 0.397361 0.930273 0.046802
C25   C     C_3   0.339595 0.321059 0.928871 0.090351
C26   C     C_3   0.373504 0.291761 0.075824 -0.046173
H8    H     H_    0.409629 0.200408 0.092616 0.109452
N3    N     N_R   0.852939 0.496547 0.236277 0.178420
O9    O     O_R   0.854491 0.614460 0.212283 -0.431531
O10   O     O_R   0.798760 0.423168 0.147170 -0.265676
N4    N     N_R   0.141737 0.746878 0.471506 0.280595
O11   O     O_R   0.258967 0.760882 0.468734 -0.354982
O12   O     O_R   0.083029 0.843594 0.443440 -0.226992
N5    N     N_R   0.450930 0.889453 0.244978 0.210343
O13   O     O_R   0.364336 0.802541 0.224783 -0.244687
O14   O     O_R   0.488903 0.953552 0.141848 -0.367816
C27   C     C_2   0.722529 0.935400 0.736816 0.807060
H9    H     H_    0.765028 0.955649 0.643235 0.131899
O15   O     O_2   0.786113 0.922642 0.838419 -0.382133
N6    N     N_R   0.650865 0.164544 0.771985 0.237522
O16   O     O_R   0.722696 0.190922 0.675476 -0.407165
O17   O     O_R   0.666349 0.226903 0.880771 -0.294388
C28   C     C_2   0.623751 0.699332 0.143309 0.681420
H10   H     H_    0.654738 0.689950 0.245842 0.122924
O18   O     O_2   0.649953 0.797080 0.085122 -0.466413
N7    N     N_R   0.092310 0.277896 0.563252 0.275067
O19   O     O_R   0.047144 0.186717 0.636874 -0.226545
O20   O     O_R   0.177204 0.256164 0.485029 -0.313934
N8    N     N_R   0.681062 0.642609 0.878658 0.209510
O21   O     O_R   0.683082 0.683407 0.757670 -0.364696
O22   O     O_R   0.783662 0.642144 0.948152 -0.285631
N9    N     N_R   0.235346 0.395053 0.910416 0.234307
O23   O     O_R   0.250839 0.514798 0.903216 -0.377514
O24   O     O_R   0.126802 0.342224 0.926714 -0.284502
C29   C     C_2   0.320657 0.208158 0.846853 0.437038
H11   H     H_    0.307841 0.117882 0.894980 0.108397
O25   O     O_2   0.306712 0.216772 0.726402 -0.499141
N10   N     N_R   0.281795 0.312190 0.166169 0.255209
O26   O     O_R   0.218040 0.218825 0.218292 -0.273216
O27   O     O_R   0.243354 0.420107 0.165157 -0.371339
C30   C     C_2   0.899490 0.443872 0.748264 0.553145
H12   H     H_    0.881957 0.536261 0.771613 0.140959
O28   O     O_2   0.893821 0.364335 0.836004 -0.365799
C31   C     C_2   0.121331 0.657045 0.690632 0.627563
H13   H     H_    0.076724 0.604008 0.768189 0.059570
O29   O     O_2   0.202270 0.735044 0.725885 -0.443043
N11   N     N_R   0.875039 0.717596 0.586121 0.224977
O30   O     O_R   0.920722 0.768398 0.695162 -0.307616
O31   O     O_R   0.783098 0.764815 0.524304 -0.435744
C32   C     C_2   0.089962 0.566352 0.235039 0.708944
H14   H     H_    0.052386 0.543901 0.135761 0.159063
O32   O     O_2   0.162784 0.656002 0.244839 -0.427196
N12   N     N_R   0.885881 0.308966 0.355134 0.232885
O33   O     O_R   0.777679 0.263923 0.385726 -0.355589
O34   O     O_R   0.946309 0.240352 0.283726 -0.217938

loop_
_geom_bond_atom_site_label_1
_geom_bond_atom_site_label_2
_geom_bond_distance
_ccdc_geom_bond_type
C19   C27   1.502804 S    
C23   N2    1.385850 A    
C3    C17   1.452565 S    
N3    O10   1.303260 A    
N10   O26   1.299872 A    
C13   C18   1.359384 A    
Zn1   O7    2.106620 S    
C6    C10   1.562320 S    
C29   O25   1.215314 D    
C14   C15   1.397672 A    
C20   H7    1.100925 S    
C11   H4    1.094875 S    
O4    C2    1.320699 A    
O7    C4    1.333270 A    
N11   O31   1.301250 A    
C8    C12   1.585796 S    
C5    H1    1.098161 S    
C5    N7    1.479182 S    
C22   C28   1.477039 S    
C27   H9    1.083910 S    
C25   N9    1.466746 S    
C20   N6    1.462075 S    
C19   C20   1.532144 S    
Zn1   N2    2.053158 S    
O5    C3    1.313598 A    
C21   C26   1.499001 S    
C28   O18   1.220485 D    
C16   C17   1.431517 A    
N8    O21   1.284751 A    
N7    O20   1.300214 A    
N4    O12   1.303570 A    
C10   C11   1.583867 S    
Zn2   N1    2.053146 S    
C32   O32   1.212071 D    
C12   N3    1.492799 S    
N10   O27   1.285974 A    
N6    O16   1.298328 A    
O3    Zn1   2.064779 S    
C7    C31   1.534923 S    
C18   C19   1.502844 S    
C23   N8    1.432210 S    
N5    O14   1.302084 A    
N6    O17   1.300159 A    
C29   H11   1.085430 S    
N3    O9    1.299728 A    
C30   O28   1.219667 D    
N1    C22   1.377108 A    
N9    O24   1.301251 A    
N11   O30   1.299668 A    
C13   C20   1.504889 S    
N5    O13   1.297396 A    
C2    C9    1.520767 S    
C6    C30   1.510943 S    
O1    C1    1.301798 A    
C4    C10   1.514857 S    
C24   C25   1.505967 S    
C15   H5    1.075655 S    
C31   H13   1.073427 S    
Zn2   O8    2.064776 S    
C28   H10   1.074101 S    
N12   O34   1.302525 A    
C6    H2    1.097288 S    
N4    O11   1.294331 A    
C16   N5    1.438114 S    
C25   C29   1.493992 S    
O3    C2    1.309995 A    
C22   C23   1.443518 A    
C31   O29   1.223146 D    
O8    C4    1.293022 A    
C26   H8    1.111095 S    
N2    C24   1.364687 A    
C25   C26   1.537065 S    
C5    C6    1.561809 S    
C1    C14   1.435618 S    
C12   N12   1.491711 S    
C7    C9    1.611277 S    
O1    Zn1   2.045187 S    
O2    Zn2   2.023448 S    
C8    H3    1.092344 S    
C30   H12   1.077373 S    
O6    C3    1.305044 A    
O4    Zn2   2.106622 S    
C8    C32   1.530551 S    
C17   C18   1.399481 A    
O2    C1    1.306797 A    
C21   C24   1.414711 A    
C15   C16   1.393711 A    
C7    N4    1.479514 S    
C21   N1    1.385639 A    
N12   O33   1.302259 A    
C27   O15   1.220562 D    
C7    C11   1.578145 S    
C19   H6    1.112198 S    
C10   C12   1.629073 S    
Zn1   O5    2.023448 S    
C5    C9    1.595403 S    
N9    O23   1.301539 A    
C8    C9    1.593439 S    
Zn2   O6    2.045188 S    
N7    O19   1.302211 A    
C13   C14   1.390871 A    
N8    O22   1.300561 A    
C26   N10   1.435288 S    
C32   H14   1.086506 S    
C11   N11   1.467649 S    
