data_mof_unit_14014.cif
_audit_creation_date              2012-12-10T17:46:27-0500
_audit_creation_method            fapswitch 2.2
_symmetry_space_group_name_H-M    P1
_symmetry_Int_Tables_number       1
_space_group_crystal_system       triclinic
_cell_length_a                    20.527038
_cell_length_b                    22.042506
_cell_length_c                    14.928182
_cell_angle_alpha                 89.477892
_cell_angle_beta                  131.531427
_cell_angle_gamma                 90.920103
_cell_volume                      5055.71441799

loop_
_atom_site_label
_atom_site_type_symbol
_atom_type_description
_atom_site_fract_x
_atom_site_fract_y
_atom_site_fract_z
_atom_type_partial_charge
C1    C     C_R   0.599280 0.911838 0.627283 0.831973
C2    C     C_R   0.618634 0.279488 0.970234 0.389014
C3    C     C_R   0.752655 0.783773 0.984693 0.043921
C4    C     C_R   0.211049 0.741769 0.938201 0.048786
C5    C     C_R   0.785942 0.271275 0.043875 0.052589
C6    C     C_R   0.783606 0.726350 0.039134 0.058814
C7    C     C_R   0.254019 0.284504 0.986272 0.043666
C8    C     C_R   0.364938 0.766980 0.072865 -0.244654
C9    C     C_R   0.630442 0.251468 0.898699 -0.257399
C10   C     C_R   0.755597 0.830907 0.050765 -0.223136
C11   C     C_R   0.302516 0.184803 0.989194 -0.274643
C12   C     C_R   0.866312 0.270800 0.071422 -0.239587
C13   C     C_R   0.778367 0.820902 0.160891 0.446636
C14   C     C_R   0.129290 0.748054 0.905085 -0.263622
C15   C     C_R   0.257299 0.331758 0.052435 -0.221898
C16   C     C_R   0.800535 0.683941 0.986930 -0.274792
C17   C     C_R   0.281839 0.195221 0.880639 0.424817
C18   C     C_R   0.876449 0.245837 0.995770 0.418808
C19   C     C_R   0.119698 0.775021 0.979726 0.390560
C20   C     C_R   0.281158 0.322000 0.163355 0.435760
C21   C     C_R   0.780327 0.694551 0.878739 0.426062
C22   C     C_R   0.330256 0.951634 0.662557 0.281956
C23   C     C_R   0.674605 0.043210 0.342486 0.354741
C24   C     C_R   0.829692 0.452529 0.662253 0.279902
C25   C     C_R   0.400402 0.088225 0.372462 0.830098
C26   C     C_R   0.173135 0.545514 0.341627 0.349510
C27   C     C_R   0.352243 0.976879 0.599098 -0.069236
C28   C     C_R   0.649018 0.021136 0.403337 -0.025426
C29   C     C_R   0.851983 0.477384 0.598928 -0.069372
C30   C     C_R   0.148326 0.522515 0.402900 -0.045551
C31   C     C_R   0.491689 0.008814 0.782245 0.509364
C32   C     C_R   0.510973 0.988910 0.218861 0.493319
C33   C     C_R   0.991634 0.508981 0.782186 0.504844
C34   C     C_R   0.010906 0.489096 0.218811 0.509888
C35   C     C_R   0.462513 0.996632 0.845188 -0.137632
C36   C     C_R   0.397242 0.912771 0.369832 0.831955
C37   C     C_R   0.543253 0.997997 0.159179 -0.136293
C38   C     C_R   0.962285 0.497115 0.844944 -0.135718
C39   C     C_R   0.042881 0.498816 0.158849 -0.128373
C40   C     C_R   0.389872 0.957271 0.788473 -0.006438
C41   C     C_R   0.616906 0.036459 0.217038 -0.029502
C42   C     C_R   0.889420 0.458011 0.788169 -0.001424
C43   C     C_R   0.115879 0.537986 0.216306 -0.033801
C44   C     C_R   0.509823 0.013373 0.967962 0.200569
C45   C     C_R   0.498354 0.979566 0.037997 0.178696
C46   C     C_R   0.009585 0.513946 0.967618 0.198400
C47   C     C_R   0.604009 0.086433 0.631746 0.855059
C48   C     C_R   0.998178 0.480206 0.037772 0.174006
C49   C     C_R   0.444156 0.927887 0.985093 -0.095783
C50   C     C_R   0.564942 0.064633 0.021688 -0.065055
C51   C     C_R   0.943840 0.428583 0.984762 -0.091088
C52   C     C_R   0.064206 0.565435 0.020762 -0.065828
C53   C     C_R   0.384553 0.920458 0.860966 -0.029841
C54   C     C_R   0.624460 0.071985 0.145676 -0.092615
C55   C     C_R   0.883978 0.421306 0.860601 -0.034789
C56   C     C_R   0.123249 0.573351 0.144567 -0.094004
C57   C     C_R   0.669018 0.135080 0.709380 -0.116012
C58   C     C_R   0.099374 0.411869 0.627430 0.836989
C59   C     C_R   0.334566 0.862767 0.293964 -0.211065
C60   C     C_R   0.354959 0.145800 0.313454 -0.191876
C61   C     C_R   0.646460 0.855334 0.687967 -0.188635
C62   C     C_R   0.162953 0.639388 0.701406 -0.200591
C63   C     C_R   0.832696 0.364104 0.291073 -0.207347
C64   C     C_R   0.853797 0.645278 0.312208 -0.194374
C65   C     C_R   0.146783 0.355449 0.688546 -0.190563
C66   C     C_R   0.811739 0.182163 0.814361 0.381777
C67   C     C_R   0.190649 0.816600 0.180946 0.470193
C68   C     C_R   0.308080 0.247354 0.310948 0.461881
C69   C     C_R   0.900171 0.588108 0.372211 0.830603
C70   C     C_R   0.694110 0.754188 0.689985 0.470966
C71   C     C_R   0.299926 0.693816 0.797141 0.473862
C72   C     C_R   0.685887 0.321855 0.169718 0.465342
C73   C     C_R   0.803890 0.746045 0.307007 0.484168
C74   C     C_R   0.194342 0.254152 0.691087 0.471855
C75   C     C_R   0.741567 0.145354 0.720076 0.306012
C76   C     C_R   0.260997 0.850373 0.280758 0.301045
C77   C     C_R   0.345205 0.191350 0.369618 0.294216
C78   C     C_R   0.651543 0.808681 0.628823 0.299176
C79   C     C_R   0.231415 0.655654 0.704740 0.302514
C80   C     C_R   0.896729 0.413094 0.369139 0.834841
C81   C     C_R   0.756125 0.354641 0.271578 0.300826
C82   C     C_R   0.842049 0.690443 0.366772 0.288150
C83   C     C_R   0.151688 0.308568 0.629564 0.299789
C84   C     C_R   0.658613 0.170717 0.775110 -0.237416
C85   C     C_R   0.345370 0.830048 0.225624 -0.174342
C86   C     C_R   0.326896 0.156824 0.200763 -0.217138
C87   C     C_R   0.678715 0.845923 0.803309 -0.218002
C88   C     C_R   0.153786 0.671917 0.771639 -0.212006
C89   C     C_R   0.845087 0.330109 0.225698 -0.172176
C90   C     C_R   0.826223 0.656175 0.199760 -0.217163
C91   C     C_R   0.102311 0.587621 0.629476 0.843198
C92   C     C_R   0.179355 0.346304 0.804172 -0.214984
C93   C     C_R   0.724601 0.210530 0.865522 0.000151
C94   C     C_R   0.276156 0.797145 0.123488 0.021870
C95   C     C_R   0.302915 0.215000 0.149433 -0.001180
C96   C     C_R   0.722755 0.792961 0.867698 -0.001692
C97   C     C_R   0.219952 0.711101 0.863290 0.003071
C98   C     C_R   0.775599 0.299449 0.119880 0.028823
C99   C     C_R   0.801117 0.714109 0.147449 -0.005150
C100  C     C_R   0.223672 0.293468 0.868958 -0.002040
C101  C     C_R   0.805277 0.213527 0.891424 -0.068699
C102  C     C_R   0.372822 0.743303 0.994087 0.384906
C103  C     C_R   0.194532 0.795881 0.094603 -0.100569
C104  C     C_R   0.296716 0.261985 0.208297 -0.099398
C105  C     C_R   0.733232 0.747005 0.811563 -0.071163
C106  C     C_R   0.298682 0.716383 0.884974 -0.087235
C107  C     C_R   0.692353 0.299941 0.086422 -0.100196
C108  C     C_R   0.793730 0.760865 0.205420 -0.097281
C109  C     C_R   0.234083 0.247387 0.812962 -0.072083
C110  C     C_R   0.713337 0.243683 0.935954 0.048397
C111  C     C_R   0.284748 0.769019 0.045812 0.070900
C112  C     C_R   0.285219 0.227168 0.041001 0.056184
Cu1   Cu    Cu3+1 0.526640 1.000000 0.436960 1.062434
Cu2   Cu    Cu3+1 0.473360 1.000000 0.563040 1.044889
Cu3   Cu    Cu3+1 0.026640 0.500000 0.436960 1.051980
Cu4   Cu    Cu3+1 0.973360 0.500000 0.563040 1.048302
H1    H     H_    0.446043 0.893965 0.039074 0.181522
H2    H     H_    0.096195 0.662528 0.758151 0.212696
H3    H     H_    0.165698 0.380582 0.840191 0.217198
H4    H     H_    0.826821 0.618120 0.156047 0.215439
H5    H     H_    0.424065 0.783088 0.156722 0.183325
H6    H     H_    0.572481 0.238784 0.809759 0.192083
H7    H     H_    0.745609 0.877332 0.021873 0.224418
H8    H     H_    0.337251 0.143897 0.035279 0.208498
H9    H     H_    0.923759 0.290501 0.152238 0.216667
H10   H     H_    0.070431 0.735027 0.817120 0.192510
H11   H     H_    0.246892 0.378104 0.023006 0.225604
H12   H     H_    0.560833 0.099656 0.967645 0.205227
H13   H     H_    0.834315 0.642680 0.032087 0.205437
H14   H     H_    0.338146 0.883271 0.823622 0.206012
H15   H     H_    0.670984 0.109124 0.183412 0.202524
H16   H     H_    0.837237 0.384333 0.823156 0.205689
H17   H     H_    0.169322 0.610738 0.181708 0.204705
H18   H     H_    0.691634 0.026802 0.499012 0.236992
H19   H     H_    0.308468 0.971404 0.503169 0.212164
H20   H     H_    0.190625 0.528919 0.498441 0.230281
H21   H     H_    0.808130 0.472111 0.502968 0.211169
H22   H     H_    0.561542 0.804503 0.195710 0.362715
H23   H     H_    0.945257 0.394865 0.038500 0.211158
H24   H     H_    0.452939 0.319313 0.722483 0.365954
H25   H     H_    0.821836 0.982058 0.239901 0.411331
H26   H     H_    0.454037 0.147243 0.018763 0.354774
H27   H     H_    0.099297 0.306998 0.177847 0.409999
H28   H     H_    0.951975 0.816306 0.736384 0.364050
H29   H     H_    0.323495 0.483534 0.240090 0.410060
H30   H     H_    0.950241 0.643548 0.018792 0.354615
H31   H     H_    0.310478 0.861345 0.442558 0.352780
H32   H     H_    0.775642 0.145581 0.626192 0.372555
H33   H     H_    0.554608 0.833738 0.466497 0.317779
H34   H     H_    0.059862 0.600318 0.966283 0.205819
H35   H     H_    0.431155 0.164529 0.533272 0.331210
H36   H     H_    0.800108 0.366559 0.430352 0.353512
H37   H     H_    0.176492 0.643629 0.540994 0.349823
H38   H     H_    0.054828 0.333669 0.467214 0.319150
H39   H     H_    0.927685 0.664641 0.531096 0.330156
H40   H     H_    0.358284 0.693322 0.732997 0.387433
H41   H     H_    0.618195 0.324199 0.219794 0.397372
H42   H     H_    0.778417 0.766830 0.408383 0.393128
H43   H     H_    0.163538 0.216132 0.548268 0.390857
H44   H     H_    0.896401 0.146625 0.811578 0.352715
H45   H     H_    0.407567 0.835296 0.250368 0.187335
H46   H     H_    0.126824 0.816668 0.237010 0.398479
H47   H     H_    0.285357 0.268923 0.415126 0.393439
H48   H     H_    0.664833 0.716952 0.547594 0.392858
H49   H     H_    0.283600 0.993714 0.935099 0.398963
H50   H     H_    0.702331 0.090195 0.984229 0.385140
H51   H     H_    0.782706 0.491335 0.935420 0.399052
H52   H     H_    0.203373 0.589284 0.985890 0.387405
H53   H     H_    0.148883 0.973802 0.433309 0.366366
H54   H     H_    0.894565 0.086261 0.611837 0.388740
H55   H     H_    0.648697 0.476187 0.433922 0.368871
H56   H     H_    0.599192 0.163765 0.757994 0.209789
H57   H     H_    0.388689 0.596589 0.610535 0.394510
H58   H     H_    0.664942 0.880106 0.839334 0.217363
H59   H     H_    0.326020 0.118652 0.155806 0.214029
H60   H     H_    0.909392 0.332568 0.256537 0.184077
N1    N     N_R   0.433280 1.000000 0.657760 -0.253812
N2    N     N_R   0.566720 1.000000 0.342240 -0.273569
N3    N     N_R   0.933280 0.500000 0.657760 -0.254173
N4    N     N_R   0.066720 0.500000 0.342240 -0.270051
O1    O     O_R   0.600040 0.935040 0.546740 -0.561314
O2    O     O_R   0.444990 0.064930 0.346780 -0.531236
O3    O     O_R   0.444990 0.935070 0.346780 -0.517266
O4    O     O_R   0.555010 0.064930 0.653220 -0.530326
O5    O     O_R   0.055010 0.435070 0.653220 -0.538576
O6    O     O_R   0.944990 0.564930 0.346780 -0.538920
O7    O     O_R   0.944990 0.435070 0.346780 -0.511133
O8    O     O_R   0.055010 0.564930 0.653220 -0.516947
O9    O     O_2   0.499208 0.679450 0.029841 -0.180110
O10   O     O_2   0.487989 0.786603 0.977174 -0.262358
O11   O     O_3   0.555636 0.759700 0.192921 -0.491125
O12   O     O_R   0.399960 0.064960 0.453260 -0.562169
O13   O     O_2   0.482159 0.252646 0.951636 -0.208589
O14   O     O_2   0.502588 0.359270 0.927417 -0.218105
O15   O     O_3   0.440563 0.284900 0.752619 -0.468235
O16   O     O_2   0.719001 0.899597 0.227677 -0.235045
O17   O     O_2   0.875207 0.877088 0.375702 -0.202540
O18   O     O_3   0.820486 0.946703 0.198226 -0.478235
O19   O     O_2   0.259997 0.093372 0.765895 -0.187773
O20   O     O_2   0.350845 0.172943 0.778904 -0.169717
O21   O     O_3   0.414761 0.112413 0.970082 -0.527907
O22   O     O_2   0.022396 0.193528 0.068216 -0.212199
O23   O     O_R   0.399960 0.935040 0.453260 -0.594233
O24   O     O_2   0.975117 0.286297 0.947726 -0.254569
O25   O     O_3   0.048509 0.296472 0.169744 -0.540904
O26   O     O_2   0.986318 0.746237 0.966907 -0.216277
O27   O     O_2   0.005493 0.853560 0.945194 -0.224650
O28   O     O_3   0.940333 0.781350 0.766398 -0.468699
O29   O     O_2   0.223540 0.400658 0.232798 -0.245878
O30   O     O_2   0.380040 0.378888 0.377627 -0.193947
O31   O     O_3   0.321923 0.448132 0.198277 -0.475067
O32   O     O_2   0.756281 0.593487 0.760664 -0.184744
O33   O     O_2   0.850691 0.671926 0.779097 -0.167783
O34   O     O_R   0.600040 0.064960 0.546740 -0.546420
O35   O     O_3   0.910791 0.609482 0.966737 -0.526202
O36   O     O_3   0.255196 0.871566 0.361694 -0.678095
O37   O     O_3   0.743913 0.118221 0.639380 -0.702606
O38   O     O_3   0.610813 0.813134 0.509440 -0.707809
O39   O     O_3   0.373258 0.183650 0.482297 -0.685119
O40   O     O_3   0.747290 0.377946 0.348209 -0.679391
O41   O     O_3   0.233715 0.634475 0.620441 -0.689904
O42   O     O_3   0.110788 0.312737 0.510087 -0.699048
O43   O     O_3   0.869097 0.682773 0.478867 -0.685308
O44   O     O_3   0.365378 0.712354 0.798810 -0.622692
O45   O     O_R   0.100040 0.435040 0.546740 -0.554393
O46   O     O_3   0.612589 0.308182 0.153239 -0.631736
O47   O     O_3   0.775362 0.785865 0.345371 -0.618328
O48   O     O_3   0.188328 0.204597 0.629651 -0.628665
O49   O     O_3   0.886832 0.185994 0.832623 -0.626420
O50   O     O_3   0.120089 0.800522 0.169615 -0.631569
O51   O     O_3   0.281930 0.287797 0.351693 -0.639142
O52   O     O_3   0.688606 0.704984 0.628316 -0.626628
O53   O     O_2   0.371699 0.912308 0.102768 -0.367680
O54   O     O_2   0.352757 0.005049 0.166785 -0.270075
O55   O     O_3   0.343237 0.011342 0.989419 -0.484416
O56   O     O_R   0.899960 0.564960 0.453260 -0.559664
O57   O     O_2   0.652532 0.982686 0.990445 -0.296358
O58   O     O_2   0.650111 0.995099 0.829436 -0.269054
O59   O     O_3   0.639603 0.090556 0.911712 -0.591533
O60   O     O_2   0.873130 0.411628 0.106052 -0.359655
O61   O     O_2   0.852775 0.504939 0.166955 -0.271239
O62   O     O_3   0.841987 0.509552 0.988599 -0.487754
O63   O     O_2   0.152005 0.481950 0.990059 -0.296880
O64   O     O_2   0.150068 0.495096 0.829476 -0.263413
O65   O     O_3   0.140592 0.590100 0.913634 -0.592417
O66   O     O_2   0.246044 0.845067 0.594621 -0.240088
O67   O     O_R   0.899960 0.435040 0.453260 -0.595504
O68   O     O_2   0.187839 0.927243 0.631887 -0.241057
O69   O     O_3   0.161843 0.930371 0.436198 -0.448223
O70   O     O_2   0.818816 0.063407 0.376083 -0.258754
O71   O     O_2   0.764340 0.147516 0.416038 -0.296533
O72   O     O_3   0.842671 0.059340 0.570030 -0.499955
O73   O     O_2   0.743831 0.346623 0.593102 -0.240236
O74   O     O_2   0.687289 0.429245 0.632138 -0.237511
O75   O     O_3   0.660732 0.432611 0.436037 -0.446983
O76   O     O_2   0.318621 0.567386 0.379399 -0.258378
O77   O     O_2   0.257103 0.652017 0.406786 -0.289659
O78   O     O_R   0.100040 0.564960 0.546740 -0.593442
O79   O     O_3   0.338296 0.568317 0.570226 -0.471659
O80   O     O_R   0.555010 0.935070 0.653220 -0.539859
S1    S     S_3+6 0.480257 0.741895 0.046502 0.065385
S2    S     S_3+6 0.609633 0.017322 0.876642 0.003915
S3    S     S_3+6 0.893873 0.478165 0.123624 0.010529
S4    S     S_3+6 0.109675 0.517097 0.876934 0.005820
S5    S     S_3+6 0.229732 0.912099 0.582200 0.054316
S6    S     S_3+6 0.777149 0.080061 0.425412 0.027282
S7    S     S_3+6 0.728607 0.413785 0.581766 0.055492
S8    S     S_3+6 0.273820 0.584975 0.423785 0.036633
S9    S     S_3+6 0.509334 0.294948 0.901838 0.089730
S10   S     S_3+6 0.798412 0.886614 0.244982 0.107570
S11   S     S_3+6 0.325663 0.142996 0.843189 0.097635
S12   S     S_3+6 0.982282 0.254757 0.043660 0.041686
S13   S     S_3+6 0.011375 0.789855 0.916085 0.083974
S14   S     S_3+6 0.301881 0.387961 0.247383 0.105215
S15   S     S_3+6 0.823394 0.641907 0.840728 0.100456
S16   S     S_3+6 0.393795 0.978674 0.123067 0.009336

loop_
_geom_bond_atom_site_label_1
_geom_bond_atom_site_label_2
_ccdc_geom_bond_type
O20   S11   D    
C91   O8    A    
C16   C21   A    
C70   C78   A    
O31   S14   S    
C85   H45   S    
H25   O18   S    
C94   C111  A    
H39   O43   S    
H22   O11   S    
C64   C90   A    
C74   C83   A    
C96   C105  A    
C3    C6    A    
C74   C109  A    
C18   S12   S    
C56   H17   S    
O54   S16   D    
O27   S13   D    
Cu1   O3    S    
C70   O52   S    
O73   S7    D    
C54   H15   S    
Cu4   O8    S    
C33   S4    S    
C50   C54   A    
O35   S15   S    
C34   S3    S    
C31   N1    A    
C31   S2    S    
C28   H18   S    
O11   S1    S    
O10   S1    D    
C69   O56   A    
C10   C13   A    
H57   O79   S    
H30   O35   S    
H47   O51   S    
C95   C112  A    
Cu3   O78   S    
Cu2   O4    S    
C8    H5    S    
C65   C83   A    
C33   N3    A    
C5    C110  A    
C75   O37   S    
H53   O69   S    
Cu3   Cu4   S    
C47   O34   A    
C46   C52   A    
C2    C107  A    
C68   C77   A    
C24   C42   A    
C7    C112  A    
C86   H59   S    
O21   S11   S    
O69   S5    S    
H51   O62   S    
C2    S9    S    
O22   S12   D    
C24   C29   A    
C74   O48   S    
O79   S8    S    
C61   C87   A    
C83   O42   S    
C34   N4    A    
C48   C51   A    
Cu1   O1    S    
C11   H8    S    
C67   O50   S    
C28   N2    A    
Cu2   O23   S    
O62   S3    S    
C72   C107  A    
O59   S2    S    
O16   S10   D    
C3    C96   A    
O64   S4    D    
C25   C60   S    
C69   O6    A    
O66   S5    D    
H32   O37   S    
C51   C55   A    
C72   C81   A    
C68   O51   S    
C17   S11   S    
C93   C110  A    
C84   C93   A    
C1    O80   A    
C36   C59   S    
C7    C15   A    
H52   O65   S    
C11   C112  A    
O25   S12   S    
C100  C109  A    
C59   C76   A    
C15   H11   S    
C4    C97   A    
C87   C96   A    
C58   O5    A    
C4    C14   A    
O55   S16   S    
C66   C101  A    
C32   N2    A    
O77   S8    D    
C19   C103  A    
Cu1   O34   S    
C13   C108  A    
C21   S15   S    
C71   C79   A    
C36   O3    A    
C52   H34   S    
C26   C43   A    
C79   O41   S    
C26   S8    S    
C63   C80   S    
O29   S14   D    
C15   C20   A    
O74   S7    D    
C46   C48   A    
C60   C77   A    
C80   O67   A    
Cu2   O12   S    
C7    C100  A    
O9    S1    D    
C34   C39   A    
H26   O21   S    
O33   S15   D    
C62   C79   A    
C2    C9    A    
O70   S6    D    
C5    C12   A    
C10   H7    S    
C8    C111  A    
C93   C101  A    
C73   O47   S    
Cu3   O6    S    
C60   C86   A    
C77   O39   S    
C73   C108  A    
C39   C43   A    
C82   O43   S    
C53   H14   S    
H55   O75   S    
H50   O59   S    
C23   C28   A    
C81   O40   S    
C62   C88   A    
C70   C105  A    
C98   C107  A    
C63   C89   A    
C1    C61   S    
C25   O2    A    
C18   C101  A    
C90   H4    S    
H38   O42   S    
C59   C85   A    
H37   O41   S    
C14   H10   S    
C99   C108  A    
C42   C55   A    
C47   C57   S    
Cu3   O7    S    
C85   C94   A    
C76   O36   S    
C58   C65   S    
Cu1   O2    S    
C66   O49   S    
Cu4   O67   S    
C45   C49   A    
C61   C78   A    
Cu2   N1    S    
C22   C40   A    
C62   C91   S    
Cu4   O56   S    
C9    H6    S    
C57   C84   A    
H54   O72   S    
O14   S9    D    
C32   C37   A    
C16   H13   S    
C58   O45   A    
O71   S6    D    
C64   C82   A    
H46   O50   S    
C65   C92   A    
H41   O46   S    
C49   H1    S    
C20   C104  A    
C97   C106  A    
O24   S12   D    
O72   S6    S    
O28   S13   S    
C36   O23   A    
C4    C111  A    
C63   C81   A    
C94   C103  A    
H31   O36   S    
C30   H20   S    
C22   C27   A    
C24   S7    S    
C29   N3    A    
H35   O39   S    
O58   S2    D    
C50   H12   S    
O63   S4    D    
O60   S3    D    
C37   C45   A    
O15   S9    S    
C73   C82   A    
C29   H21   S    
C95   C104  A    
C92   C100  A    
O19   S11   D    
Cu1   Cu2   S    
O32   S15   D    
C44   C50   A    
C9    C110  A    
C90   C99   A    
C87   H58   S    
C11   C17   A    
O18   S10   S    
C1    O1    A    
C71   O44   S    
O26   S13   D    
O57   S2    D    
H27   O25   S    
C14   C19   A    
C92   H3    S    
Cu3   O45   S    
C44   C45   A    
Cu3   N4    S    
C47   O4    A    
C84   H56   S    
C25   O12   A    
C17   C109  A    
C27   N1    A    
H49   O55   S    
C12   H9    S    
C67   C103  A    
C102  S1    S    
Cu4   O5    S    
C23   S6    S    
C33   C38   A    
C23   C41   A    
H48   O52   S    
C89   C98   A    
H40   O44   S    
C88   H2    S    
C27   H19   S    
C6    C99   A    
C57   C75   A    
C68   C104  A    
C35   C40   A    
C88   C97   A    
C91   O78   A    
C13   S10   S    
C78   O38   S    
C38   C46   A    
O53   S16   D    
C22   S5    S    
C19   S13   S    
C8    C102  A    
C49   C53   A    
C66   C75   A    
H36   O40   S    
O30   S14   D    
C80   O7    A    
Cu1   N2    S    
C31   C35   A    
H33   O38   S    
O68   S5    D    
C71   C106  A    
C37   C41   A    
C64   C69   S    
H24   O15   S    
C20   S14   S    
C41   C54   A    
C32   S16   S    
H43   O48   S    
C86   C95   A    
C40   C53   A    
C38   C42   A    
C43   C56   A    
C5    C98   A    
O75   S7    S    
O13   S9    D    
C55   H16   S    
O61   S3    D    
C102  C106  A    
C12   C18   A    
C3    C10   A    
C30   N4    A    
H44   O49   S    
O76   S8    D    
C72   O46   S    
C67   C76   A    
C89   H60   S    
H28   O28   S    
O17   S10   D    
Cu4   N3    S    
O65   S4    S    
Cu2   O80   S    
H42   O47   S    
C6    C16   A    
C21   C105  A    
C52   C56   A    
C35   C44   A    
C39   C48   A    
H29   O31   S    
C26   C30   A    
C51   H23   S    
