data_mof_unit_62277.cif
_audit_creation_date              2013-03-05T16:06:17-0500
_audit_creation_method            fapswitch 2.2
_symmetry_space_group_name_H-M    P1
_symmetry_Int_Tables_number       1
_space_group_crystal_system       triclinic
_cell_length_a                    16.043662
_cell_length_b                    16.043594
_cell_length_c                    19.524531
_cell_angle_alpha                 95.515345
_cell_angle_beta                  90.624502
_cell_angle_gamma                 84.09179
_cell_volume                      4975.73483635

loop_
_atom_site_label
_atom_site_type_symbol
_atom_site_description
_atom_site_fract_x
_atom_site_fract_y
_atom_site_fract_z
_atom_type_partial_charge
Zn1   Zn    Zn3+2 0.569660 0.430340 0.558290 0.974548
Zn2   Zn    Zn3+2 0.437560 0.430860 0.436130 0.973541
Zn3   Zn    Zn3+2 0.568560 0.563000 0.447270 0.973995
Zn4   Zn    Zn3+2 0.424220 0.575810 0.558310 0.974951
O1    O     O_3   0.500000 0.500000 0.500000 -0.477832
O2    O     O_R   0.310830 0.559620 0.535340 -0.635868
O3    O     O_R   0.684890 0.444680 0.546270 -0.635874
O4    O     O_R   0.463420 0.314900 0.449800 -0.636575
O5    O     O_R   0.540870 0.680800 0.468590 -0.635552
O6    O     O_R   0.462330 0.445560 0.340470 -0.648637
O7    O     O_R   0.440930 0.559110 0.655640 -0.647443
O8    O     O_R   0.554010 0.538050 0.348260 -0.645745
O9    O     O_R   0.542730 0.457290 0.655630 -0.646033
O10   O     O_R   0.555880 0.314540 0.535300 -0.634153
O11   O     O_R   0.439840 0.689760 0.546310 -0.636129
O12   O     O_R   0.320170 0.458170 0.449830 -0.635362
O13   O     O_R   0.684110 0.537530 0.468570 -0.636193
C1    C     C_R   0.275728 0.510908 0.490986 0.815328
C2    C     C_R   0.724109 0.489222 0.508996 0.812941
C3    C     C_R   0.511644 0.274862 0.490834 0.812911
C4    C     C_R   0.488140 0.725198 0.509147 0.815012
C5    C     C_R   0.510106 0.489554 0.311311 0.797405
C6    C     C_R   0.490311 0.510602 0.688718 0.794348
C7    C     C_R   0.490238 0.519791 0.764140 -0.003830
C8    C     C_R   0.552302 0.474188 0.800532 -0.195249
C9    C     C_R   0.554326 0.485376 0.872013 -0.185407
C10   C     C_R   0.493823 0.541748 0.908276 0.144507
C11   C     C_R   0.432145 0.587835 0.871899 -0.169720
C12   C     C_R   0.430313 0.576917 0.800314 -0.197734
C13   C     C_R   0.562304 0.534035 0.131726 -0.130691
C14   C     C_R   0.562546 0.536404 0.203186 -0.212359
C15   C     C_R   0.465756 0.429140 0.196327 -0.198693
C16   C     C_R   0.465642 0.426845 0.124948 -0.191069
C17   C     C_R   0.511895 0.480918 0.092563 0.190089
C18   C     C_2   0.493677 0.550923 0.984254 -0.033232
C19   C     C_2   0.506673 0.480647 0.017512 -0.310213
C20   C     C_R   0.513207 0.484872 0.236031 -0.006859
H1    H     H_    0.599842 0.430534 0.773802 0.162678
H2    H     H_    0.600499 0.579086 0.232637 0.163760
H3    H     H_    0.427903 0.388024 0.220390 0.164803
H4    H     H_    0.510543 0.419239 0.988163 0.156294
H5    H     H_    0.384678 0.631334 0.898887 0.142231
H6    H     H_    0.600592 0.574232 0.107063 0.142291
H7    H     H_    0.382012 0.613148 0.773341 0.162992
H8    H     H_    0.603411 0.450217 0.899027 0.137672
H9    H     H_    0.427584 0.384615 0.095046 0.136561
C21   C     C_1   0.186131 0.515480 0.487351 -0.140847
C22   C     C_2   0.020829 0.523566 0.480858 -0.163249
C23   C     C_2   0.978986 0.477055 0.519047 -0.165290
C24   C     C_1   0.889004 0.481302 0.515557 0.006070
C25   C     C_1   0.110816 0.519245 0.484337 0.005291
C26   C     C_1   0.813695 0.484920 0.512566 -0.138556
H10   H     H_    0.012131 0.435373 0.553244 0.158732
H11   H     H_    0.987693 0.565244 0.446654 0.159882
C27   C     C_1   0.516101 0.184833 0.486990 -0.139403
C28   C     C_2   0.524125 0.018759 0.480152 -0.164192
C29   C     C_2   0.474792 0.981340 0.519753 -0.165413
C30   C     C_1   0.479274 0.890928 0.516139 0.005992
C31   C     C_1   0.519790 0.109166 0.483828 0.005264
C32   C     C_1   0.483221 0.815250 0.513004 -0.140265
H12   H     H_    0.430681 0.018457 0.555258 0.158852
H13   H     H_    0.568247 0.981630 0.444662 0.159827
C33   C     C_R   0.474141 0.636389 0.020932 0.131876
C34   C     C_R   0.519846 0.702475 0.005846 -0.173929
C35   C     C_R   0.501450 0.783111 0.039507 -0.138668
C36   C     C_R   0.436939 0.798536 0.088008 -0.108609
C37   C     C_R   0.390409 0.733446 0.102681 -0.144026
C38   C     C_R   0.408510 0.652750 0.069087 -0.135915
H14   H     H_    0.570087 0.691345 0.968436 0.135285
H15   H     H_    0.537217 0.833661 0.027977 0.132150
H16   H     H_    0.422796 0.860994 0.114022 0.126680
H17   H     H_    0.340102 0.745585 0.139927 0.131834
H18   H     H_    0.371241 0.603197 0.080384 0.138220

loop_
_geom_bond_atom_site_label_1
_geom_bond_atom_site_label_2
_geom_bond_distance
_ccdc_geom_bond_type
C35   H15   1.082321 S    
C24   C26   1.204688 T    
C6    C7    1.465788 S    
C29   H12   1.086550 S    
Zn3   O5    1.903271 S    
C27   C31   1.204952 T    
C8    H1    1.083076 S    
C21   C25   1.204692 T    
Zn2   O12   1.905035 S    
O3    C2    1.280131 A    
C18   C19   1.351184 D    
C28   C31   1.439838 S    
C28   H13   1.086563 S    
C1    C21   1.433097 S    
C38   H18   1.082902 S    
Zn4   O11   1.907307 S    
C16   C17   1.396888 A    
C19   H4    1.087421 S    
Zn4   O1    1.926953 S    
Zn1   O3    1.906080 S    
C34   H14   1.083144 S    
C34   C35   1.398162 A    
Zn4   O7    1.956237 S    
C22   H11   1.086565 S    
C16   H9    1.083544 S    
O5    C4    1.277578 A    
C29   C30   1.439837 S    
O4    C3    1.279132 A    
C4    C32   1.433521 S    
C3    C27   1.433542 S    
C23   H10   1.086570 S    
C7    C12   1.404306 A    
O7    C6    1.268437 A    
C11   C12   1.392173 A    
O13   C2    1.280490 A    
C14   H2    1.082977 S    
Zn3   O13   1.906981 S    
C17   C19   1.466438 S    
C15   H3    1.083015 S    
C12   H7    1.083033 S    
C9    C10   1.404504 A    
C13   C14   1.392046 A    
O2    C1    1.275828 A    
Zn1   O1    1.937247 S    
C13   H6    1.082963 S    
Zn2   O1    1.929950 S    
Zn1   O9    1.951172 S    
C28   C29   1.336066 D    
C13   C17   1.402889 A    
C30   C32   1.204944 T    
C37   C38   1.397925 A    
Zn2   O6    1.955009 S    
O8    C5    1.271136 A    
Zn1   O10   1.903695 S    
O11   C4    1.277685 A    
C37   H17   1.082312 S    
C36   C37   1.397320 A    
C7    C8    1.402196 A    
O9    C6    1.270325 A    
O10   C3    1.279054 A    
O12   C1    1.275769 A    
C35   C36   1.397427 A    
C11   H5    1.083188 S    
C10   C11   1.401915 A    
C23   C24   1.439401 S    
C33   C38   1.406719 A    
C22   C23   1.335817 D    
C18   C33   1.489579 S    
Zn3   O8    1.952523 S    
C9    H8    1.083153 S    
C10   C18   1.476578 S    
C8    C9    1.390372 A    
C15   C20   1.404994 A    
C5    C20   1.465629 S    
Zn4   O2    1.906610 S    
C2    C26   1.433089 S    
O6    C5    1.268055 A    
C22   C25   1.439421 S    
Zn2   O4    1.907523 S    
C36   H16   1.082323 S    
C15   C16   1.390566 A    
C14   C20   1.403246 A    
C33   C34   1.404784 A    
Zn3   O1    1.935207 S    
