data_mof_unit_39110.cif
_audit_creation_date              2012-10-26T19:48:43-0400
_audit_creation_method            fapswitch 2.2
_symmetry_space_group_name_H-M    P1
_symmetry_Int_Tables_number       1
_space_group_crystal_system       triclinic
_cell_length_a                    10.730415
_cell_length_b                    9.407082
_cell_length_c                    27.817245
_cell_angle_alpha                 89.99861
_cell_angle_beta                  90.120386
_cell_angle_gamma                 90.01682
_cell_volume                      2807.91907064

loop_
_atom_site_label
_atom_site_type_symbol
_atom_type_description
_atom_site_fract_x
_atom_site_fract_y
_atom_site_fract_z
_atom_type_partial_charge
C1    C     C_R   0.259719 0.499783 0.499949 0.607240
C2    C     C_R   0.386517 0.539180 0.974462 0.018294
C3    C     C_R   0.606147 0.459988 0.974599 0.018275
C4    C     C_R   0.500041 0.499998 0.407475 0.576409
C5    C     C_R   0.496302 0.499592 0.949284 0.034459
C6    C     C_R   0.281597 0.583540 0.947377 -0.140410
C7    C     C_R   0.283194 0.584518 0.897464 -0.110386
C8    C     C_R   0.389378 0.542005 0.872418 0.023409
C9    C     C_R   0.496255 0.499615 0.898140 -0.026723
C10   C     C_R   0.603102 0.457260 0.872573 0.025070
C11   C     C_R   0.601158 0.458116 0.822108 0.397947
C12   C     C_R   0.507009 0.371410 0.278936 -0.047062
C13   C     C_R   0.391313 0.541294 0.821943 0.401119
C14   C     C_R   0.492730 0.628578 0.721146 -0.047300
C15   C     C_R   0.494036 0.628822 0.671028 -0.128084
C16   C     C_R   0.740072 0.499820 0.499948 0.548115
C17   C     C_R   0.501976 0.371033 0.671022 -0.127632
C18   C     C_R   0.500861 0.371117 0.721134 -0.045845
C19   C     C_R   0.496369 0.499808 0.746360 0.242838
C20   C     C_R   0.385284 0.534117 0.025559 0.018570
C21   C     C_R   0.496461 0.499627 0.050869 0.034530
C22   C     C_R   0.607549 0.465123 0.025687 0.018535
C23   C     C_R   0.497054 0.499732 0.253734 0.244031
C24   C     C_R   0.276079 0.561585 0.052516 -0.140130
C25   C     C_R   0.715997 0.439322 0.102660 -0.110281
C26   C     C_R   0.710978 0.415526 0.947658 -0.140806
C27   C     C_R   0.709299 0.414625 0.897753 -0.110299
C28   C     C_R   0.499898 0.499999 0.592563 0.577457
C29   C     C_R   0.716879 0.437769 0.052755 -0.140490
C30   C     C_3   0.071224 0.579183 0.454782 -0.058783
C31   C     C_3   0.071726 0.576648 0.545533 -0.058814
C32   C     C_3   0.927112 0.577095 0.454664 -0.217896
C33   C     C_3   0.927620 0.575283 0.545506 -0.217881
C34   C     C_R   0.496564 0.499655 0.102013 -0.026748
C35   C     C_3   0.070768 0.344017 0.499379 -0.221167
C36   C     C_3   0.121767 0.498972 0.499908 0.054838
C37   C     C_3   0.877930 0.499258 0.499916 0.009768
C38   C     C_3   0.928264 0.344392 0.499567 -0.236948
C39   C     C_3   0.620718 0.083730 0.483998 -0.105137
C40   C     C_3   0.620695 0.916318 0.483963 -0.104690
C41   C     C_3   0.478120 0.083734 0.549835 -0.104253
C42   C     C_3   0.478169 0.916246 0.549838 -0.104441
C43   C     C_3   0.401653 0.083726 0.469176 -0.102468
C44   C     C_3   0.401614 0.916198 0.469191 -0.102559
C45   C     C_R   0.386728 0.530424 0.127605 0.023221
C46   C     C_R   0.388839 0.529761 0.178081 0.400947
C47   C     C_R   0.604656 0.469633 0.178172 0.397899
C48   C     C_R   0.487998 0.628147 0.278914 -0.047236
C49   C     C_R   0.489352 0.628452 0.329033 -0.126727
C50   C     C_R   0.507882 0.371324 0.329053 -0.129752
C51   C     C_R   0.277158 0.560066 0.102432 -0.110473
C52   C     C_R   0.606518 0.468928 0.127711 0.024880
C53   C     C_R   0.499323 0.499954 0.354563 0.021424
C54   C     C_R   0.498888 0.499971 0.645493 0.021627
Cu1   Cu    Cu3+1 0.499860 0.642410 0.500020 0.896942
Cu2   Cu    Cu3+1 0.499860 0.357590 0.500020 0.900770
H1    H     H_    0.515553 0.270713 0.347757 0.119742
H2    H     H_    0.103554 0.689300 0.544851 0.126204
H3    H     H_    0.891787 0.688341 0.453808 0.110141
H4    H     H_    0.892719 0.686662 0.546741 0.111271
H5    H     H_    0.513814 0.271789 0.259616 0.130223
H6    H     H_    0.891064 0.523224 0.421880 0.158805
H7    H     H_    0.891508 0.520540 0.578058 0.159134
H8    H     H_    0.104227 0.286058 0.467044 0.146967
H9    H     H_    0.105165 0.283711 0.531133 0.149844
H10   H     H_    0.893591 0.286780 0.467215 0.130527
H11   H     H_    0.894594 0.285876 0.531833 0.132378
H12   H     H_    0.480474 0.727694 0.259577 0.130068
H13   H     H_    0.697930 0.120653 0.507591 0.114506
H14   H     H_    0.698039 0.879218 0.507470 0.116053
H15   H     H_    0.641383 0.123814 0.447238 0.116025
H16   H     H_    0.641161 0.876426 0.447164 0.116380
H17   H     H_    0.551799 0.121398 0.574968 0.116428
H18   H     H_    0.551894 0.878663 0.574962 0.116393
H19   H     H_    0.308457 0.121571 0.480877 0.118410
H20   H     H_    0.308402 0.878294 0.480906 0.118239
H21   H     H_    0.414586 0.122771 0.431797 0.126242
H22   H     H_    0.414482 0.877115 0.431816 0.124305
H23   H     H_    0.802235 0.417296 0.121577 0.170004
H24   H     H_    0.387706 0.123303 0.564071 0.128272
H25   H     H_    0.387794 0.876567 0.564096 0.126369
H26   H     H_    0.191012 0.582166 0.121261 0.169675
H27   H     H_    0.491126 0.729772 0.652363 0.117153
H28   H     H_    0.489473 0.728454 0.740457 0.131485
H29   H     H_    0.200237 0.619192 0.878537 0.170206
H30   H     H_    0.196595 0.620728 0.963515 0.110626
H31   H     H_    0.186870 0.582594 0.036275 0.108769
H32   H     H_    0.482253 0.729111 0.347722 0.121589
H33   H     H_    0.795972 0.378189 0.963901 0.110632
H34   H     H_    0.505314 0.270115 0.652361 0.116554
H35   H     H_    0.792212 0.379912 0.878939 0.170352
H36   H     H_    0.503292 0.271179 0.740433 0.131825
H37   H     H_    0.806053 0.416864 0.036616 0.108805
H38   H     H_    0.102605 0.691929 0.456290 0.123199
I1    I     I_    0.143040 0.498816 0.387477 -0.398020
I2    I     I_    0.143508 0.491700 0.612319 -0.397610
N1    N     N_R   0.496809 0.499685 0.202206 -0.400903
N2    N     N_R   0.496237 0.499728 0.797919 -0.400211
N3    N     N_3   0.500250 0.143650 0.501060 -0.230634
N4    N     N_3   0.500250 0.856350 0.501060 -0.230069
O1    O     O_R   0.317570 0.620260 0.500030 -0.507538
O2    O     O_2   0.288897 0.580693 0.797043 -0.475996
O3    O     O_2   0.709895 0.441419 0.203063 -0.484984
O4    O     O_2   0.703607 0.418823 0.797372 -0.487139
O5    O     O_R   0.317570 0.379740 0.500030 -0.498886
O6    O     O_R   0.499900 0.620250 0.430280 -0.507749
O7    O     O_R   0.499900 0.379750 0.430280 -0.506660
O8    O     O_R   0.682190 0.620260 0.500010 -0.518483
O9    O     O_R   0.682190 0.379740 0.500010 -0.517738
O10   O     O_R   0.499860 0.620280 0.569750 -0.508060
O11   O     O_R   0.499860 0.379720 0.569750 -0.506635
O12   O     O_2   0.283754 0.558050 0.202885 -0.473679

loop_
_geom_bond_atom_site_label_1
_geom_bond_atom_site_label_2
_ccdc_geom_bond_type
C10   C27   A    
C29   H37   S    
Cu1   Cu2   S    
C8    C13   A    
C22   C29   A    
C46   O12   S    
C4    C53   S    
C41   C42   S    
C35   C36   S    
C14   H28   S    
C41   H24   S    
C7    C8    A    
C45   C46   A    
C26   H33   S    
C12   C23   A    
C26   C27   A    
C37   C38   S    
C40   H14   S    
C11   N2    A    
C31   H2    S    
C43   N3    S    
C45   C51   A    
C31   I2    S    
C18   C19   A    
C13   N2    A    
C44   H20   S    
C20   C24   A    
C8    C9    A    
Cu1   N4    S    
C41   N3    S    
C27   H35   S    
C11   O4    S    
C9    C10   A    
Cu2   O11   S    
C16   C37   S    
C24   C51   A    
C21   C22   A    
C43   H19   S    
C49   H32   S    
C2    C6    A    
C42   H25   S    
C19   N2    S    
C16   O9    A    
C28   O11   A    
C25   C29   A    
C4    O7    A    
C42   H18   S    
C50   C53   A    
C47   O3    S    
Cu1   O6    S    
C2    C20   A    
C15   C54   A    
C38   H10   S    
C35   C38   S    
C38   H11   S    
C39   C40   S    
C28   C54   S    
C15   H27   S    
C21   C34   A    
C28   O10   A    
C4    O6    A    
C33   C37   S    
C47   C52   A    
C43   C44   S    
Cu2   O7    S    
C5    C9    A    
C30   I1    S    
C42   N4    S    
C39   N3    S    
C14   C15   A    
C33   H7    S    
C31   C33   S    
C17   C18   A    
C39   H13   S    
C34   C45   A    
C32   C37   S    
C48   H12   S    
C51   H26   S    
C35   H8    S    
C48   C49   A    
C23   N1    S    
C46   N1    A    
C33   H4    S    
Cu1   O10   S    
C2    C5    A    
C1    O1    A    
Cu2   O9    S    
C39   H15   S    
C23   C48   A    
C40   H16   S    
C25   H23   S    
C50   H1    S    
C14   C19   A    
C3    C26   A    
C17   H34   S    
C3    C5    A    
C6    H30   S    
C40   N4    S    
C12   C50   A    
C6    C7    A    
C43   H21   S    
Cu1   O1    S    
C34   C52   A    
C47   N1    A    
C30   C36   S    
Cu1   O8    S    
C18   H36   S    
C44   H22   S    
C25   C52   A    
C32   H6    S    
C30   H38   S    
C30   C32   S    
C12   H5    S    
C44   N4    S    
C7    H29   S    
C49   C53   A    
C32   H3    S    
C24   H31   S    
Cu2   O5    S    
C10   C11   A    
C16   O8    A    
C41   H17   S    
C20   C21   A    
C35   H9    S    
C31   C36   S    
C3    C22   A    
Cu2   N3    S    
C13   O2    S    
C17   C54   A    
C1    C36   S    
C1    O5    A    
