data_mof_unit_19600.cif
_audit_creation_date              2012-10-26T19:13:23-0400
_audit_creation_method            fapswitch 2.2
_symmetry_space_group_name_H-M    P1
_symmetry_Int_Tables_number       1
_space_group_crystal_system       triclinic
_cell_length_a                    13.559016
_cell_length_b                    13.937013
_cell_length_c                    15.064567
_cell_angle_alpha                 90.961989
_cell_angle_beta                  91.749822
_cell_angle_gamma                 74.101477
_cell_volume                      2736.50816829

loop_
_atom_site_label
_atom_site_type_symbol
_atom_type_description
_atom_site_fract_x
_atom_site_fract_y
_atom_site_fract_z
_atom_type_partial_charge
C1    C     C_R   0.499936 0.500719 0.670170 0.566656
C2    C     C_R   0.810428 0.421294 0.512517 -0.045890
C3    C     C_R   0.532532 0.576946 0.907859 0.293669
C4    C     C_R   0.699022 0.447735 0.499199 0.533968
C5    C     C_R   0.529749 0.577158 0.814904 -0.114481
C6    C     C_R   0.499626 0.502224 0.767074 -0.016350
C7    C     C_R   0.469317 0.428434 0.812360 -0.132003
C8    C     C_R   0.467304 0.430512 0.904393 -0.159894
C9    C     C_R   0.497015 0.505386 0.952127 0.079858
C10   C     C_R   0.423631 0.580065 0.095066 0.295734
C11   C     C_R   0.419195 0.573082 0.187647 0.218056
C12   C     C_R   0.965345 0.477071 0.529271 -0.001761
C13   C     C_R   0.494952 0.499281 0.233581 -0.013170
C14   C     C_R   0.566957 0.425598 0.186562 0.222707
C15   C     C_R   0.564016 0.427216 0.094327 -0.173947
C16   C     C_R   0.498731 0.499646 0.330195 0.566884
C17   C     C_R   0.494897 0.505038 0.048826 -0.025483
C18   C     C_R   0.414549 0.912110 0.462810 -0.145978
C19   C     C_R   0.420267 0.809767 0.459664 0.043819
C20   C     C_R   0.575172 0.773055 0.544880 0.116984
C21   C     C_R   0.575954 0.873565 0.543270 -0.108253
C22   C     C_R   0.494786 0.945595 0.502738 0.026072
C23   C     C_R   0.866951 0.489077 0.490652 -0.008539
C24   C     C_R   0.527352 0.100961 0.577426 0.217902
C25   C     C_R   0.539987 0.198230 0.571125 0.125161
C26   C     C_R   0.465253 0.214808 0.426440 0.076785
C27   C     C_R   0.468110 0.112202 0.424697 -0.089144
C28   C     C_R   0.300486 0.552462 0.500650 0.549434
C29   C     C_R   0.494830 0.054517 0.502019 -0.013930
C30   C     C_R   0.029753 0.705371 0.451427 0.243653
C31   C     C_R   0.187464 0.581457 0.496364 -0.046693
C32   C     C_R   0.856083 0.338110 0.565169 -0.123263
C33   C     C_R   0.952671 0.327414 0.605145 0.242987
C34   C     C_R   0.024088 0.541141 0.502804 -0.014512
C35   C     C_R   0.002303 0.401221 0.592972 -0.048363
C36   C     C_3   0.364066 0.748173 0.064420 0.071101
C37   C     C_3   0.260485 0.822381 0.083033 -0.273713
C38   C     C_3   0.270392 0.928415 0.094113 -0.484076
C39   C     C_3   0.268615 0.593127 0.260979 0.009768
C40   C     C_3   0.185104 0.596132 0.189338 -0.258623
C41   C     C_3   0.103619 0.549285 0.222297 -0.495656
C42   C     C_3   0.721804 0.380848 0.261898 0.026657
C43   C     C_3   0.809008 0.352260 0.196109 -0.273912
C44   C     C_3   0.902681 0.382310 0.231814 -0.497793
C45   C     C_R   0.974731 0.633011 0.460485 0.009203
C46   C     C_1   0.652025 0.706278 0.599460 0.247868
C47   C     C_1   0.822542 0.729098 0.368966 0.240285
C48   C     C_3   0.464313 0.050213 0.702460 0.005210
C49   C     C_3   0.427024 0.145991 0.757918 -0.271940
C50   C     C_3   0.336660 0.142530 0.814506 -0.472983
C51   C     C_1   0.603549 0.228244 0.638469 0.286902
C52   C     C_1   0.422546 0.270712 0.347753 0.264614
C53   C     C_1   0.448016 0.065842 0.341413 0.194811
C54   C     C_3   0.026650 0.835499 0.355292 0.016956
C55   C     C_3   0.067955 0.923055 0.385505 -0.271609
C56   C     C_R   0.875011 0.645105 0.423432 -0.007194
C57   C     C_3   0.134245 0.949679 0.314971 -0.492461
C58   C     C_3   0.205083 0.357674 0.443659 0.038269
C59   C     C_3   0.120065 0.311739 0.411146 -0.303063
C60   C     C_3   0.154594 0.241112 0.332582 -0.487377
C61   C     C_3   0.013755 0.156697 0.620634 -0.001572
C62   C     C_3   0.958588 0.091562 0.668905 -0.260678
C63   C     C_3   0.975497 0.989334 0.624389 -0.463250
C64   C     C_3   0.668215 0.640101 0.947423 -0.000277
C65   C     C_3   0.731614 0.562999 0.013081 -0.270202
C66   C     C_3   0.844579 0.561613 0.014279 -0.477614
C67   C     C_R   0.826988 0.569361 0.432333 -0.136497
C68   C     C_R   0.132002 0.510820 0.508346 0.231728
C69   C     C_R   0.134450 0.679845 0.475555 -0.188454
Cu1   Cu    Cu3+1 0.500000 0.403570 0.500010 0.987039
Cu2   Cu    Cu3+1 0.500000 0.596430 0.499990 0.965546
H1    H     H_    0.176224 0.735369 0.471248 0.134294
H2    H     H_    0.070809 0.397167 0.633022 0.188130
H3    H     H_    0.756929 0.575088 0.393884 0.130627
H4    H     H_    0.394234 0.772024 0.003332 0.182273
H5    H     H_    0.419169 0.751953 0.120219 0.157021
H6    H     H_    0.205457 0.820389 0.027264 0.169050
H7    H     H_    0.229493 0.801285 0.144819 0.190668
H8    H     H_    0.322736 0.932562 0.151316 0.188317
H9    H     H_    0.193904 0.980400 0.106779 0.147163
H10   H     H_    0.300524 0.952176 0.032908 0.151579
H11   H     H_    0.232184 0.634801 0.319834 0.137831
H12   H     H_    0.552243 0.635074 0.780397 0.136847
H13   H     H_    0.302726 0.514971 0.283124 0.136536
H14   H     H_    0.147615 0.674660 0.170667 0.162444
H15   H     H_    0.219997 0.554594 0.129369 0.195582
H16   H     H_    0.138636 0.469813 0.239422 0.150735
H17   H     H_    0.043874 0.553053 0.169390 0.150346
H18   H     H_    0.066446 0.590019 0.281727 0.145889
H19   H     H_    0.749016 0.341942 0.325476 0.160641
H20   H     H_    0.702831 0.462481 0.277143 0.099040
H21   H     H_    0.830347 0.270278 0.184391 0.178894
H22   H     H_    0.783580 0.389929 0.131858 0.154404
H23   H     H_    0.445432 0.370173 0.776640 0.138328
H24   H     H_    0.884223 0.464548 0.240952 0.149705
H25   H     H_    0.966254 0.358261 0.184585 0.150846
H26   H     H_    0.927687 0.345592 0.296454 0.147145
H27   H     H_    0.484324 0.985464 0.748018 0.159814
H28   H     H_    0.401023 0.039609 0.657626 0.122780
H29   H     H_    0.490815 0.155909 0.802005 0.183534
H30   H     H_    0.402298 0.211323 0.713247 0.158800
H31   H     H_    0.271335 0.134403 0.771491 0.160286
H32   H     H_    0.311401 0.212916 0.853483 0.156565
H33   H     H_    0.359444 0.079044 0.861346 0.148292
H34   H     H_    0.442059 0.374024 0.938597 0.123420
H35   H     H_    0.967447 0.862321 0.302050 0.167113
H36   H     H_    0.088121 0.775776 0.323892 0.108372
H37   H     H_    0.002509 0.989178 0.399062 0.162844
H38   H     H_    0.114560 0.904295 0.447882 0.156448
H39   H     H_    0.202135 0.885580 0.302585 0.161611
H40   H     H_    0.161667 0.014048 0.338396 0.145557
H41   H     H_    0.089110 0.970172 0.252012 0.148846
H42   H     H_    0.272892 0.294868 0.458627 0.167283
H43   H     H_    0.224719 0.402601 0.389762 0.134710
H44   H     H_    0.099073 0.268911 0.465486 0.170677
H45   H     H_    0.617715 0.368952 0.057980 0.137657
H46   H     H_    0.052325 0.372055 0.389642 0.158081
H47   H     H_    0.173957 0.282078 0.276016 0.168110
H48   H     H_    0.091830 0.208271 0.310852 0.144402
H49   H     H_    0.222688 0.179457 0.351970 0.154730
H50   H     H_    0.097679 0.120486 0.624616 0.141704
H51   H     H_    0.991127 0.159832 0.548511 0.105291
H52   H     H_    0.987594 0.081570 0.738905 0.177789
H53   H     H_    0.874977 0.129119 0.669166 0.189625
H54   H     H_    0.941968 0.997476 0.555850 0.172718
H55   H     H_    0.937285 0.942993 0.662702 0.170847
H56   H     H_    0.347665 0.964527 0.433752 0.098988
H57   H     H_    0.058726 0.950600 0.622029 0.144268
H58   H     H_    0.681479 0.713693 0.963666 0.162288
H59   H     H_    0.695381 0.621130 0.878588 0.134751
H60   H     H_    0.701378 0.580770 0.080958 0.175147
H61   H     H_    0.725133 0.487709 0.993584 0.152558
H62   H     H_    0.876512 0.543472 0.947101 0.162993
H63   H     H_    0.888585 0.504063 0.061277 0.145930
H64   H     H_    0.853672 0.635275 0.036196 0.152583
H65   H     H_    0.359276 0.785582 0.426438 0.136245
H66   H     H_    0.639583 0.895237 0.574755 0.158344
H67   H     H_    0.813395 0.285968 0.581888 0.153235
N1    N     N_R   0.500000 0.741310 0.499980 -0.238833
N2    N     N_R   0.500060 0.258650 0.499980 -0.290029
N3    N     N_1   0.713946 0.653545 0.644050 -0.311577
N4    N     N_1   0.779962 0.796115 0.325338 -0.287581
N5    N     N_1   0.655415 0.250803 0.692793 -0.323229
N6    N     N_1   0.387335 0.312396 0.283485 -0.333357
N7    N     N_1   0.432120 0.029178 0.274965 -0.309648
O1    O     O_R   0.499990 0.418570 0.628550 -0.499486
O2    O     O_3   0.341909 0.640698 0.232342 -0.574981
O3    O     O_3   0.637010 0.348330 0.229943 -0.537018
O4    O     O_3   0.554115 0.049914 0.656621 -0.590805
O5    O     O_3   0.978920 0.802587 0.426938 -0.554761
O6    O     O_3   0.182623 0.411621 0.524514 -0.574605
O7    O     O_3   0.995154 0.250911 0.663934 -0.564745
O8    O     O_3   0.562076 0.650573 0.955956 -0.597254
O9    O     O_R   0.499990 0.581440 0.628540 -0.501273
O10   O     O_R   0.650980 0.378820 0.499990 -0.507914
O11   O     O_R   0.650980 0.541690 0.499970 -0.495530
O12   O     O_R   0.500010 0.418560 0.371460 -0.470329
O13   O     O_R   0.500010 0.581430 0.371450 -0.492950
O14   O     O_R   0.349020 0.458310 0.500030 -0.472990
O15   O     O_R   0.349020 0.621180 0.500010 -0.528519
O16   O     O_3   0.350162 0.652049 0.048500 -0.557847

loop_
_geom_bond_atom_site_label_1
_geom_bond_atom_site_label_2
_ccdc_geom_bond_type
C41   H18   S    
C50   H33   S    
C22   C29   S    
C27   C29   A    
C30   C45   A    
C21   H66   S    
C42   O3    S    
C8    H34   S    
C30   C69   A    
C62   H53   S    
C7    C8    A    
C54   O5    S    
Cu1   N2    S    
Cu2   O15   S    
C12   C23   A    
C26   C27   A    
C52   N6    T    
C54   H36   S    
C3    C9    A    
C20   N1    A    
C61   H50   S    
C36   C37   S    
C39   H13   S    
C18   C19   A    
C26   N2    A    
C49   H30   S    
C5    C6    A    
C5    H12   S    
C30   O5    S    
C57   H41   S    
C38   H8    S    
C10   C17   A    
C23   C67   A    
C14   O3    S    
C28   O15   A    
C60   H48   S    
C2    C32   A    
Cu1   O14   S    
C40   H15   S    
Cu2   O13   S    
C3    O8    S    
C24   C29   A    
C36   H5    S    
C33   C35   A    
C66   H63   S    
C35   H2    S    
C45   C56   A    
C8    C9    A    
C41   H17   S    
C58   H42   S    
C50   H32   S    
C60   H47   S    
Cu1   Cu2   S    
Cu1   O1    S    
C13   C14   A    
C63   H57   S    
C59   C60   S    
C59   H46   S    
C21   C22   A    
C55   H38   S    
C1    O1    A    
C1    O9    A    
C62   H52   S    
C65   H60   S    
C46   N3    T    
C31   C68   A    
C41   H16   S    
C54   H35   S    
C16   O13   A    
C1    C6    S    
C25   N2    A    
C24   C25   A    
C24   O4    S    
C34   C68   A    
C39   C40   S    
C67   H3    S    
Cu2   N1    S    
C58   C59   S    
Cu2   O9    S    
C37   H6    S    
C64   O8    S    
C28   O14   A    
Cu1   O10   S    
C61   H51   S    
C42   H19   S    
C40   H14   S    
C69   H1    S    
C2    C4    S    
C43   C44   S    
C25   C51   S    
C32   H67   S    
C37   C38   S    
C44   H25   S    
C36   H4    S    
C26   C52   S    
C18   H56   S    
C66   H62   S    
C44   H26   S    
C57   H39   S    
C47   N4    T    
C62   C63   S    
C53   N7    T    
C34   C45   A    
C64   H58   S    
C12   C35   A    
C63   H54   S    
C9    C17   S    
C40   C41   S    
C4    O11   A    
C64   H59   S    
C50   H31   S    
C10   O16   S    
C55   C57   S    
C38   H10   S    
C36   O16   S    
C49   C50   S    
C42   C43   S    
C12   C34   A    
C65   H61   S    
C58   O6    S    
C48   H28   S    
C7    H23   S    
C54   C55   S    
C48   C49   S    
C16   O12   A    
C18   C22   A    
C28   C31   S    
C39   H11   S    
C3    C5    A    
C33   O7    S    
C27   C53   S    
C15   C17   A    
C6    C7    A    
C51   N5    T    
C56   C67   A    
C48   H27   S    
C37   H7    S    
C15   H45   S    
C43   H21   S    
C55   H37   S    
Cu1   O12   S    
C64   C65   S    
C19   H65   S    
C68   O6    S    
C32   C33   A    
C49   H29   S    
C11   C13   A    
C11   O2    S    
C57   H40   S    
C38   H9    S    
Cu2   O11   S    
C43   H22   S    
C60   H49   S    
C61   C62   S    
C61   O7    S    
C20   C46   S    
C63   H55   S    
C10   C11   A    
C66   H64   S    
C31   C69   A    
C4    O10   A    
C20   C21   A    
C59   H44   S    
C65   C66   S    
C13   C16   S    
C39   O2    S    
C2    C23   A    
C58   H43   S    
C14   C15   A    
C48   O4    S    
C19   N1    A    
C44   H24   S    
C42   H20   S    
C47   C56   S    
