data_mof_unit_26075.cif
_audit_creation_date              2013-03-05T15:58:06-0500
_audit_creation_method            fapswitch 2.2
_symmetry_space_group_name_H-M    P1
_symmetry_Int_Tables_number       1
_space_group_crystal_system       triclinic
_cell_length_a                    15.076933
_cell_length_b                    13.659747
_cell_length_c                    10.797581
_cell_angle_alpha                 89.650779
_cell_angle_beta                  90.195381
_cell_angle_gamma                 89.787761
_cell_volume                      2223.66072649

loop_
_atom_site_label
_atom_site_type_symbol
_atom_site_description
_atom_site_fract_x
_atom_site_fract_y
_atom_site_fract_z
_atom_type_partial_charge
O1    O     O_R   0.370250 0.582280 0.500040 -0.597752
O2    O     O_R   0.370250 0.417720 0.500040 -0.612049
C1    C     C_R   0.328475 0.500088 0.501479 0.801622
O3    O     O_R   0.499970 0.582270 0.317700 -0.589613
O4    O     O_R   0.499970 0.417730 0.317700 -0.615340
C2    C     C_R   0.491027 0.500484 0.260727 0.840953
Cu1   Cu    Cu3+1 0.499990 0.597420 0.500010 0.922122
Cu2   Cu    Cu3+1 0.499990 0.402580 0.500010 0.913939
O5    O     O_R   0.629730 0.582260 0.499980 -0.586898
O6    O     O_R   0.629730 0.417740 0.499980 -0.587117
O7    O     O_R   0.500000 0.582270 0.682320 -0.580157
O8    O     O_R   0.500000 0.417730 0.682320 -0.588210
C3    C     C_R   0.671549 0.499827 0.500108 0.824074
C4    C     C_R   0.495770 0.499975 0.740657 0.815552
C5    C     C_3   0.445775 0.602161 0.075806 0.358864
C6    C     C_3   0.423260 0.416777 0.076089 0.327688
H1    H     H_    0.491426 0.658840 0.113970 0.083166
H2    H     H_    0.448694 0.348190 0.120906 0.080919
C7    C     C_3   0.447847 0.604807 0.928906 0.281761
C8    C     C_3   0.432811 0.406664 0.931010 0.301465
H3    H     H_    0.623805 0.547791 0.110483 0.193743
H4    H     H_    0.608543 0.417952 0.107921 0.201465
H5    H     H_    0.627467 0.550153 0.898842 0.189940
H6    H     H_    0.617673 0.424866 0.896495 0.196635
C9    C     C_3   0.580418 0.488703 0.074048 -0.588580
C10   C     C_3   0.484081 0.501969 0.123273 -0.082027
C11   C     C_3   0.487850 0.500756 0.879487 0.042885
C12   C     C_3   0.583397 0.490954 0.931933 -0.477704
C13   C     C_R   0.814657 0.586863 0.481430 -0.251240
C14   C     C_R   0.768339 0.499425 0.501125 -0.076957
C15   C     C_R   0.814677 0.411748 0.522638 -0.239137
C16   C     C_R   0.907146 0.410945 0.524956 0.059096
C17   C     C_R   0.953647 0.498748 0.504526 0.057885
C18   C     C_R   0.907033 0.587130 0.482729 0.124698
C19   C     C_R   0.953410 0.323754 0.548227 -0.215775
C20   C     C_R   0.046345 0.322077 0.550782 0.177967
C21   C     C_R   0.093584 0.409909 0.527874 0.092429
C22   C     C_R   0.046646 0.498395 0.505826 0.018199
C23   C     C_R   0.092590 0.587016 0.485252 0.124479
C24   C     C_R   0.045729 0.674319 0.463983 -0.213840
C25   C     C_R   0.953422 0.674370 0.462669 -0.217770
C26   C     C_R   0.186456 0.412051 0.526279 -0.269340
C27   C     C_R   0.231771 0.499889 0.504610 -0.086668
C28   C     C_R   0.184773 0.587148 0.485810 -0.233891
H7    H     H_    0.778918 0.654711 0.464460 0.148323
H8    H     H_    0.778832 0.344176 0.538640 0.153371
H9    H     H_    0.916792 0.256811 0.565010 0.144494
H10   H     H_    0.224290 0.345637 0.541904 0.169291
H11   H     H_    0.219775 0.655254 0.470539 0.145439
H12   H     H_    0.080532 0.742519 0.448061 0.141430
H13   H     H_    0.918305 0.742572 0.445895 0.140213
C29   C     C_R   0.438635 0.793099 0.568889 -0.019223
C30   C     C_R   0.438436 0.206730 0.568561 -0.019855
N1    N     N_R   0.499930 0.743810 0.499950 -0.187733
N2    N     N_R   0.499930 0.256190 0.499950 -0.185003
C31   C     C_R   0.561959 0.793296 0.432370 -0.021188
C32   C     C_R   0.561006 0.206877 0.430740 0.000605
C33   C     C_R   0.563211 0.896405 0.430425 0.006122
C34   C     C_R   0.562592 0.103750 0.429353 -0.003348
C35   C     C_R   0.500352 0.948132 0.500851 0.090874
C36   C     C_R   0.500023 0.051842 0.500289 0.087104
C37   C     C_R   0.437637 0.896207 0.571491 -0.006583
C38   C     C_R   0.437096 0.103598 0.570558 0.000289
C39   C     C_R   0.625367 0.948741 0.359750 -0.209873
C40   C     C_R   0.625041 0.051565 0.359179 -0.208680
C41   C     C_R   0.374754 0.051251 0.640970 -0.206862
C42   C     C_R   0.375037 0.948386 0.641449 -0.215381
H14   H     H_    0.390554 0.751963 0.621940 0.134463
H15   H     H_    0.390628 0.247708 0.622156 0.128961
H16   H     H_    0.609608 0.752318 0.378489 0.124128
H17   H     H_    0.608460 0.248015 0.376541 0.127581
H18   H     H_    0.674168 0.910182 0.304884 0.132986
H19   H     H_    0.673653 0.090244 0.303972 0.135375
H20   H     H_    0.325806 0.089841 0.695574 0.136381
H21   H     H_    0.326209 0.909663 0.696243 0.135736
C43   C     C_3   0.092995 0.226611 0.579759 -0.903107
H22   H     H_    0.045316 0.166246 0.596777 0.233741
H23   H     H_    0.135713 0.204960 0.501053 0.233831
H24   H     H_    0.134375 0.234725 0.664335 0.229805
O9    O     O_3   0.359809 0.617248 0.127355 -0.569712
C44   C     C_3   0.334174 0.717209 0.131541 0.030323
H25   H     H_    0.261206 0.720149 0.117184 0.173603
H26   H     H_    0.363654 0.762826 0.057528 0.127447
C45   C     C_3   0.355819 0.762105 0.256969 -0.319176
H27   H     H_    0.329676 0.714760 0.331967 0.246332
H28   H     H_    0.428732 0.767510 0.266863 0.222323
C46   C     C_3   0.315419 0.864334 0.268195 -0.945461
H29   H     H_    0.342659 0.913710 0.195679 0.258725
H30   H     H_    0.331346 0.895291 0.360189 0.270881
H31   H     H_    0.242114 0.861005 0.258590 0.251731
O10   O     O_3   0.333055 0.434437 0.109185 -0.579893
C47   C     C_3   0.301071 0.369773 0.201711 0.080104
H32   H     H_    0.245852 0.407677 0.249772 0.181909
H33   H     H_    0.351247 0.352099 0.273847 0.161947
C48   C     C_3   0.265143 0.275642 0.144462 -0.393205
H34   H     H_    0.214572 0.294319 0.072932 0.232295
H35   H     H_    0.319974 0.234654 0.099796 0.206991
C49   C     C_3   0.222829 0.210286 0.242741 -0.911344
H36   H     H_    0.271836 0.191462 0.316323 0.258629
H37   H     H_    0.199337 0.141526 0.199458 0.257850
H38   H     H_    0.165165 0.248275 0.284793 0.260826
C50   C     C_3   0.354585 0.626703 0.870262 -0.797373
H39   H     H_    0.342014 0.706465 0.859229 0.203923
H40   H     H_    0.347357 0.595439 0.776396 0.211395
H41   H     H_    0.299040 0.599158 0.926759 0.256334
C51   C     C_3   0.340879 0.394400 0.865365 -0.778988
H42   H     H_    0.346438 0.398068 0.763252 0.210338
H43   H     H_    0.311248 0.322141 0.887596 0.214762
H44   H     H_    0.290516 0.447995 0.893629 0.249033
C52   C     C_3   0.507123 0.696486 0.895790 -0.873236
H45   H     H_    0.575759 0.690800 0.931517 0.209777
H46   H     H_    0.508908 0.717253 0.797159 0.276124
H47   H     H_    0.480628 0.763365 0.940071 0.196174
C53   C     C_3   0.481100 0.305644 0.909766 -0.889688
H48   H     H_    0.544915 0.299221 0.960308 0.214112
H49   H     H_    0.440169 0.244830 0.947179 0.207372
H50   H     H_    0.492123 0.286683 0.811998 0.271628

loop_
_geom_bond_atom_site_label_1
_geom_bond_atom_site_label_2
_geom_bond_distance
_ccdc_geom_bond_type
C28   H11   1.083295 S    
C46   H29   1.111056 S    
C19   C20   1.401450 A    
C43   H24   1.110561 S    
C30   H15   1.082392 S    
C53   H48   1.107438 S    
C48   C49   1.525576 S    
Cu1   Cu2   2.661464 S    
C2    C10   1.487518 S    
C9    C12   1.535431 S    
C5    C7    1.586778 S    
C1    C27   1.458521 S    
C21   C22   1.416834 A    
C37   C42   1.405643 A    
C20   C21   1.418377 A    
C43   H23   1.109001 S    
C14   C15   1.402036 A    
O7    C4    1.287123 A    
C32   C34   1.408974 A    
C51   H42   1.106886 S    
C33   C35   1.407902 A    
C41   H20   1.083510 S    
C40   H19   1.083358 S    
C50   H41   1.103662 S    
C35   C37   1.407913 A    
C21   C26   1.400809 A    
C36   C38   1.407875 A    
O5    C3    1.288471 A    
C52   H45   1.105454 S    
C20   C43   1.509916 S    
C48   H34   1.111347 S    
C15   H8    1.084566 S    
C45   C46   1.527075 S    
C4    C11   1.504278 S    
C7    C11   1.635144 S    
C29   H14   1.082257 S    
C6    C8    1.580441 S    
C41   C42   1.405077 A    
C38   C41   1.405701 A    
C19   H9    1.084537 S    
C33   C39   1.405286 A    
C18   C25   1.400084 A    
O3    Cu1   1.980608 S    
Cu2   N2    1.999658 S    
C44   H26   1.105835 S    
C29   N1    1.366607 A    
C44   H25   1.111012 S    
C8    C51   1.564631 S    
C30   N2    1.366780 A    
C6    C10   1.570537 S    
C22   C23   1.413705 A    
N1    C31   1.366508 A    
C34   C36   1.408041 A    
C16   C19   1.398989 A    
C3    C14   1.459288 S    
C43   H22   1.110797 S    
O3    C2    1.285927 A    
C23   C24   1.401203 A    
C5    C10   1.566169 S    
C9    C10   1.558692 S    
C13   C18   1.392791 A    
H4    C9    1.113185 S    
C47   C48   1.530156 S    
C32   H17   1.082573 S    
C13   H7    1.084622 S    
C35   C36   1.416620 A    
O1    C1    1.289391 A    
Cu1   O7    1.978100 S    
C27   C28   1.397797 A    
C13   C14   1.401265 A    
C15   C16   1.394285 A    
Cu2   O8    1.980609 S    
C47   H33   1.108867 S    
C17   C18   1.412783 A    
C26   H10   1.081892 S    
H5    C12   1.106845 S    
C45   H27   1.107721 S    
C50   H40   1.107398 S    
C52   H47   1.107558 S    
Cu2   O6    1.967777 S    
C24   C25   1.391719 A    
O8    C4    1.292802 A    
C49   H37   1.110292 S    
C46   H30   1.107872 S    
C42   H21   1.083421 S    
C26   C27   1.401741 A    
O10   C47   1.416527 S    
C44   C45   1.524921 S    
C7    C52   1.581094 S    
C5    H1    1.117513 S    
H3    C9    1.113611 S    
O1    Cu1   1.967746 S    
O2    Cu2   1.966223 S    
H6    C12   1.109292 S    
C45   H28   1.106899 S    
O9    C44   1.418745 S    
O6    C3    1.288438 A    
O4    Cu2   1.978099 S    
C53   H49   1.111539 S    
C48   H35   1.109987 S    
C23   C28   1.389836 A    
C8    C11   1.628609 S    
C49   H38   1.110638 S    
C31   H16   1.082471 S    
C17   C22   1.402160 A    
C16   C17   1.408098 A    
N2    C32   1.366158 A    
O2    C1    1.287591 A    
C29   C37   1.408919 A    
C34   C40   1.405424 A    
C8    C53   1.576188 S    
C30   C38   1.409009 A    
O4    C2    1.290057 A    
C51   H43   1.110209 S    
C24   H12   1.084003 S    
C39   C40   1.404517 A    
C47   H32   1.110642 S    
C7    C50   1.567177 S    
C31   C33   1.408661 A    
C39   H18   1.083351 S    
C50   H39   1.110821 S    
C52   H46   1.100883 S    
C5    O9    1.427060 S    
C53   H50   1.101513 S    
Cu1   O5    1.966252 S    
C6    O10   1.427397 S    
C6    H2    1.117809 S    
C49   H36   1.111477 S    
C46   H31   1.110843 S    
C11   C12   1.551099 S    
Cu1   N1    1.999643 S    
C25   H13   1.083818 S    
C51   H44   1.098103 S    
