data_mof_unit_7468.cif
_audit_creation_date              2012-12-10T19:13:31-0500
_audit_creation_method            fapswitch 2.2
_symmetry_space_group_name_H-M    P1
_symmetry_Int_Tables_number       1
_space_group_crystal_system       triclinic
_cell_length_a                    9.800032
_cell_length_b                    10.655034
_cell_length_c                    16.899628
_cell_angle_alpha                 89.830197
_cell_angle_beta                  83.947552
_cell_angle_gamma                 89.397718
_cell_volume                      1754.71710164

loop_
_atom_site_label
_atom_site_type_symbol
_atom_type_description
_atom_site_fract_x
_atom_site_fract_y
_atom_site_fract_z
_atom_type_partial_charge
C1    C     C_R   0.498828 0.741826 0.502501 0.862355
C2    C     C_R   0.531002 0.534789 0.262827 -0.038224
C3    C     C_3   0.515597 0.928083 0.415659 0.014154
C4    C     C_R   0.479485 0.497447 0.652776 0.855296
C5    C     C_3   0.520370 0.073618 0.417254 -0.076147
C6    C     C_3   0.361570 0.927839 0.549247 -0.439150
C7    C     C_3   0.619751 0.924709 0.546265 -0.457919
C8    C     C_3   0.497140 0.878072 0.502955 0.095601
C9    C     C_3   0.498039 0.121282 0.505941 0.073456
C10   C     C_3   0.353421 0.070961 0.541231 -0.156234
C11   C     C_3   0.613071 0.068014 0.555421 0.020070
C12   C     C_R   0.346171 0.533927 0.783148 -0.198181
C13   C     C_3   0.906146 0.605223 0.550115 -0.233506
C14   C     C_3   0.067827 0.613473 0.544812 0.134996
C15   C     C_3   0.919045 0.380885 0.534964 0.082386
C16   C     C_R   0.499388 0.258188 0.504129 0.866187
C17   C     C_3   0.936141 0.515771 0.418224 0.258530
C18   C     C_3   0.079656 0.385334 0.535499 -0.233491
C19   C     C_3   0.098631 0.510424 0.419222 -0.339945
C20   C     C_R   0.519913 0.506705 0.347409 0.864056
C21   C     C_R   0.463223 0.485074 0.738711 -0.036790
C22   C     C_R   0.563524 0.421186 0.776674 -0.253698
C23   C     C_R   0.421021 0.608429 0.150093 -0.129963
C24   C     C_R   0.550604 0.410704 0.858918 0.041466
C25   C     C_R   0.436179 0.465897 0.903382 0.090652
C26   C     C_R   0.332661 0.524334 0.865377 -0.166572
C27   C     C_3   0.405341 0.882779 0.363710 -0.956812
C28   C     C_3   0.650977 0.121297 0.368092 -0.915755
C29   C     C_3   0.595358 0.104289 0.644459 -0.907188
C30   C     C_1   0.296603 0.128880 0.617300 0.166322
C31   C     C_3   0.112033 0.635983 0.627942 -0.895348
C32   C     C_3   0.854204 0.342339 0.617874 -0.900031
C33   C     C_1   0.900849 0.412865 0.365563 0.177685
C34   C     C_R   0.417198 0.588391 0.231009 -0.209241
C35   C     C_3   0.899182 0.641263 0.377741 -0.911026
C36   C     C_1   0.333431 0.410681 0.040009 0.197381
C37   C     C_1   0.656937 0.345972 0.896600 0.141910
C38   C     C_R   0.652731 0.511766 0.213556 -0.206840
C39   C     C_R   0.655405 0.529225 0.131854 -0.149301
C40   C     C_R   0.536965 0.571325 0.100257 0.189005
C41   C     C_2   0.433512 0.480689 0.988734 -0.037175
C42   C     C_2   0.526876 0.556826 0.015806 -0.293165
H1    H     H_    0.651841 0.379749 0.742659 0.153489
H2    H     H_    0.323712 0.611893 0.268235 0.147883
H3    H     H_    0.358857 0.898427 0.612754 0.168511
H4    H     H_    0.858797 0.597214 0.612407 0.177380
H5    H     H_    0.863714 0.695727 0.530746 0.141248
H6    H     H_    0.097736 0.700724 0.511059 0.131391
H7    H     H_    0.111627 0.371808 0.596046 0.193717
H8    H     H_    0.742916 0.475056 0.237291 0.176949
H9    H     H_    0.148409 0.593564 0.388908 0.169167
H10   H     H_    0.145624 0.429302 0.384346 0.163252
H11   H     H_    0.896141 0.300592 0.496743 0.140030
H12   H     H_    0.745999 0.501984 0.093119 0.146305
H13   H     H_    0.125656 0.303885 0.500920 0.130689
H14   H     H_    0.604624 0.601038 0.974483 0.158294
H15   H     H_    0.245186 0.568025 0.899592 0.140995
H16   H     H_    0.330226 0.644016 0.125709 0.135589
H17   H     H_    0.268084 0.583849 0.754834 0.149690
H18   H     H_    0.301040 0.913921 0.388224 0.245089
H19   H     H_    0.426479 0.921406 0.302570 0.254386
H20   H     H_    0.407507 0.779156 0.358516 0.251052
H21   H     H_    0.659920 0.079196 0.307674 0.253102
H22   H     H_    0.644038 0.224239 0.359865 0.272815
H23   H     H_    0.615148 0.889797 0.387069 0.169327
H24   H     H_    0.744926 0.096496 0.396179 0.243656
H25   H     H_    0.518866 0.044297 0.679288 0.263723
H26   H     H_    0.694513 0.091587 0.669973 0.238066
H27   H     H_    0.561582 0.203302 0.653024 0.234150
H28   H     H_    0.103155 0.550026 0.665011 0.247471
H29   H     H_    0.216991 0.673998 0.623878 0.269371
H30   H     H_    0.045421 0.709418 0.659097 0.202805
H31   H     H_    0.870117 0.412170 0.664322 0.239494
H32   H     H_    0.745087 0.323201 0.616522 0.286511
H33   H     H_    0.901464 0.252637 0.635553 0.216907
H34   H     H_    0.434141 0.112499 0.386222 0.179508
H35   H     H_    0.934873 0.639348 0.313036 0.221514
H36   H     H_    0.788457 0.662283 0.384258 0.285699
H37   H     H_    0.950274 0.722448 0.402620 0.198990
H38   H     H_    0.269296 0.886981 0.526543 0.177321
H39   H     H_    0.277339 0.092915 0.498507 0.122396
H40   H     H_    0.620365 0.876619 0.604896 0.186747
H41   H     H_    0.718783 0.899007 0.511227 0.155346
H42   H     H_    0.714122 0.105896 0.530820 0.172036
N1    N     N_3   0.861190 0.500250 0.501720 -0.065118
N2    N     N_3   0.138550 0.503270 0.501080 -0.063629
N3    N     N_1   0.251879 0.174324 0.676696 -0.215904
N4    N     N_1   0.877324 0.331407 0.324173 -0.248549
N5    N     N_1   0.253523 0.354735 0.080900 -0.205515
N6    N     N_1   0.742082 0.294223 0.926799 -0.200306
O1    O     O_R   0.383960 0.685090 0.500020 -0.627591
O2    O     O_R   0.616040 0.685320 0.499960 -0.648997
O3    O     O_R   0.370240 0.499890 0.615830 -0.611845
O4    O     O_R   0.602330 0.500120 0.615770 -0.626978
O5    O     O_R   0.383960 0.314680 0.500040 -0.634324
O6    O     O_R   0.616040 0.314910 0.499980 -0.626380
O7    O     O_R   0.397670 0.499880 0.384230 -0.628582
O8    O     O_R   0.629760 0.500110 0.384170 -0.617373
Zn1   Zn    Zn3+2 0.345040 0.499850 0.500040 0.907359
Zn2   Zn    Zn3+2 0.654960 0.500150 0.499960 0.911869

loop_
_geom_bond_atom_site_label_1
_geom_bond_atom_site_label_2
_ccdc_geom_bond_type
C36   N5    T    
C15   C18   S    
C7    H41   S    
C6    H3    S    
C23   H16   S    
C1    C8    S    
C41   C42   D    
C14   C31   S    
C19   N2    S    
C32   H33   S    
C7    C8    S    
C7    C11   S    
C18   N2    S    
C37   N6    T    
C17   N1    S    
C15   H11   S    
C9    C16   S    
C27   H18   S    
C32   H32   S    
C38   C39   A    
O5    Zn1   S    
C39   H12   S    
C23   C40   A    
C29   H26   S    
C35   H37   S    
C2    C38   A    
C27   H19   S    
C42   H14   S    
C29   H25   S    
C12   H17   S    
C19   H10   S    
C31   H28   S    
C20   O7    A    
C9    C10   S    
O3    Zn1   S    
C15   N1    S    
C2    C34   A    
C31   H29   S    
C1    O1    A    
C13   C14   S    
C36   C41   S    
C3    H23   S    
C17   C33   S    
O7    Zn1   S    
C29   H27   S    
C16   O6    A    
C2    C20   S    
C15   C32   S    
C34   H2    S    
C24   C25   A    
C14   N2    S    
C3    C8    S    
C25   C41   S    
C32   H31   S    
C13   H5    S    
C6    C8    S    
C25   C26   A    
C12   C21   A    
C35   H35   S    
C12   C26   A    
C28   H24   S    
C5    C9    S    
C27   H20   S    
C5    C28   S    
C10   C30   S    
C6    H38   S    
C22   H1    S    
O4    Zn2   S    
C23   C34   A    
C24   C37   S    
N2    Zn1   S    
C9    C11   S    
C18   H13   S    
C4    O4    A    
C28   H22   S    
C31   H30   S    
C1    O2    A    
O8    Zn2   S    
C22   C24   A    
C39   C40   A    
O2    Zn2   S    
C16   O5    A    
C10   H39   S    
C33   N4    T    
C3    C5    S    
C6    C10   S    
C14   H6    S    
C38   H8    S    
C11   H42   S    
C35   H36   S    
C5    H34   S    
C3    C27   S    
N1    Zn2   S    
C4    C21   S    
C13   H4    S    
O6    Zn2   S    
C40   C42   S    
C17   C19   S    
C26   H15   S    
C4    O3    A    
C28   H21   S    
C19   H9    S    
C7    H40   S    
C20   O8    A    
C11   C29   S    
C13   N1    S    
C17   C35   S    
O1    Zn1   S    
C30   N3    T    
C21   C22   A    
C18   H7    S    
