data_mof_unit_41085.cif
_audit_creation_date              2012-12-11T14:29:34-0500
_audit_creation_method            fapswitch 2.2
_symmetry_space_group_name_H-M    P1
_symmetry_Int_Tables_number       1
_space_group_crystal_system       triclinic
_cell_length_a                    6.93998
_cell_length_b                    14.828731
_cell_length_c                    16.246626
_cell_angle_alpha                 90.442913
_cell_angle_beta                  91.262566
_cell_angle_gamma                 89.233528
_cell_volume                      1671.3563776

loop_
_atom_site_label
_atom_site_type_symbol
_atom_type_description
_atom_site_fract_x
_atom_site_fract_y
_atom_site_fract_z
_atom_type_partial_charge
O1    O     O_R   0.494400 0.416610 0.413880 -0.541839
O2    O     O_R   0.823920 0.406790 0.585520 -0.543824
O3    O     O_R   0.994250 0.583390 0.586120 -0.541989
C1    C     C_R   0.658787 0.384628 0.612423 0.778660
O4    O     O_R   0.824110 0.405730 0.414490 -0.549813
O5    O     O_R   0.994440 0.582310 0.413870 -0.525916
C2    C     C_R   0.655001 0.385992 0.384949 0.717150
O6    O     O_R   0.494210 0.417690 0.586130 -0.551315
O7    O     O_3   0.660810 0.557940 0.500000 -0.356422
V1    V     V_3+5 0.935650 0.489250 0.500000 1.501244
O8    O     O_R   0.324160 0.593210 0.414480 -0.512190
C3    C     C_R   0.153189 0.615241 0.386756 0.760371
O9    O     O_R   0.323970 0.594270 0.585510 -0.544025
C4    C     C_R   0.156572 0.612302 0.617063 0.668657
V2    V     V_3+5 0.435660 0.510750 0.500000 1.524564
O10   O     O_3   0.160630 0.442060 0.500000 -0.380203
C5    C     C_R   0.220400 0.563907 0.798014 0.105178
C6    C     C_R   0.244421 0.545048 0.882234 0.368583
C7    C     C_R   0.228537 0.612612 0.940677 -0.184183
C8    C     C_R   0.188238 0.700122 0.917052 -0.199890
C9    C     C_R   0.161250 0.723519 0.833234 0.028852
C10   C     C_R   0.177056 0.654757 0.770913 -0.021383
C11   C     C_R   0.115464 0.814427 0.812825 -0.136047
C12   C     C_R   0.076695 0.838166 0.728988 0.061836
C13   C     C_R   0.095392 0.770590 0.666147 -0.006451
C14   C     C_R   0.146677 0.679725 0.686113 -0.117128
C15   C     C_R   0.018695 0.927413 0.704721 0.120753
C16   C     C_R   0.984267 0.947647 0.621676 -0.134708
C17   C     C_R   0.004252 0.882457 0.560838 0.230800
C18   C     C_R   0.060417 0.795051 0.582781 -0.147762
H1    H     H_    0.247473 0.597243 0.005444 0.175029
H2    H     H_    0.176451 0.749086 0.966386 0.112888
H3    H     H_    0.939138 0.015312 0.604433 0.153995
H4    H     H_    0.075727 0.746564 0.533269 0.119049
C19   C     C_2   0.000141 0.698707 0.268593 0.225435
C20   C     C_2   0.140904 0.691031 0.327952 0.034306
C21   C     C_2   0.982321 0.776367 0.211632 -0.088420
C22   C     C_2   0.131900 0.807945 0.169898 -0.282192
H5    H     H_    0.838161 0.802624 0.198447 0.174142
H6    H     H_    0.274035 0.777621 0.178665 0.184504
C23   C     C_2   0.732718 0.248308 0.811942 0.203910
C24   C     C_2   0.595408 0.185505 0.821675 0.018787
C25   C     C_2   0.708251 0.322995 0.750727 0.210208
C26   C     C_2   0.665622 0.308362 0.669427 0.110412
C27   C     C_2   0.765784 0.220147 0.208689 0.213303
C28   C     C_2   0.617537 0.164568 0.188462 0.071740
C29   C     C_2   0.774995 0.266937 0.289125 0.285762
C30   C     C_2   0.643196 0.332017 0.308155 -0.004324
O11   O     O_R   0.770210 0.079270 0.910680 -0.525138
O12   O     O_R   0.440150 0.091160 0.082270 -0.515144
O13   O     O_R   0.269970 0.914530 0.082860 -0.541403
C31   C     C_R   0.609535 0.110874 0.111830 0.717260
O14   O     O_R   0.440480 0.090100 0.911240 -0.507645
O15   O     O_R   0.270310 0.913460 0.910610 -0.547192
C32   C     C_R   0.605833 0.114176 0.885185 0.762250
O16   O     O_R   0.769870 0.080340 0.082930 -0.559644
O17   O     O_3   0.603660 0.938980 0.996790 -0.387633
V3    V     V_3+5 0.328750 0.007610 0.996740 1.593281
O18   O     O_R   0.940600 0.902510 0.911180 -0.537625
C33   C     C_R   0.108042 0.883240 0.880714 0.768751
O19   O     O_R   0.940270 0.903570 0.082200 -0.548016
C34   C     C_R   0.111650 0.880750 0.108916 0.738145
V4    V     V_3+5 0.828770 0.986010 0.996670 1.511087
O20   O     O_3   0.103730 0.054750 0.996710 -0.345109
N1    N     N_3   0.962718 0.905934 0.476699 -0.604640
H7    H     H_    0.072886 0.947774 0.457494 0.270650
H8    H     H_    0.965378 0.848512 0.438992 0.260718
Br1   Br    Br    0.327888 0.784542 0.348278 -0.536689
Br2   Br    Br    0.946676 0.256578 0.888852 -0.422152
Br3   Br    Br    0.348804 0.197606 0.764459 -0.525493
N2    N     N_3   0.736353 0.414103 0.778941 -0.691493
H9    H     H_    0.647298 0.425840 0.828850 0.293404
H10   H     H_    0.878670 0.420234 0.800159 0.285345
N3    N     N_3   0.677407 0.220276 0.631400 -0.685170
H11   H     H_    0.539598 0.202153 0.610720 0.268170
H12   H     H_    0.731997 0.170729 0.671101 0.241149
N4    N     N_3   0.922035 0.235853 0.154192 -0.604343
H13   H     H_    0.005992 0.177143 0.149233 0.274731
H14   H     H_    0.866254 0.253961 0.096235 0.257562
Br4   Br    Br    0.416136 0.140398 0.265300 -0.504059
N5    N     N_3   0.932160 0.242087 0.343780 -0.609911
H15   H     H_    0.878608 0.228123 0.401916 0.233839
H16   H     H_    0.029463 0.295151 0.348091 0.250969
N6    N     N_3   0.245320 0.488751 0.743439 -0.608232
H17   H     H_    0.119820 0.477826 0.708448 0.239448
H18   H     H_    0.365164 0.499690 0.707620 0.251426
N7    N     N_3   0.492412 0.354365 0.249318 -0.612533
H19   H     H_    0.359633 0.346543 0.277390 0.266131
H20   H     H_    0.505236 0.422407 0.234241 0.263255
Br5   Br    Br    0.301884 0.425643 0.920787 -0.435752
N8    N     N_3   0.988156 0.998530 0.763215 -0.645465
H21   H     H_    0.845420 0.021175 0.756411 0.219793
H22   H     H_    0.077551 0.051889 0.748709 0.276249
Br6   Br    Br    0.804474 0.609028 0.252099 -0.533225

loop_
_geom_bond_atom_site_label_1
_geom_bond_atom_site_label_2
_ccdc_geom_bond_type
C22   H6    S    
N7    H19   S    
O11   V4    S    
C23   C24   D    
O14   C32   A    
C7    C8    A    
C12   C15   A    
C1    O6    A    
C7    H1    S    
N5    H15   S    
O15   C33   A    
N4    H13   S    
C21   C22   D    
N3    H12   S    
C16   C17   A    
C19   C21   S    
N6    H18   S    
O5    C3    A    
V2    O10   S    
C28   C31   S    
C24   Br3   S    
C6    C7    A    
O19   V4    S    
O8    V2    S    
C19   C20   D    
N1    H8    S    
O12   C31   A    
C11   C12   A    
C15   N8    S    
O1    V2    S    
C3    C20   S    
O7    V1    S    
N4    H14   S    
O18   C33   A    
O9    C4    A    
C23   C25   S    
O13   C34   A    
N5    H16   S    
O17   V4    S    
C27   C29   S    
V3    O20   S    
C11   C33   S    
O16   V4    S    
N3    H11   S    
C18   H4    S    
C6    Br5   S    
C12   C13   A    
N8    H21   S    
O4    C2    A    
C1    C26   S    
C13   C14   A    
O11   C32   A    
C4    C14   S    
O12   V3    S    
O2    C1    A    
C25   C26   D    
C17   C18   A    
C24   C32   S    
N8    H22   S    
C29   C30   D    
O8    C3    A    
O15   V3    S    
C5    C6    A    
C30   N7    S    
O13   V3    S    
N6    H17   S    
C26   N3    S    
O3    C4    A    
C17   N1    S    
C16   H3    S    
O6    V2    S    
O9    V2    S    
O2    V1    S    
C23   Br2   S    
C8    H2    S    
C19   Br6   S    
C13   C18   A    
C25   N2    S    
O1    C2    A    
O5    V1    S    
O14   V3    S    
C20   Br1   S    
O18   V4    S    
C5    C10   A    
C5    N6    S    
C2    C30   S    
C9    C11   A    
O7    V2    S    
N2    H9    S    
C21   H5    S    
O3    V1    S    
V1    O10   S    
C28   Br4   S    
O17   V3    S    
C29   N5    S    
O19   C34   A    
V4    O20   S    
C27   C28   D    
O4    V1    S    
C8    C9    A    
N1    H7    S    
C10   C14   A    
N2    H10   S    
C15   C16   A    
N7    H20   S    
C27   N4    S    
C9    C10   A    
C31   O16   A    
C22   C34   S    
