data_mof_unit_33955.cif
_audit_creation_date              2012-10-26T20:18:17-0400
_audit_creation_method            fapswitch 2.2
_symmetry_space_group_name_H-M    P1
_symmetry_Int_Tables_number       1
_space_group_crystal_system       triclinic
_cell_length_a                    23.485249
_cell_length_b                    8.676668
_cell_length_c                    7.437779
_cell_angle_alpha                 102.962328
_cell_angle_beta                  94.204824
_cell_angle_gamma                 92.327761
_cell_volume                      1470.48557148

loop_
_atom_site_label
_atom_site_type_symbol
_atom_type_description
_atom_site_fract_x
_atom_site_fract_y
_atom_site_fract_z
_atom_type_partial_charge
C1    C     C_R   0.498224 0.199658 0.453226 0.565972
C2    C     C_R   0.697780 0.549650 0.359022 -0.148297
C3    C     C_R   0.243029 0.447756 0.645212 -0.029045
C4    C     C_R   0.756971 0.552245 0.354788 -0.029045
C5    C     C_R   0.209647 0.509566 0.517792 0.203281
C6    C     C_R   0.790353 0.490435 0.482208 0.203281
C7    C     C_2   0.497340 0.031758 0.426851 -0.112351
C8    C     C_2   0.502660 0.968242 0.573149 -0.112351
C9    C     C_R   0.391206 0.505716 0.503173 0.569611
C10   C     C_R   0.608794 0.494284 0.496827 0.569611
C11   C     C_R   0.882208 0.636492 0.525080 0.406884
C12   C     C_R   0.501776 0.800342 0.546774 0.565972
C13   C     C_R   0.117792 0.363508 0.474920 0.406884
C14   C     C_R   0.877732 0.353408 0.439285 0.409493
C15   C     C_R   0.122268 0.646593 0.560716 0.409493
C16   C     C_R   0.937538 0.352985 0.447244 0.031498
C17   C     C_R   0.062462 0.647015 0.552756 0.031498
C18   C     C_R   0.969877 0.498755 0.495035 -0.027427
C19   C     C_R   0.030123 0.501245 0.504965 -0.027427
C20   C     C_R   0.942120 0.642027 0.533156 0.030993
C21   C     C_R   0.057880 0.357974 0.466844 0.030993
C22   C     C_R   0.965630 0.210757 0.409768 -0.124283
C23   C     C_R   0.235806 0.576413 0.387949 -0.055092
C24   C     C_R   0.034370 0.789243 0.590232 -0.124283
C25   C     C_R   0.025201 0.213223 0.419567 -0.128023
C26   C     C_R   0.974799 0.786778 0.580433 -0.128023
C27   C     C_2   0.320189 0.670979 0.255428 0.589473
C28   C     C_2   0.679811 0.329020 0.744572 0.589474
C29   C     C_R   0.764194 0.423587 0.612051 -0.055091
C30   C     C_R   0.295347 0.583970 0.384656 0.025412
C31   C     C_R   0.704653 0.416030 0.615344 0.025412
C32   C     C_R   0.328985 0.515745 0.510015 -0.023874
C33   C     C_R   0.671015 0.484255 0.489985 -0.023874
C34   C     C_R   0.302220 0.450351 0.640979 -0.148297
Cu1   Cu    Cu3+1 0.506340 0.517380 0.684380 1.016626
Cu2   Cu    Cu3+1 0.493660 0.482620 0.315620 1.016626
H1    H     H_    0.941721 0.097148 0.373005 0.173123
H2    H     H_    0.776977 0.603103 0.253082 0.168036
H3    H     H_    0.492295 0.960079 0.285888 0.143011
H4    H     H_    0.507705 0.039921 0.714112 0.143011
H5    H     H_    0.454883 0.379366 0.948756 0.237865
H6    H     H_    0.545117 0.620634 0.051244 0.237865
H7    H     H_    0.311780 0.729790 0.007589 0.351051
H8    H     H_    0.688220 0.270210 0.992411 0.351051
H9    H     H_    0.058279 0.902852 0.626995 0.173124
H10   H     H_    0.045499 0.101470 0.389625 0.167445
H11   H     H_    0.954501 0.898531 0.610375 0.167445
H12   H     H_    0.209328 0.626308 0.292326 0.175369
H13   H     H_    0.790672 0.373692 0.707673 0.175369
H14   H     H_    0.327112 0.398597 0.738439 0.147809
H15   H     H_    0.672888 0.601404 0.261561 0.147809
H16   H     H_    0.223023 0.396898 0.746919 0.168036
N1    N     N_R   0.851391 0.493675 0.479687 -0.400093
N2    N     N_R   0.148609 0.506326 0.520313 -0.400093
N3    N     N_2   0.484110 0.456420 0.038520 -0.247591
N4    N     N_2   0.515890 0.543580 0.961480 -0.247591
O1    O     O_R   0.504120 0.286130 0.619770 -0.488921
O2    O     O_2   0.145026 0.227524 0.434962 -0.470672
O3    O     O_2   0.846068 0.214843 0.391365 -0.465751
O4    O     O_2   0.153931 0.785157 0.608635 -0.465751
O5    O     O_2   0.364707 0.753014 0.301883 -0.499547
O6    O     O_R   0.291061 0.664708 0.082824 -0.705722
O7    O     O_2   0.635293 0.246985 0.698116 -0.499547
O8    O     O_R   0.708939 0.335292 0.917176 -0.705722
O9    O     O_R   0.495880 0.713870 0.380230 -0.488921
O10   O     O_R   0.493410 0.256770 0.308360 -0.502288
O11   O     O_R   0.506590 0.743230 0.691640 -0.502288
O12   O     O_R   0.423230 0.514630 0.655730 -0.513931
O13   O     O_R   0.576770 0.485370 0.344270 -0.513931
O14   O     O_R   0.412530 0.485280 0.344320 -0.470046
O15   O     O_R   0.587470 0.514720 0.655680 -0.470046
O16   O     O_2   0.854974 0.772476 0.565038 -0.470672

loop_
_geom_bond_atom_site_label_1
_geom_bond_atom_site_label_2
_ccdc_geom_bond_type
C2    C4    A    
N3    N4    D    
C31   C33   A    
C15   C17   A    
C19   C21   A    
C13   O2    S    
C27   O6    S    
C1    O1    A    
C8    C12   S    
C28   O7    D    
C15   O4    S    
C13   N2    A    
Cu2   O10   S    
Cu1   Cu2   S    
C5    C23   A    
Cu1   O11   S    
Cu1   O1    S    
C16   C22   A    
C10   O15   A    
C14   N1    A    
C1    O10   A    
C9    O12   A    
Cu1   O15   S    
C7    C8    D    
C29   C31   A    
Cu2   N3    S    
C29   H13   S    
H8    O8    S    
C27   C30   S    
C30   C32   A    
C14   O3    S    
C22   H1    S    
C32   C34   A    
C11   N1    A    
C3    C34   A    
C20   C26   A    
Cu1   O12   S    
C24   H9    S    
C26   H11   S    
C2    C33   A    
C4    C6    A    
C17   C19   A    
C24   C26   A    
C18   C19   A    
C10   C33   S    
C18   C20   A    
Cu2   O13   S    
H6    N4    S    
C12   O11   A    
C14   C16   A    
C11   C20   A    
C34   H14   S    
C17   C24   A    
C2    H15   S    
C6    N1    S    
C13   C21   A    
C23   C30   A    
C28   O8    S    
C5    N2    S    
C6    C29   A    
C9    O14   A    
C16   C18   A    
C15   N2    A    
C12   O9    A    
C3    H16   S    
C7    H3    S    
C11   O16   S    
H5    N3    S    
C4    H2    S    
C21   C25   A    
C23   H12   S    
C8    H4    S    
C9    C32   S    
C1    C7    S    
Cu1   N4    S    
Cu2   O9    S    
C10   O13   A    
C25   H10   S    
C28   C31   S    
H7    O6    S    
Cu2   O14   S    
C3    C5    A    
C22   C25   A    
C27   O5    D    
