data_mof_unit_5242.cif
_audit_creation_date              2012-12-10T17:32:01-0500
_audit_creation_method            fapswitch 2.2
_symmetry_space_group_name_H-M    P1
_symmetry_Int_Tables_number       1
_space_group_crystal_system       triclinic
_cell_length_a                    30.055994
_cell_length_b                    30.040249
_cell_length_c                    30.057014
_cell_angle_alpha                 90.578225
_cell_angle_beta                  90.576593
_cell_angle_gamma                 89.684229
_cell_volume                      27135.0104624

loop_
_atom_site_label
_atom_site_type_symbol
_atom_type_description
_atom_site_fract_x
_atom_site_fract_y
_atom_site_fract_z
_atom_type_partial_charge
C1    C     C_R   0.000157 0.413374 0.499064 0.871599
C2    C     C_R   0.586793 0.999822 0.500855 0.877844
C3    C     C_R   0.974175 0.203743 0.466221 -0.033176
C4    C     C_R   0.027527 0.469552 0.203413 -0.043465
C5    C     C_R   0.012551 0.204560 0.538991 -0.046444
C6    C     C_R   0.027689 0.529982 0.796982 -0.032550
C7    C     C_R   0.028175 0.795930 0.470537 -0.034851
C8    C     C_R   0.515228 0.797493 0.037743 -0.040305
C9    C     C_R   0.797031 0.471612 0.028707 -0.036318
C10   C     C_R   0.467379 0.203896 0.024842 -0.041752
C11   C     C_R   0.203688 0.532428 0.025821 -0.038795
C12   C     C_R   0.474612 0.796887 0.966074 -0.025373
C13   C     C_R   0.499941 0.999773 0.413202 0.879442
C14   C     C_R   0.203243 0.472473 0.969305 -0.042573
C15   C     C_R   0.530683 0.203123 0.973456 -0.033485
C16   C     C_R   0.796269 0.530161 0.971894 -0.040921
C17   C     C_R   0.796500 0.972572 0.470010 -0.040502
C18   C     C_R   0.476942 0.965526 0.202596 -0.027383
C19   C     C_R   0.203881 0.971769 0.529600 -0.033285
C20   C     C_R   0.531567 0.975237 0.796299 -0.030932
C21   C     C_R   0.796698 0.034408 0.524512 -0.037098
C22   C     C_R   0.468588 0.028026 0.796142 -0.033261
C23   C     C_R   0.202982 0.032216 0.474821 -0.032749
C24   C     C_R   0.413259 0.000128 0.500082 0.878777
C25   C     C_R   0.527648 0.029725 0.203817 -0.037072
C26   C     C_R   0.468146 0.027303 0.702872 -0.040649
C27   C     C_R   0.466701 0.297090 0.024155 -0.032882
C28   C     C_R   0.475621 0.966574 0.295793 -0.036755
C29   C     C_R   0.472199 0.703723 0.967699 -0.036453
C30   C     C_R   0.531945 0.975418 0.703260 -0.033077
C31   C     C_R   0.513168 0.704463 0.039067 -0.042685
C32   C     C_R   0.527848 0.029522 0.296962 -0.042369
C33   C     C_R   0.530635 0.296259 0.973493 -0.029395
C34   C     C_R   0.015821 0.297531 0.537080 -0.041084
C35   C     C_R   0.500112 0.913353 0.999178 0.872468
C36   C     C_R   0.297051 0.972290 0.530133 -0.035841
C37   C     C_R   0.971680 0.703792 0.529683 -0.041050
C38   C     C_R   0.703583 0.032391 0.526679 -0.029967
C39   C     C_R   0.976971 0.296884 0.464460 -0.021729
C40   C     C_R   0.703528 0.970147 0.472646 -0.038306
C41   C     C_R   0.028202 0.702778 0.470870 -0.042903
C42   C     C_R   0.296128 0.031633 0.474188 -0.042616
C43   C     C_R   0.296348 0.473570 0.967837 -0.039290
C44   C     C_R   0.977571 0.465571 0.702489 -0.037025
C45   C     C_R   0.703931 0.471536 0.028624 -0.029930
C46   C     C_R   0.499806 0.000361 0.913186 0.878795
C47   C     C_R   0.027008 0.468933 0.296546 -0.035064
C48   C     C_R   0.296784 0.532776 0.025173 -0.042487
C49   C     C_R   0.971570 0.529637 0.296671 -0.030190
C50   C     C_R   0.703068 0.531396 0.973217 -0.035125
C51   C     C_R   0.027367 0.530531 0.703841 -0.038217
C52   C     C_R   0.999796 0.499816 0.226798 -0.059536
C53   C     C_R   0.999757 0.773130 0.499902 -0.060802
C54   C     C_R   0.002419 0.497939 0.772988 -0.061597
C55   C     C_R   0.993311 0.227472 0.502550 -0.055666
C56   C     C_R   0.493390 0.773911 0.002799 -0.063655
C57   C     C_R   0.499909 0.086748 0.999972 0.880614
C58   C     C_R   0.773295 0.501267 0.000689 -0.057719
C59   C     C_R   0.498714 0.226832 0.998857 -0.057039
C60   C     C_R   0.226753 0.503178 0.996710 -0.060582
C61   C     C_R   0.773269 0.003457 0.497293 -0.058203
C62   C     C_R   0.502247 0.997601 0.226560 -0.062704
C63   C     C_R   0.226765 0.002112 0.502299 -0.062024
C64   C     C_R   0.500170 0.001739 0.772919 -0.062470
C65   C     C_R   0.500199 0.001668 0.726418 -0.058905
C66   C     C_R   0.498607 0.273365 0.998688 -0.062717
C67   C     C_R   0.502050 0.997822 0.273029 -0.059740
C68   C     C_R   0.500240 0.999634 0.086688 0.874549
C69   C     C_R   0.492355 0.727410 0.003507 -0.055922
C70   C     C_R   0.994697 0.273945 0.501705 -0.064158
C71   C     C_R   0.273250 0.002050 0.502288 -0.058443
C72   C     C_R   0.999858 0.726627 0.500114 -0.058433
C73   C     C_R   0.726806 0.002467 0.498349 -0.061308
C74   C     C_R   0.273239 0.503493 0.996237 -0.059155
C75   C     C_R   0.002481 0.497936 0.726519 -0.060958
C76   C     C_R   0.726811 0.501528 0.000936 -0.062317
C77   C     C_R   0.999412 0.499407 0.273291 -0.063646
C78   C     C_R   0.945649 0.561214 0.226976 0.359033
C79   C     C_R   0.913284 0.000655 0.499767 0.877551
C80   C     C_R   0.943728 0.774197 0.558797 0.373249
C81   C     C_R   0.952773 0.433273 0.771700 0.364803
C82   C     C_R   0.956438 0.226738 0.429281 0.366604
C83   C     C_R   0.054286 0.438606 0.226626 0.386120
C84   C     C_R   0.029987 0.228336 0.575975 0.378992
C85   C     C_R   0.052767 0.562051 0.774360 0.354229
C86   C     C_R   0.056321 0.772061 0.441538 0.363650
C87   C     C_R   0.532270 0.774782 0.075150 0.371075
C88   C     C_R   0.774144 0.441667 0.055958 0.370625
C89   C     C_R   0.435239 0.227582 0.049725 0.374054
C90   C     C_R   0.999241 0.086912 0.500255 0.879718
C91   C     C_R   0.227156 0.562221 0.053814 0.377108
C92   C     C_R   0.453816 0.773366 0.930840 0.359384
C93   C     C_R   0.226195 0.444899 0.938766 0.376870
C94   C     C_R   0.562840 0.226025 0.948976 0.358118
C95   C     C_R   0.772542 0.559993 0.944355 0.377457
C96   C     C_R   0.773124 0.942557 0.442042 0.376617
C97   C     C_R   0.451475 0.933835 0.225319 0.354692
C98   C     C_R   0.227647 0.942810 0.557897 0.365140
C99   C     C_R   0.563346 0.949592 0.773136 0.359189
C100  C     C_R   0.773429 0.063996 0.552869 0.380125
C101  C     C_R   0.086739 0.000089 0.500220 0.883077
C102  C     C_R   0.437021 0.053887 0.772657 0.367096
C103  C     C_R   0.225856 0.062343 0.447707 0.366481
C104  C     C_R   0.553761 0.060795 0.227703 0.367759
C105  C     C_R   0.437052 0.054059 0.726038 0.379045
C106  C     C_R   0.435467 0.274171 0.049878 0.370107
C107  C     C_R   0.450799 0.934413 0.271875 0.371162
C108  C     C_R   0.452848 0.726772 0.931547 0.375572
C109  C     C_R   0.563055 0.949113 0.726644 0.366589
C110  C     C_R   0.531479 0.728169 0.075641 0.373148
C111  C     C_R   0.553485 0.061090 0.274188 0.382402
C112  C     C_R   0.999791 0.499738 0.413277 0.877217
C113  C     C_R   0.999895 0.913243 0.499784 0.881054
C114  C     C_R   0.562384 0.272557 0.948340 0.358431
C115  C     C_R   0.032083 0.274843 0.574812 0.371107
C116  C     C_R   0.274178 0.942781 0.557930 0.376238
C117  C     C_R   0.943356 0.727653 0.558641 0.383673
C118  C     C_R   0.726884 0.063092 0.553846 0.364766
C119  C     C_R   0.957737 0.273317 0.428411 0.357484
C120  C     C_R   0.726648 0.940671 0.444121 0.369418
C121  C     C_R   0.057212 0.725530 0.442421 0.394610
C122  C     C_R   0.272397 0.062514 0.447859 0.389241
C123  C     C_R   0.272797 0.445392 0.938116 0.372957
C124  C     C_R   0.000118 0.500211 0.086756 0.880388
C125  C     C_R   0.952699 0.433292 0.725161 0.376801
C126  C     C_R   0.727658 0.442024 0.056338 0.362336
C127  C     C_R   0.054787 0.439038 0.273180 0.366609
C128  C     C_R   0.273674 0.561901 0.054043 0.387867
C129  C     C_R   0.944254 0.559950 0.273437 0.358891
C130  C     C_R   0.725976 0.560450 0.944929 0.374871
C131  C     C_R   0.053246 0.561835 0.727814 0.392364
C132  C     C_3   0.943068 0.630442 0.195618 0.147328
C133  C     C_3   0.913487 0.671018 0.203846 -0.796468
C134  C     C_3   0.936887 0.809626 0.626279 0.141486
C135  C     C_R   0.086795 0.499887 0.000645 0.876138
C136  C     C_3   0.904066 0.808583 0.664475 -0.795192
C137  C     C_3   0.951546 0.364776 0.804269 0.144599
C138  C     C_3   0.920428 0.325078 0.807482 -0.807665
C139  C     C_3   0.970014 0.188861 0.363857 0.147587
C140  C     C_3   0.958076 0.203705 0.316969 -0.805199
C141  C     C_3   0.060082 0.373293 0.186171 0.109314
C142  C     C_3   0.072014 0.331335 0.211784 -0.783137
C143  C     C_3   0.012468 0.190907 0.639536 0.105725
C144  C     C_3   0.027124 0.191820 0.688118 -0.801404
C145  C     C_3   0.056352 0.630873 0.807270 0.143478
C146  C     C_R   0.000025 0.499751 0.913190 0.878245
C147  C     C_3   0.089440 0.667772 0.817899 -0.819354
C148  C     C_3   0.065209 0.802078 0.372570 0.146739
C149  C     C_3   0.100505 0.800672 0.336641 -0.802043
C150  C     C_3   0.521007 0.815601 0.138878 0.127308
C151  C     C_3   0.543432 0.829230 0.182552 -0.780257
C152  C     C_3   0.811051 0.374559 0.060751 0.137729
C153  C     C_3   0.793648 0.333333 0.083895 -0.793551
C154  C     C_3   0.370706 0.186415 0.052470 0.124177
C155  C     C_3   0.326347 0.203711 0.069737 -0.783511
C156  C     C_3   0.192595 0.629574 0.066652 0.136420
C157  C     C_R   0.913275 0.500078 0.999903 0.880711
C158  C     C_3   0.207592 0.666862 0.097930 -0.799006
C159  C     C_3   0.396369 0.807804 0.893748 0.136688
C160  C     C_3   0.379259 0.814561 0.846387 -0.809788
C161  C     C_3   0.184548 0.437489 0.874545 0.110945
C162  C     C_3   0.181720 0.405817 0.834756 -0.788708
C163  C     C_3   0.631506 0.192617 0.951070 0.149682
C164  C     C_3   0.673486 0.194827 0.923128 -0.801217
C165  C     C_3   0.814861 0.622924 0.933362 0.124193
C166  C     C_3   0.798317 0.665435 0.911523 -0.796804
C167  C     C_3   0.810581 0.934645 0.376293 0.103261
C168  C     C_R   0.027908 0.470874 0.157135 -0.199404
C169  C     C_3   0.813711 0.901515 0.337824 -0.800536
C170  C     C_3   0.386169 0.912544 0.191329 0.151421
C171  C     C_3   0.356271 0.871810 0.192738 -0.818057
C172  C     C_3   0.194332 0.930554 0.624773 0.144371
C173  C     C_3   0.193304 0.893967 0.659378 -0.810321
C174  C     C_3   0.632629 0.944595 0.804390 0.137590
C175  C     C_3   0.669219 0.910641 0.814200 -0.803185
C176  C     C_3   0.813139 0.075329 0.617915 0.136248
C177  C     C_3   0.795160 0.099438 0.658745 -0.804641
C178  C     C_3   0.367776 0.059350 0.802993 0.138755
C179  C     C_R   0.027886 0.842271 0.470948 -0.194949
C180  C     C_3   0.330466 0.093425 0.808144 -0.792121
C181  C     C_3   0.193353 0.078324 0.380403 0.147752
C182  C     C_3   0.192570 0.117587 0.348481 -0.790015
C183  C     C_3   0.619755 0.078237 0.194649 0.144434
C184  C     C_3   0.652073 0.117061 0.196656 -0.806987
C185  C     C_3   0.419328 0.114562 0.681836 0.118391
C186  C     C_3   0.397233 0.156447 0.700405 -0.788500
C187  C     C_3   0.417909 0.306696 0.116524 0.138704
C188  C     C_3   0.378003 0.311866 0.146929 -0.794202
C189  C     C_3   0.446436 0.868077 0.309394 0.140776
C190  C     C_R   0.027170 0.529548 0.843269 -0.206677
C191  C     C_3   0.423258 0.825677 0.293749 -0.813976
C192  C     C_3   0.463494 0.687509 0.866231 0.134689
C193  C     C_3   0.454954 0.707565 0.820600 -0.795894
C194  C     C_3   0.578431 0.882824 0.690906 0.138804
C195  C     C_3   0.608618 0.846077 0.708641 -0.789814
C196  C     C_3   0.519603 0.691017 0.140606 0.113172
C197  C     C_3   0.541200 0.683957 0.186032 -0.793848
C198  C     C_3   0.556829 0.127587 0.312908 0.118789
C199  C     C_3   0.571717 0.169483 0.289318 -0.790887
C200  C     C_3   0.582270 0.303869 0.882431 0.144859
C201  C     C_R   0.015364 0.158302 0.536955 -0.196476
C202  C     C_3   0.622991 0.304783 0.852778 -0.806210
C203  C     C_3   0.021761 0.315394 0.638802 0.131799
C204  C     C_3   0.045273 0.331275 0.681133 -0.786366
C205  C     C_3   0.311871 0.876463 0.566839 0.133341
C206  C     C_3   0.294810 0.836382 0.591941 -0.796510
C207  C     C_3   0.879138 0.687898 0.570354 0.117687
C208  C     C_3   0.838181 0.708154 0.592143 -0.781360
C209  C     C_3   0.691052 0.128912 0.570802 0.142482
C210  C     C_3   0.693583 0.162857 0.608724 -0.806940
C211  C     C_3   0.902457 0.307221 0.387641 0.138200
C212  C     C_R   0.972984 0.530335 0.157255 -0.198529
C213  C     C_3   0.888343 0.313604 0.339276 -0.812569
C214  C     C_3   0.688794 0.922400 0.380150 0.115832
C215  C     C_3   0.675531 0.882772 0.351095 -0.790258
C216  C     C_3   0.121984 0.685162 0.433624 0.098019
C217  C     C_3   0.162136 0.714529 0.425248 -0.784975
C218  C     C_3   0.313702 0.126656 0.442057 0.101121
C219  C     C_3   0.286813 0.169006 0.434370 -0.782172
C220  C     C_3   0.308511 0.436807 0.871788 0.112529
C221  C     C_3   0.321869 0.401926 0.837287 -0.792026
C222  C     C_3   0.890337 0.413407 0.684377 0.106856
C223  C     C_R   0.999898 0.586697 0.500124 0.878314
C224  C     C_R   0.974838 0.157336 0.466803 -0.200291
C225  C     C_3   0.852092 0.393060 0.709886 -0.785918
C226  C     C_3   0.696245 0.427507 0.123521 0.140705
C227  C     C_3   0.689317 0.388832 0.155105 -0.808963
C228  C     C_3   0.122693 0.424693 0.305251 0.143983
C229  C     C_3   0.156327 0.386641 0.305272 -0.791823
C230  C     C_3   0.312246 0.570853 0.120100 0.123991
C231  C     C_3   0.291520 0.592445 0.160994 -0.801988
C232  C     C_3   0.875653 0.574392 0.302561 0.140897
C233  C     C_3   0.842810 0.613141 0.305121 -0.797553
C234  C     C_3   0.692258 0.573605 0.877539 0.144314
C235  C     C_R   0.975749 0.467535 0.841969 -0.195986
C236  C     C_3   0.696394 0.609763 0.842758 -0.794298
C237  C     C_3   0.116774 0.579914 0.689940 0.100161
C238  C     C_3   0.154297 0.590163 0.722929 -0.788172
C239  C     C_R   0.971040 0.843291 0.527730 -0.193924
C240  C     C_R   0.477635 0.843107 0.965127 -0.188531
C241  C     C_R   0.842556 0.528238 0.971165 -0.200729
C242  C     C_R   0.530008 0.156823 0.973458 -0.198544
C243  C     C_R   0.157229 0.469678 0.973526 -0.199076
C244  C     C_R   0.520070 0.843392 0.034183 -0.200463
C245  C     C_R   0.157427 0.530979 0.026628 -0.188396
C246  C     C_R   0.469102 0.157581 0.025736 -0.200098
C247  C     C_R   0.000254 0.499983 0.586682 0.873338
C248  C     C_R   0.843295 0.472230 0.028631 -0.199387
C249  C     C_R   0.843096 0.034030 0.523856 -0.204200
C250  C     C_R   0.526082 0.030209 0.157570 -0.196435
C251  C     C_R   0.156663 0.031436 0.474867 -0.192844
C252  C     C_R   0.469010 0.027521 0.842562 -0.194782
C253  C     C_R   0.842758 0.971304 0.472498 -0.197548
C254  C     C_R   0.530521 0.974827 0.842534 -0.190884
C255  C     C_R   0.157589 0.971090 0.527940 -0.196349
C256  C     C_R   0.477228 0.966135 0.156276 -0.207228
C257  C     C_R   0.531776 0.975828 0.657012 -0.197630
C258  C     C_R   0.413259 0.499945 0.999728 0.877371
C259  C     C_R   0.530630 0.342583 0.974392 -0.194789
C260  C     C_R   0.527340 0.029154 0.343237 -0.209189
C261  C     C_R   0.516485 0.658241 0.036564 -0.195029
C262  C     C_R   0.467783 0.025254 0.656535 -0.204594
C263  C     C_R   0.473348 0.657301 0.967975 -0.201743
C264  C     C_R   0.474612 0.968306 0.342081 -0.198408
C265  C     C_R   0.467133 0.343448 0.023660 -0.194506
C266  C     C_R   0.979359 0.343146 0.463911 -0.188972
C267  C     C_R   0.342392 0.029643 0.473061 -0.204728
C268  C     C_R   0.027006 0.656492 0.470654 -0.202479
C269  C     C_R   0.499320 0.586914 0.000277 0.880188
C270  C     C_R   0.657419 0.968013 0.476063 -0.192837
C271  C     C_R   0.020322 0.343462 0.533835 -0.200527
C272  C     C_R   0.657319 0.030679 0.527510 -0.187000
C273  C     C_R   0.972699 0.657448 0.529757 -0.200916
C274  C     C_R   0.343362 0.972569 0.529521 -0.198663
C275  C     C_R   0.343104 0.531678 0.025285 -0.201837
C276  C     C_R   0.025639 0.531143 0.657553 -0.202680
C277  C     C_R   0.656706 0.531157 0.973892 -0.193192
C278  C     C_R   0.971935 0.529157 0.342967 -0.194772
C279  C     C_R   0.342647 0.471955 0.970400 -0.195070
C280  C     C_R   0.586739 0.500391 0.000190 0.882764
C281  C     C_R   0.026408 0.469187 0.342864 -0.194507
C282  C     C_R   0.657630 0.471409 0.027652 -0.194255
C283  C     C_R   0.977905 0.466263 0.656189 -0.211603
C284  C     C_R   0.000429 0.500621 0.134543 -0.078723
C285  C     C_R   0.999521 0.865441 0.499341 -0.081076
C286  C     C_R   0.000818 0.499033 0.865323 -0.086646
C287  C     C_R   0.996645 0.134985 0.501163 -0.087741
C288  C     C_R   0.500047 0.865734 0.999023 -0.071625
C289  C     C_R   0.865550 0.500227 0.999935 -0.074528
C290  C     C_R   0.499686 0.134547 0.999694 -0.079593
C291  C     C_R   0.499691 0.413304 0.999793 0.880234
C292  C     C_R   0.134653 0.499826 0.000638 -0.081070
C293  C     C_R   0.865539 0.001934 0.498919 -0.072492
C294  C     C_R   0.501008 0.998759 0.134353 -0.072269
C295  C     C_R   0.134499 0.000743 0.500860 -0.079672
C296  C     C_R   0.499568 0.000811 0.865272 -0.087571
C297  C     C_R   0.499862 0.000485 0.634250 -0.070101
C298  C     C_R   0.499089 0.365603 0.999261 -0.078314
C299  C     C_R   0.500508 0.999153 0.365357 -0.079628
C300  C     C_R   0.496670 0.634977 0.001340 -0.086676
C301  C     C_R   0.000440 0.365795 0.498614 -0.072226
C302  C     C_R   0.499902 0.000168 0.586651 0.878610
C303  C     C_R   0.365505 0.000583 0.500715 -0.075697
C304  C     C_R   0.999733 0.634390 0.500101 -0.071786
C305  C     C_R   0.634665 0.999347 0.501671 -0.086513
C306  C     C_R   0.365490 0.500917 0.998782 -0.075315
C307  C     C_R   0.001050 0.499299 0.634323 -0.065116
C308  C     C_R   0.634524 0.501072 0.000639 -0.081062
C309  C     C_R   0.999299 0.499298 0.365538 -0.081685
C310  C     C_R   0.972613 0.530686 0.203561 -0.032871
C311  C     C_R   0.971245 0.796993 0.528961 -0.038748
C312  C     C_R   0.976788 0.465973 0.795677 -0.036605
H1    H     H_    0.049618 0.449080 0.138219 0.166610
H2    H     H_    0.861293 0.548002 0.948135 0.158187
H3    H     H_    0.372063 0.192077 0.015785 0.121966
H4    H     H_    0.321861 0.239266 0.060775 0.272917
H5    H     H_    0.298795 0.184004 0.054621 0.195023
H6    H     H_    0.325019 0.200431 0.106530 0.255137
H7    H     H_    0.155702 0.630840 0.064026 0.137677
H8    H     H_    0.206191 0.636030 0.032868 0.115992
H9    H     H_    0.244368 0.669954 0.097088 0.272284
H10   H     H_    0.192335 0.698884 0.087428 0.193023
H11   H     H_    0.197235 0.659759 0.132525 0.256335
H12   H     H_    0.393228 0.839928 0.912148 0.124342
H13   H     H_    0.552734 0.137719 0.952925 0.173756
H14   H     H_    0.374931 0.782564 0.909861 0.145761
H15   H     H_    0.375371 0.781816 0.829322 0.254068
H16   H     H_    0.346495 0.831819 0.846861 0.198487
H17   H     H_    0.402998 0.835056 0.827332 0.260806
H18   H     H_    0.203452 0.467545 0.864395 0.102120
H19   H     H_    0.150114 0.448074 0.882692 0.137673
H20   H     H_    0.168164 0.373195 0.845011 0.266611
H21   H     H_    0.159502 0.420150 0.808787 0.198287
H22   H     H_    0.215219 0.400677 0.820417 0.241395
H23   H     H_    0.627870 0.157959 0.963359 0.130569
H24   H     H_    0.138441 0.444738 0.955312 0.172625
H25   H     H_    0.636064 0.215420 0.980486 0.131546
H26   H     H_    0.680524 0.230033 0.914449 0.264293
H27   H     H_    0.702184 0.181293 0.942398 0.195088
H28   H     H_    0.669385 0.174806 0.891972 0.254268
H29   H     H_    0.851186 0.620370 0.927297 0.144291
H30   H     H_    0.810099 0.625886 0.970067 0.122027
H31   H     H_    0.763226 0.671974 0.920788 0.272170
H32   H     H_    0.819134 0.693907 0.922801 0.196408
H33   H     H_    0.800612 0.662367 0.874755 0.254683
H34   H     H_    0.844396 0.948072 0.382571 0.144095
H35   H     H_    0.538451 0.862342 0.059045 0.167944
H36   H     H_    0.788639 0.962723 0.365593 0.099638
H37   H     H_    0.779899 0.891178 0.326933 0.245981
H38   H     H_    0.830676 0.917153 0.309319 0.197081
H39   H     H_    0.833013 0.871633 0.348133 0.265243
H40   H     H_    0.385585 0.925563 0.156832 0.128791
H41   H     H_    0.371869 0.938510 0.213996 0.139080
H42   H     H_    0.351213 0.861775 0.227793 0.264413
H43   H     H_    0.323400 0.879692 0.177463 0.198785
H44   H     H_    0.371548 0.843586 0.174056 0.250833
H45   H     H_    0.160570 0.945622 0.622307 0.130976
H46   H     H_    0.138749 0.553228 0.048125 0.167303
H47   H     H_    0.218041 0.956602 0.636833 0.138810
H48   H     H_    0.227708 0.882399 0.666827 0.260663
H49   H     H_    0.178127 0.906878 0.690499 0.197638
H50   H     H_    0.173390 0.865347 0.646845 0.257878
H51   H     H_    0.628493 0.966643 0.834123 0.127548
H52   H     H_    0.643535 0.965155 0.775703 0.153111
H53   H     H_    0.676967 0.891172 0.783521 0.257406
H54   H     H_    0.699772 0.928076 0.825767 0.199162
H55   H     H_    0.658450 0.887441 0.840581 0.258910
H56   H     H_    0.849859 0.079316 0.617967 0.139981
H57   H     H_    0.447227 0.138965 0.046904 0.164186
H58   H     H_    0.806180 0.038997 0.621021 0.122838
H59   H     H_    0.759046 0.092933 0.662029 0.280319
H60   H     H_    0.812708 0.087361 0.689020 0.194309
H61   H     H_    0.800535 0.135840 0.655929 0.251890
H62   H     H_    0.370948 0.040319 0.834428 0.124803
H63   H     H_    0.358115 0.035904 0.775528 0.147059
H64   H     H_    0.323797 0.109818 0.775764 0.261746
H65   H     H_    0.299687 0.076671 0.819134 0.195319
H66   H     H_    0.339901 0.119146 0.833275 0.256456
H67   H     H_    0.159747 0.062686 0.380221 0.125474
H68   H     H_    0.862466 0.451265 0.050915 0.166535
H69   H     H_    0.218163 0.053284 0.367816 0.135623
H70   H     H_    0.227024 0.130161 0.343685 0.258322
H71   H     H_    0.178768 0.106689 0.315711 0.193476
H72   H     H_    0.171343 0.145138 0.361818 0.255943
H73   H     H_    0.618947 0.064956 0.160016 0.131580
H74   H     H_    0.632890 0.051676 0.217040 0.128788
H75   H     H_    0.658200 0.127074 0.231843 0.259910
H76   H     H_    0.684188 0.107087 0.181458 0.195957
H77   H     H_    0.638220 0.145957 0.178232 0.257769
H78   H     H_    0.409612 0.111575 0.646091 0.148137
H79   H     H_    0.862186 0.058183 0.542862 0.158133
H80   H     H_    0.456291 0.118617 0.683411 0.118840
H81   H     H_    0.410187 0.163751 0.734465 0.265517
H82   H     H_    0.404621 0.185039 0.678530 0.194018
H83   H     H_    0.360507 0.152126 0.701566 0.259745
H84   H     H_    0.436428 0.338616 0.116580 0.127066
H85   H     H_    0.439963 0.280235 0.130645 0.142279
H86   H     H_    0.361805 0.279078 0.151318 0.260703
H87   H     H_    0.388988 0.324752 0.179992 0.194821
H88   H     H_    0.353463 0.335544 0.132415 0.259049
H89   H     H_    0.445770 0.868995 0.346378 0.141018
H90   H     H_    0.543730 0.055298 0.139154 0.166404
H91   H     H_    0.482061 0.866355 0.299096 0.112995
H92   H     H_    0.427516 0.821115 0.257305 0.269434
H93   H     H_    0.437963 0.796540 0.311107 0.195932
H94   H     H_    0.387157 0.827466 0.301373 0.255478
H95   H     H_    0.458966 0.650907 0.863274 0.142456
H96   H     H_    0.499000 0.693368 0.875964 0.121684
H97   H     H_    0.463033 0.743598 0.821195 0.281977
H98   H     H_    0.476283 0.690602 0.795593 0.192611
H99   H     H_    0.419507 0.703221 0.810642 0.252736
H100  H     H_    0.578784 0.881072 0.653965 0.144660
H101  H     H_    0.137409 0.054689 0.455081 0.168450
H102  H     H_    0.543599 0.876072 0.701579 0.117186
H103  H     H_    0.605517 0.843946 0.745334 0.276369
H104  H     H_    0.598943 0.813641 0.693490 0.194583
H105  H     H_    0.643817 0.852981 0.700254 0.256778
H106  H     H_    0.506038 0.658592 0.128791 0.135111
H107  H     H_    0.491295 0.714786 0.144787 0.105404
H108  H     H_    0.551755 0.716410 0.200479 0.252378
H109  H     H_    0.516966 0.668356 0.208650 0.193523
H110  H     H_    0.570678 0.661747 0.182898 0.260256
H111  H     H_    0.564534 0.131745 0.348931 0.146540
H112  H     H_    0.050048 0.860709 0.449795 0.172132
H113  H     H_    0.446026 0.048056 0.861382 0.174708
H114  H     H_    0.519910 0.124544 0.309707 0.117765
H115  H     H_    0.560136 0.168792 0.254148 0.277133
H116  H     H_    0.557348 0.199279 0.306116 0.191058
H117  H     H_    0.608573 0.171995 0.290340 0.256645
H118  H     H_    0.566115 0.337221 0.881715 0.129119
H119  H     H_    0.558584 0.278941 0.868078 0.137867
H120  H     H_    0.636213 0.270487 0.848123 0.260409
H121  H     H_    0.613807 0.318507 0.819765 0.197021
H122  H     H_    0.649300 0.325937 0.868093 0.258456
H123  H     H_    0.996206 0.290568 0.648097 0.126930
H124  H     H_    0.861518 0.945855 0.455014 0.166800
H125  H     H_    0.004651 0.344546 0.623774 0.131104
H126  H     H_    0.074429 0.352067 0.672806 0.260000
H127  H     H_    0.022034 0.351452 0.701699 0.211856
H128  H     H_    0.056919 0.302295 0.700774 0.242077
H129  H     H_    0.348815 0.875777 0.568569 0.141966
H130  H     H_    0.301982 0.872949 0.531041 0.117815
H131  H     H_    0.258303 0.833281 0.586980 0.275994
H132  H     H_    0.311288 0.805617 0.579374 0.193362
H133  H     H_    0.302296 0.840132 0.628058 0.255136
H134  H     H_    0.879042 0.651553 0.576850 0.146700
H135  H     H_    0.553424 0.954034 0.861233 0.180034
H136  H     H_    0.876327 0.692150 0.533544 0.119814
H137  H     H_    0.834387 0.743479 0.582286 0.274065
H138  H     H_    0.808077 0.689517 0.581330 0.194491
H139  H     H_    0.841291 0.706309 0.628936 0.256778
H140  H     H_    0.655761 0.126616 0.559684 0.128321
H141  H     H_    0.711195 0.141443 0.542602 0.130772
H142  H     H_    0.728850 0.171415 0.615798 0.259469
H143  H     H_    0.675174 0.193601 0.599478 0.196314
H144  H     H_    0.678621 0.149090 0.639293 0.259048
H145  H     H_    0.897932 0.339406 0.405628 0.123817
H146  H     H_    0.139076 0.947265 0.547131 0.168938
H147  H     H_    0.880211 0.281915 0.402516 0.146918
H148  H     H_    0.884883 0.280720 0.322445 0.252225
H149  H     H_    0.855916 0.331402 0.337546 0.199988
H150  H     H_    0.913569 0.333402 0.321444 0.263018
H151  H     H_    0.714231 0.941715 0.362062 0.124220
H152  H     H_    0.658962 0.943861 0.384864 0.123690
H153  H     H_    0.652415 0.860914 0.369299 0.259026
H154  H     H_    0.658754 0.894552 0.320279 0.196198
H155  H     H_    0.705513 0.863168 0.341842 0.253902
H156  H     H_    0.128750 0.651771 0.418827 0.156644
H157  H     H_    0.459202 0.941464 0.136851 0.158325
H158  H     H_    0.118296 0.680170 0.470175 0.118293
H159  H     H_    0.159058 0.746223 0.444349 0.267654
H160  H     H_    0.192937 0.696998 0.436194 0.191648
H161  H     H_    0.164706 0.721889 0.389200 0.265205
H162  H     H_    0.347496 0.131616 0.428350 0.153815
H163  H     H_    0.318093 0.121483 0.478578 0.120298
H164  H     H_    0.254668 0.167204 0.452081 0.271552
H165  H     H_    0.305732 0.198125 0.447277 0.193399
H166  H     H_    0.280365 0.173539 0.398253 0.261032
H167  H     H_    0.337881 0.458122 0.878848 0.130819
H168  H     H_    0.556408 0.957266 0.638268 0.165369
H169  H     H_    0.281671 0.457862 0.857056 0.117887
H170  H     H_    0.292169 0.383248 0.825577 0.250946
H171  H     H_    0.337280 0.418326 0.808346 0.194142
H172  H     H_    0.346191 0.378093 0.851875 0.262060
H173  H     H_    0.888232 0.401146 0.649403 0.147159
H174  H     H_    0.885952 0.450338 0.683381 0.121389
H175  H     H_    0.849721 0.408741 0.743376 0.273657
H176  H     H_    0.820328 0.398829 0.691549 0.190998
H177  H     H_    0.857368 0.356618 0.713412 0.258376
H178  H     H_    0.665042 0.447639 0.122036 0.127569
H179  H     H_    0.555399 0.361145 0.956486 0.168399
H180  H     H_    0.723609 0.448671 0.137477 0.146195
H181  H     H_    0.721539 0.371472 0.161391 0.257435
H182  H     H_    0.676118 0.401531 0.187232 0.197877
H183  H     H_    0.665156 0.364697 0.140497 0.257779
H184  H     H_    0.122473 0.440216 0.338954 0.130206
H185  H     H_    0.134167 0.449970 0.280980 0.135420
H186  H     H_    0.160941 0.373887 0.270809 0.260514
H187  H     H_    0.188835 0.398576 0.318442 0.195443
H188  H     H_    0.144574 0.359101 0.326480 0.259100
H189  H     H_    0.348786 0.575977 0.122146 0.143654
H190  H     H_    0.547810 0.051953 0.362526 0.165903
H191  H     H_    0.306481 0.534158 0.121140 0.120490
H192  H     H_    0.255566 0.584443 0.162276 0.278669
H193  H     H_    0.308145 0.579689 0.191499 0.193970
H194  H     H_    0.295611 0.629138 0.159983 0.254244
H195  H     H_    0.875047 0.556193 0.334627 0.128202
H196  H     H_    0.864096 0.551451 0.275326 0.139902
H197  H     H_    0.839641 0.629173 0.272028 0.261893
H198  H     H_    0.809611 0.600816 0.315065 0.197720
H199  H     H_    0.854319 0.638279 0.330053 0.255948
H200  H     H_    0.657147 0.562215 0.877839 0.129828
H201  H     H_    0.535251 0.640033 0.061418 0.179054
H202  H     H_    0.713748 0.544949 0.867137 0.131221
H203  H     H_    0.731963 0.618439 0.838490 0.266961
H204  H     H_    0.682714 0.597679 0.810399 0.193695
H205  H     H_    0.677665 0.640032 0.853242 0.256239
H206  H     H_    0.123612 0.598054 0.658733 0.159363
H207  H     H_    0.117107 0.543732 0.681141 0.117330
H208  H     H_    0.152571 0.567466 0.751754 0.261560
H209  H     H_    0.186925 0.585239 0.706517 0.190674
H210  H     H_    0.151845 0.625222 0.734798 0.272335
H211  H     H_    0.442551 0.042317 0.637193 0.153331
H212  H     H_    0.047294 0.552659 0.862578 0.175398
H213  H     H_    0.456754 0.638150 0.942055 0.169279
H214  H     H_    0.453485 0.946109 0.360469 0.166534
H215  H     H_    0.442633 0.362710 0.041886 0.169355
H216  H     H_    0.965541 0.361984 0.436459 0.159787
H217  H     H_    0.360914 0.050421 0.450635 0.164452
H218  H     H_    0.047024 0.637185 0.447628 0.165076
H219  H     H_    0.638702 0.942946 0.457897 0.177508
H220  H     H_    0.038067 0.362459 0.559105 0.168436
H221  H     H_    0.638439 0.053095 0.548573 0.166488
H222  H     H_    0.952994 0.638808 0.552983 0.160141
H223  H     H_    0.033199 0.140110 0.562478 0.177693
H224  H     H_    0.362653 0.951384 0.551428 0.164111
H225  H     H_    0.362213 0.554558 0.045834 0.161375
H226  H     H_    0.043074 0.556416 0.639132 0.162096
H227  H     H_    0.637471 0.554235 0.953904 0.167972
H228  H     H_    0.951718 0.552457 0.361841 0.172842
H229  H     H_    0.361354 0.447850 0.951004 0.172064
H230  H     H_    0.046545 0.445860 0.361686 0.171624
H231  H     H_    0.639132 0.447931 0.047284 0.171976
H232  H     H_    0.960384 0.441305 0.636652 0.151777
H233  H     H_    0.952623 0.629809 0.159914 0.133507
H234  H     H_    0.951461 0.552478 0.138491 0.171746
H235  H     H_    0.974105 0.634547 0.216186 0.125722
H236  H     H_    0.906782 0.674719 0.240047 0.268894
H237  H     H_    0.930523 0.701441 0.192221 0.194715
H238  H     H_    0.881359 0.667505 0.185430 0.254716
H239  H     H_    0.949205 0.844260 0.623158 0.131456
H240  H     H_    0.965685 0.787640 0.635139 0.130644
H241  H     H_    0.895250 0.773582 0.671857 0.262822
H242  H     H_    0.919267 0.824051 0.694671 0.194304
H243  H     H_    0.873307 0.827323 0.655601 0.258459
H244  H     H_    0.968025 0.370004 0.837224 0.129476
H245  H     H_    0.959081 0.138245 0.440352 0.171991
H246  H     H_    0.977542 0.356375 0.779150 0.131016
H247  H     H_    0.908146 0.315435 0.773725 0.254131
H248  H     H_    0.938508 0.296352 0.822254 0.196596
H249  H     H_    0.891480 0.333555 0.828812 0.258160
H250  H     H_    0.970348 0.151885 0.364063 0.137545
H251  H     H_    0.004498 0.200341 0.371894 0.125172
H252  H     H_    0.961544 0.240351 0.314418 0.279032
H253  H     H_    0.980797 0.187460 0.292754 0.194541
H254  H     H_    0.923290 0.194237 0.308549 0.252801
H255  H     H_    0.071144 0.368597 0.151253 0.155248
H256  H     H_    0.955146 0.444698 0.860232 0.175094
H257  H     H_    0.023106 0.377275 0.184941 0.116461
H258  H     H_    0.057491 0.332918 0.245587 0.274417
H259  H     H_    0.058476 0.301763 0.193889 0.192326
H260  H     H_    0.108743 0.327680 0.214636 0.259660
H261  H     H_    0.004903 0.155869 0.630349 0.143776
H262  H     H_    0.981108 0.210804 0.636579 0.101592
H263  H     H_    0.029558 0.226724 0.700217 0.245521
H264  H     H_    0.002385 0.174153 0.708592 0.195848
H265  H     H_    0.060006 0.175200 0.692084 0.266151
H266  H     H_    0.035210 0.625842 0.836931 0.126340
H267  H     H_    0.948570 0.862571 0.548363 0.170198
H268  H     H_    0.034826 0.642056 0.779016 0.152607
H269  H     H_    0.106321 0.678111 0.787000 0.252985
H270  H     H_    0.071825 0.696990 0.832414 0.199600
H271  H     H_    0.114906 0.655954 0.842157 0.258476
H272  H     H_    0.049859 0.835811 0.373114 0.129634
H273  H     H_    0.038984 0.777410 0.363172 0.135741
H274  H     H_    0.113076 0.766076 0.332345 0.261983
H275  H     H_    0.085994 0.812052 0.304567 0.195456
H276  H     H_    0.128738 0.822679 0.346002 0.256165
H277  H     H_    0.494163 0.791538 0.146512 0.115926
H278  H     H_    0.463354 0.861903 0.937893 0.161700
H279  H     H_    0.505482 0.845814 0.124236 0.136238
H280  H     H_    0.572449 0.850970 0.176096 0.256241
H281  H     H_    0.519422 0.847809 0.203747 0.217174
H282  H     H_    0.555022 0.799217 0.200721 0.242350
H283  H     H_    0.848070 0.373394 0.061831 0.140926
H284  H     H_    0.800577 0.373115 0.024891 0.118191
H285  H     H_    0.756919 0.331153 0.079585 0.276172
H286  H     H_    0.809206 0.303048 0.069121 0.192626
H287  H     H_    0.801995 0.334725 0.120050 0.253862
H288  H     H_    0.371776 0.149842 0.057797 0.144173
O1    O     O_R   0.962670 0.433890 0.500010 -0.628159
O2    O     O_R   0.499990 0.566110 0.037330 -0.629431
O3    O     O_R   0.566110 0.500010 0.037330 -0.622603
O4    O     O_R   0.500010 0.433890 0.037330 -0.624104
O5    O     O_R   0.566110 0.499990 0.962670 -0.625822
O6    O     O_R   0.500010 0.566110 0.962670 -0.628768
O7    O     O_R   0.433890 0.500010 0.962670 -0.625905
O8    O     O_R   0.499990 0.433890 0.962670 -0.624006
O9    O     O_R   0.499990 0.962670 0.566110 -0.625675
O10   O     O_R   0.566110 0.962670 0.500010 -0.620237
O11   O     O_R   0.500010 0.962670 0.433890 -0.627111
O12   O     O_R   0.962670 0.499990 0.433890 -0.625908
O13   O     O_R   0.433890 0.962670 0.499990 -0.626766
O14   O     O_R   0.499990 0.037330 0.433890 -0.627729
O15   O     O_R   0.566110 0.037330 0.499990 -0.628768
O16   O     O_R   0.500010 0.037330 0.566110 -0.626373
O17   O     O_R   0.433890 0.037330 0.500010 -0.629445
O18   O     O_R   0.462670 0.933890 0.000010 -0.627573
O19   O     O_R   0.462670 0.999990 0.933890 -0.627179
O20   O     O_R   0.462670 0.066110 0.999990 -0.627482
O21   O     O_R   0.462670 0.000010 0.066110 -0.624482
O22   O     O_R   0.537330 0.066110 0.000010 -0.628153
O23   O     O_R   0.962670 0.566110 0.499990 -0.625596
O24   O     O_R   0.537330 0.000010 0.933890 -0.625015
O25   O     O_R   0.537330 0.933890 0.999990 -0.614004
O26   O     O_R   0.537330 0.999990 0.066110 -0.624243
O27   O     O_R   0.933890 0.999990 0.537330 -0.625713
O28   O     O_R   0.999990 0.066110 0.537330 -0.630452
O29   O     O_R   0.066110 0.000010 0.537330 -0.622754
O30   O     O_R   0.000010 0.933890 0.537330 -0.625864
O31   O     O_R   0.066110 0.999990 0.462670 -0.625097
O32   O     O_R   0.000010 0.066110 0.462670 -0.628977
O33   O     O_R   0.933890 0.000010 0.462670 -0.626015
O34   O     O_R   0.962670 0.500010 0.566110 -0.626059
O35   O     O_R   0.999990 0.933890 0.462670 -0.625102
O36   O     O_R   0.999990 0.462670 0.066110 -0.627386
O37   O     O_R   0.066110 0.462670 0.000010 -0.620375
O38   O     O_R   0.000010 0.462670 0.933890 -0.626383
O39   O     O_R   0.933890 0.462670 0.999990 -0.626724
O40   O     O_R   0.999990 0.537330 0.933890 -0.626562
O41   O     O_R   0.066110 0.537330 0.999990 -0.628259
O42   O     O_R   0.000010 0.537330 0.066110 -0.626996
O43   O     O_R   0.933890 0.537330 0.000010 -0.626756
O44   O     O_3   0.918679 0.591434 0.204846 -0.602159
O45   O     O_R   0.037330 0.566110 0.500010 -0.628830
O46   O     O_3   0.914645 0.796904 0.586451 -0.595907
O47   O     O_3   0.926191 0.402957 0.793264 -0.600090
O48   O     O_3   0.936996 0.204173 0.393740 -0.608820
O49   O     O_3   0.083272 0.410241 0.204442 -0.602901
O50   O     O_3   0.047479 0.206758 0.612814 -0.573121
O51   O     O_3   0.080115 0.591355 0.797403 -0.605913
O52   O     O_3   0.085739 0.793879 0.414248 -0.600764
O53   O     O_3   0.553313 0.797250 0.109914 -0.574606
O54   O     O_3   0.796791 0.413123 0.084261 -0.605226
O55   O     O_3   0.405879 0.206051 0.077407 -0.602686
O56   O     O_R   0.037330 0.500010 0.433890 -0.625657
O57   O     O_3   0.205136 0.588124 0.085049 -0.604973
O58   O     O_3   0.441549 0.794854 0.892030 -0.599920
O59   O     O_3   0.203999 0.414922 0.911171 -0.573022
O60   O     O_3   0.594286 0.203448 0.923917 -0.600336
O61   O     O_3   0.793853 0.585735 0.913025 -0.602518
O62   O     O_3   0.795108 0.912507 0.414555 -0.571885
O63   O     O_3   0.430163 0.899653 0.202597 -0.616733
O64   O     O_3   0.205946 0.911566 0.583222 -0.601477
O65   O     O_3   0.592511 0.921697 0.795507 -0.600153
O66   O     O_3   0.795595 0.095262 0.578919 -0.605407
O67   O     O_R   0.037330 0.433890 0.499990 -0.614394
O68   O     O_3   0.407959 0.081987 0.794898 -0.595424
O69   O     O_3   0.203153 0.094504 0.423769 -0.599863
O70   O     O_3   0.576837 0.093828 0.206049 -0.602740
O71   O     O_3   0.403046 0.076708 0.704143 -0.601958
O72   O     O_3   0.402586 0.296834 0.072921 -0.592842
O73   O     O_3   0.422554 0.905467 0.293316 -0.602861
O74   O     O_3   0.431817 0.704287 0.896824 -0.607913
O75   O     O_3   0.595421 0.924751 0.704513 -0.605266
O76   O     O_3   0.552087 0.706429 0.110740 -0.571727
O77   O     O_3   0.581225 0.090338 0.296968 -0.607552
O78   O     O_R   0.037330 0.499990 0.566110 -0.624140
O79   O     O_3   0.596025 0.294362 0.926463 -0.597938
O80   O     O_3   0.053605 0.297202 0.609315 -0.574164
O81   O     O_3   0.296789 0.916032 0.587962 -0.602044
O82   O     O_3   0.918039 0.706166 0.590120 -0.599639
O83   O     O_3   0.705233 0.087044 0.586863 -0.601012
O84   O     O_3   0.947780 0.294657 0.388881 -0.597734
O85   O     O_3   0.704790 0.906689 0.421529 -0.570812
O86   O     O_3   0.083674 0.702802 0.412166 -0.604025
O87   O     O_3   0.294009 0.090458 0.418742 -0.605274
O88   O     O_3   0.294743 0.415167 0.910850 -0.568202
O89   O     O_R   0.433890 0.499990 0.037330 -0.627046
O90   O     O_3   0.931579 0.398885 0.702430 -0.618112
O91   O     O_3   0.705838 0.410195 0.080771 -0.599422
O92   O     O_3   0.080004 0.407430 0.295364 -0.598712
O93   O     O_3   0.296056 0.592048 0.081213 -0.606725
O94   O     O_3   0.918850 0.591358 0.295827 -0.598676
O95   O     O_3   0.703325 0.591744 0.919818 -0.598177
O96   O     O_3   0.075498 0.595626 0.706297 -0.608298
Zn1   Zn    Zn3+2 0.950160 0.500000 0.500000 0.935272
Zn2   Zn    Zn3+2 0.000000 0.000000 0.450160 0.938049
Zn3   Zn    Zn3+2 0.000000 0.450160 0.000000 0.943671
Zn4   Zn    Zn3+2 1.000000 0.549840 0.000000 0.934951
Zn5   Zn    Zn3+2 0.049840 0.500000 0.500000 0.945567
Zn6   Zn    Zn3+2 0.500000 0.500000 0.049840 0.940007
Zn7   Zn    Zn3+2 0.500000 0.500000 0.950160 0.937969
Zn8   Zn    Zn3+2 0.500000 0.950160 0.500000 0.942809
Zn9   Zn    Zn3+2 0.500000 0.049840 0.500000 0.929591
Zn10  Zn    Zn3+2 0.450160 0.000000 0.000000 0.936300
Zn11  Zn    Zn3+2 0.549840 0.000000 0.000000 0.950468
Zn12  Zn    Zn3+2 0.000000 0.000000 0.549840 0.938688

loop_
_geom_bond_atom_site_label_1
_geom_bond_atom_site_label_2
_ccdc_geom_bond_type
C280  C308  S    
C172  H45   S    
C259  C298  A    
C3    C224  A    
C175  H54   S    
C267  C303  A    
C264  C299  A    
C217  H159  S    
C214  O85   S    
C8    C56   A    
C239  C311  A    
C114  O79   S    
C232  H195  S    
C162  H22   S    
C50   C277  A    
C33   C114  A    
C6    C85   A    
C51   C276  A    
O38   Zn3   S    
C78   C129  A    
C59   C66   A    
C135  O41   A    
C270  C305  A    
O56   Zn5   S    
C8    C244  A    
C122  O87   S    
C30   C257  A    
C280  O3    A    
C186  H81   S    
C214  H152  S    
C1    O67   A    
C204  H127  S    
C264  H214  S    
C251  H101  S    
C17   C61   A    
O33   Zn2   S    
C199  H116  S    
C149  H274  S    
O9    Zn8   S    
C23   C103  A    
C199  H117  S    
C19   C63   A    
C262  C297  A    
C89   C106  A    
C297  C302  S    
C29   C108  A    
C10   C246  A    
O30   Zn12  S    
C85   O51   S    
C226  H178  S    
C36   C71   A    
C119  O84   S    
C225  H177  S    
C253  H124  S    
C153  H285  S    
C15   C242  A    
C240  H278  S    
C220  O88   S    
C219  H166  S    
C138  H248  S    
C172  O64   S    
C234  C236  S    
C6    C54   A    
C189  O73   S    
C26   C105  A    
C36   C274  A    
C228  C229  S    
C215  H154  S    
C171  H43   S    
C278  C309  A    
C29   C69   A    
O5    Zn7   S    
C275  H225  S    
O26   Zn11  S    
C30   C109  A    
C11   C245  A    
C48   C74   A    
C191  H92   S    
C247  O34   A    
C268  H218  S    
C51   C131  A    
C132  H233  S    
C18   C256  A    
C181  C182  S    
C44   C283  A    
C108  O74   S    
C159  H14   S    
C4    C168  A    
C152  O54   S    
C174  H52   S    
C183  C184  S    
C22   C252  A    
C50   C76   A    
C269  O2    A    
C237  H207  S    
C142  H260  S    
C154  H3    S    
C158  H11   S    
C263  H213  S    
C86   C121  A    
C152  H284  S    
C210  H143  S    
C193  H99   S    
C17   C96   A    
C16   C58   A    
C263  C300  A    
C146  O38   A    
C209  H140  S    
C194  H100  S    
C230  H189  S    
C154  C155  S    
C225  H175  S    
C19   C255  A    
C155  H6    S    
C172  H47   S    
C173  H49   S    
C160  H15   S    
C40   C270  A    
C90   C287  S    
C196  O76   S    
C109  O75   S    
C254  H135  S    
C218  H162  S    
C271  C301  A    
C217  H161  S    
C11   C60   A    
O14   Zn9   S    
C102  O68   S    
C165  H30   S    
C91   O57   S    
C96   C120  A    
C192  O74   S    
C170  H41   S    
C100  O66   S    
C208  H139  S    
C80   C117  A    
C148  H272  S    
C147  H270  S    
C1    O1    A    
C240  C288  A    
C182  H72   S    
C103  O69   S    
C228  H185  S    
C93   C123  A    
C196  C197  S    
O34   Zn1   S    
C186  H83   S    
C32   C111  A    
C139  C140  S    
C173  H48   S    
C133  H237  S    
C205  H129  S    
C187  O72   S    
C169  H38   S    
C222  C225  S    
C233  H197  S    
C31   C261  A    
O35   Zn2   S    
C156  C158  S    
O31   Zn2   S    
C236  H205  S    
C9    C88   A    
C27   C66   A    
C278  H228  S    
C243  H24   S    
C85   C131  A    
C275  C306  A    
C20   C99   A    
C181  H69   S    
C49   C129  A    
C237  O96   S    
C158  H9    S    
C177  H59   S    
C31   C110  A    
C52   C310  A    
C28   C264  A    
C25   C62   A    
C53   C311  A    
C241  C289  A    
C113  O30   A    
C97   C107  A    
C133  H236  S    
C11   C91   A    
C12   C240  A    
C57   O20   A    
C43   C279  A    
C200  C202  S    
O41   Zn4   S    
C125  O90   S    
C35   O18   A    
C24   O17   A    
C221  H170  S    
C277  C308  A    
C79   C293  S    
C252  H113  S    
C143  C144  S    
C165  O61   S    
C129  O94   S    
C156  H7    S    
C195  H104  S    
C208  H137  S    
C2    C305  S    
C151  H280  S    
C149  H276  S    
C256  H157  S    
C227  H183  S    
C15   C94   A    
C145  H266  S    
C132  H235  S    
C58   C76   A    
O18   Zn10  S    
C87   C110  A    
C158  H10   S    
C136  H241  S    
O17   Zn9   S    
C185  H78   S    
C79   O33   A    
C179  H112  S    
C257  H168  S    
C204  H126  S    
C163  H23   S    
C194  O75   S    
C9    C58   A    
C196  H106  S    
C163  O60   S    
C209  O83   S    
C5    C201  A    
O11   Zn8   S    
C142  H258  S    
C234  O95   S    
C7    C86   A    
C170  C171  S    
C192  H95   S    
C245  H46   S    
C13   C299  S    
C80   O46   S    
C234  H202  S    
C281  H230  S    
C189  C191  S    
C9    C248  A    
C174  C175  S    
C267  H217  S    
C81   C312  A    
C283  H232  S    
C24   C303  S    
C3    C55   A    
C117  O82   S    
C92   C108  A    
C107  O73   S    
C10   C89   A    
C236  H203  S    
C116  O81   S    
C95   C130  A    
C93   O59   S    
C90   O28   A    
O67   Zn5   S    
C201  C287  A    
C14   C93   A    
C246  H57   S    
O7    Zn7   S    
C235  C312  A    
C113  C285  S    
O43   Zn4   S    
C143  H261  S    
C132  O44   S    
C266  H216  S    
C237  C238  S    
C249  H79   S    
C82   O48   S    
C182  H70   S    
C167  O62   S    
C184  H76   S    
C46   C296  S    
C266  C301  A    
C207  O82   S    
C220  C221  S    
C33   C66   A    
C155  H4    S    
C124  C284  S    
O3    Zn6   S    
C134  H240  S    
C44   C125  A    
O23   Zn1   S    
C206  H132  S    
C233  H199  S    
C164  H27   S    
C203  H125  S    
C223  O45   A    
C216  O86   S    
O10   Zn8   S    
C101  C295  S    
C5    C84   A    
C110  O76   S    
C18   C62   A    
C151  H281  S    
C27   C106  A    
C34   C115  A    
C231  H194  S    
C179  C285  A    
C177  H61   S    
C282  C308  A    
C167  H36   S    
O39   Zn3   S    
C121  O86   S    
C153  H287  S    
C45   C126  A    
O16   Zn9   S    
C33   C259  A    
C209  C210  S    
C185  O71   S    
C124  O42   A    
O21   Zn10  S    
C139  H250  S    
C291  O8    A    
C221  H172  S    
C202  H121  S    
C32   C67   A    
C111  O77   S    
C279  H229  S    
C176  H58   S    
C258  O7    A    
C244  C288  A    
C250  H90   S    
C229  H187  S    
O20   Zn10  S    
C227  H181  S    
C43   C123  A    
O22   Zn11  S    
C216  H156  S    
C138  H247  S    
C195  H105  S    
C246  C290  A    
C45   C282  A    
C81   C125  A    
C204  H128  S    
C138  H249  S    
C218  O87   S    
C12   C92   A    
C128  O93   S    
C222  H173  S    
C83   C127  A    
C141  H255  S    
O32   Zn2   S    
C25   C104  A    
C47   C127  A    
C232  H196  S    
C260  C299  A    
C249  C293  A    
C180  H65   S    
C147  H271  S    
C211  H145  S    
O78   Zn5   S    
C211  O84   S    
C212  C310  A    
C184  H77   S    
C115  O80   S    
C256  C294  A    
C212  C284  A    
C105  O71   S    
C2    O15   A    
C57   O22   A    
C39   C119  A    
C137  O47   S    
C64   C65   A    
C176  H56   S    
C37   C117  A    
C49   C77   A    
C35   O25   A    
C68   O21   A    
C54   C312  A    
C236  H204  S    
C30   C65   A    
C224  H245  S    
C57   C290  S    
C54   C75   A    
C228  O92   S    
C238  H210  S    
C224  C287  A    
C152  C153  S    
C226  C227  S    
C200  H119  S    
C197  H110  S    
C42   C267  A    
C178  H62   S    
C38   C272  A    
C269  C300  S    
C36   C116  A    
C185  H80   S    
C79   O27   A    
C219  H165  S    
C203  H123  S    
C140  H253  S    
C273  C304  A    
C166  H31   S    
O27   Zn12  S    
C274  C303  A    
C161  C162  S    
O45   Zn5   S    
C124  O36   A    
C139  O48   S    
C42   C122  A    
C112  C309  S    
C248  C289  A    
C45   C76   A    
O8    Zn7   S    
C144  H263  S    
C281  C309  A    
C200  H118  S    
C130  O95   S    
O2    Zn6   S    
C242  C290  A    
C7    C53   A    
C99   C109  A    
C234  H200  S    
C235  C286  A    
C212  H234  S    
C40   C73   A    
C102  C105  A    
C24   O13   A    
C88   O54   S    
C291  C298  S    
C78   O44   S    
O6    Zn7   S    
C23   C251  A    
C47   C281  A    
C259  H179  S    
C237  H206  S    
C162  H20   S    
C78   C310  A    
C232  O94   S    
C190  C286  A    
C191  H94   S    
C210  H144  S    
C193  H98   S    
C95   O61   S    
C18   C97   A    
C242  H13   S    
C135  C292  S    
C34   C70   A    
C21   C61   A    
C86   O52   S    
C183  H74   S    
C23   C63   A    
C194  C195  S    
C163  H25   S    
C84   O50   S    
C160  H16   S    
C175  H53   S    
C280  O5    A    
C166  H33   S    
C186  H82   S    
C218  H163  S    
C276  H226  S    
C82   C119  A    
C217  H160  S    
C170  H40   S    
C165  H29   S    
C145  C147  S    
O4    Zn6   S    
C220  H169  S    
C162  H21   S    
C94   O60   S    
C199  H115  S    
C147  H269  S    
C91   C128  A    
C92   O58   S    
C207  C208  S    
C194  H102  S    
C272  C305  A    
C167  C169  S    
C145  H268  S    
C201  H223  S    
C137  H244  S    
C155  H5    S    
C61   C73   A    
C205  C206  S    
C159  O58   S    
C215  H155  S    
C169  H37   S    
C164  H26   S    
C90   O32   A    
C214  H151  S    
C13   O11   A    
C253  C293  A    
O24   Zn11  S    
C203  O80   S    
C48   C128  A    
C25   C250  A    
C149  H275  S    
C238  H208  S    
C159  C160  S    
C143  O50   S    
C46   O19   A    
C265  C298  A    
C223  O23   A    
C198  H111  S    
C20   C254  A    
C63   C71   A    
C187  H84   S    
C112  O12   A    
C62   C67   A    
C255  C295  A    
C153  H286  S    
C40   C120  A    
C164  H28   S    
C159  H12   S    
C175  H55   S    
C34   C271  A    
C196  H107  S    
C100  C118  A    
C14   C60   A    
C171  H44   S    
C181  H67   S    
C198  O77   S    
C243  C292  A    
C195  H103  S    
C144  H264  S    
O40   Zn4   S    
C15   C59   A    
C104  O70   S    
C213  H150  S    
C178  C180  S    
C258  O89   A    
C161  O59   S    
C161  H19   S    
C136  H243  S    
C251  C295  A    
C174  H51   S    
C112  O56   A    
C228  H184  S    
C10   C59   A    
C277  H227  S    
C213  H149  S    
C187  C188  S    
C231  H192  S    
C142  H259  S    
C247  O78   A    
C185  C186  S    
C27   C265  A    
C4    C83   A    
C247  C307  S    
C192  H96   S    
C180  H64   S    
C232  C233  S    
C152  H283  S    
C150  H279  S    
C210  H142  S    
C220  H167  S    
C188  H87   S    
C209  H141  S    
C230  C231  S    
C225  H176  S    
C22   C64   A    
C14   C243  A    
C38   C118  A    
C120  O85   S    
C173  H50   S    
C2    O10   A    
C37   C72   A    
C262  H211  S    
C174  O65   S    
C176  O66   S    
C35   C288  S    
C41   C268  A    
C168  H1    S    
O15   Zn9   S    
C213  H148  S    
C13   O14   A    
C103  C122  A    
C302  O16   A    
C68   O26   A    
C203  C204  S    
C165  C166  S    
C250  C294  A    
C46   O24   A    
C182  H71   S    
C181  O69   S    
C163  C164  S    
C268  C304  A    
O13   Zn8   S    
C148  O52   S    
C123  O88   S    
C94   C114  A    
C39   C266  A    
C137  H246  S    
C134  O46   S    
C98   O64   S    
C133  H238  S    
C244  H35   S    
C205  H130  S    
C215  H153  S    
C17   C253  A    
C169  H39   S    
C206  H133  S    
C233  H198  S    
C4    C52   A    
C127  O92   S    
C49   C278  A    
C150  O53   S    
C205  O81   S    
C140  H252  S    
C302  O9    A    
C51   C75   A    
C276  C307  A    
C254  C296  A    
C21   C249  A    
O42   Zn4   S    
C219  H164  S    
C28   C107  A    
C231  H193  S    
C156  H8    S    
C161  H18   S    
C177  H60   S    
C208  H138  S    
C41   C121  A    
C88   C126  A    
C258  C306  S    
C37   C273  A    
C39   C70   A    
C248  H68   S    
C42   C71   A    
C132  C133  S    
C68   C294  S    
C101  O31   A    
C216  C217  S    
C202  H120  S    
C198  C199  S    
C223  C304  S    
C50   C130  A    
C53   C72   A    
C273  H222  S    
C202  H122  S    
C171  H42   S    
C269  O6    A    
C16   C241  A    
C43   C74   A    
C265  H215  S    
C157  O43   A    
C229  H186  S    
O25   Zn11  S    
C1    C301  S    
C156  O57   S    
C270  H219  S    
C200  O79   S    
C19   C98   A    
C283  C307  A    
C81   O47   S    
C143  H262  S    
C207  H136  S    
C245  C292  A    
C189  H91   S    
C144  H265  S    
C157  C289  S    
C28   C67   A    
C148  C149  S    
C222  H174  S    
C222  O90   S    
C80   C311  A    
C21   C100  A    
C214  C215  S    
C168  C284  A    
C279  C306  A    
C134  C136  S    
C190  H212  S    
C89   O55   S    
C180  H66   S    
C183  O70   S    
C188  H88   S    
C230  H191  S    
C150  H277  S    
C178  O68   S    
C20   C64   A    
C44   C75   A    
C272  H221  S    
C146  C286  S    
C131  O96   S    
C167  H34   S    
C98   C116  A    
C113  O35   A    
C31   C69   A    
C271  H220  S    
C96   O62   S    
C6    C190  A    
C3    C82   A    
C261  H201  S    
C97   O63   S    
C7    C179  A    
C126  O91   S    
C87   O53   S    
C260  H190  S    
C12   C56   A    
C41   C72   A    
C274  H224  S    
C291  O4    A    
C176  C177  S    
C211  C213  S    
C261  C300  A    
C148  H273  S    
C56   C69   A    
C84   C115  A    
C255  H146  S    
C197  H109  S    
C184  H75   S    
C47   C77   A    
C178  H63   S    
C83   O49   S    
C226  H180  S    
C172  C173  S    
C187  H85   S    
C154  H288  S    
C257  C297  A    
C160  H17   S    
C221  H171  S    
C134  H239  S    
O89   Zn6   S    
C16   C95   A    
C206  H131  S    
C150  C151  S    
C26   C65   A    
O1    Zn1   S    
C5    C55   A    
C140  H254  S    
C166  H32   S    
C141  O49   S    
C104  C111  A    
C188  H86   S    
C26   C262  A    
C151  H282  S    
C137  C138  S    
C22   C102  A    
C197  H108  S    
C235  H256  S    
O37   Zn3   S    
C8    C87   A    
C101  O29   A    
C192  C193  S    
O12   Zn1   S    
C157  O39   A    
C282  H231  S    
C145  O51   S    
O29   Zn12  S    
C141  C142  S    
C170  O63   S    
C198  H114  S    
C218  C219  S    
C216  H158  S    
C118  O83   S    
C106  O72   S    
C241  H2    S    
C99   O65   S    
C211  H147  S    
C60   C74   A    
C226  O91   S    
C29   C263  A    
O36   Zn3   S    
C136  H242  S    
C239  C285  A    
C32   C260  A    
C55   C70   A    
C141  H257  S    
C154  O55   S    
O28   Zn12  S    
C48   C275  A    
C139  H251  S    
C238  H209  S    
C227  H182  S    
C229  H188  S    
C189  H89   S    
C191  H93   S    
C193  H97   S    
C146  O40   A    
C230  O93   S    
C38   C73   A    
O19   Zn10  S    
C135  O37   A    
C52   C77   A    
C239  H267  S    
C183  H73   S    
C207  H134  S    
C252  C296  A    
