data_mof_unit_56976.cif
_audit_creation_date              2012-12-11T14:56:32-0500
_audit_creation_method            fapswitch 2.2
_symmetry_space_group_name_H-M    P1
_symmetry_Int_Tables_number       1
_space_group_crystal_system       triclinic
_cell_length_a                    10.541591
_cell_length_b                    10.690848
_cell_length_c                    17.135723
_cell_angle_alpha                 80.494185
_cell_angle_beta                  89.64711
_cell_angle_gamma                 119.431584
_cell_volume                      1650.25378266

loop_
_atom_site_label
_atom_site_type_symbol
_atom_type_description
_atom_site_fract_x
_atom_site_fract_y
_atom_site_fract_z
_atom_type_partial_charge
C1    C     C_R   0.277995 0.888513 0.132666 0.560886
C2    C     C_R   0.781518 0.349640 0.276047 -0.016380
C3    C     C_R   0.779522 0.361593 0.195260 -0.128069
C4    C     C_R   0.650888 0.330999 0.160807 0.003148
C5    C     C_1   0.684286 0.832708 0.201952 -0.040694
C6    C     C_1   0.702624 0.808547 0.270474 -0.039558
C7    C     C_1   0.226941 0.854422 0.215311 -0.057614
C8    C     C_1   0.178433 0.834811 0.282878 -0.045795
C9    C     C_1   0.644291 0.323975 0.778185 -0.023677
C10   C     C_1   0.651122 0.345706 0.707661 -0.026368
C11   C     C_R   0.617782 0.700642 0.805286 -0.021693
C12   C     C_R   0.635951 0.278316 0.087213 0.531956
C13   C     C_R   0.612195 0.692061 0.725797 -0.121989
C14   C     C_R   0.675982 0.818496 0.666961 0.025295
C15   C     C_R   0.763121 0.955532 0.686641 -0.134580
C16   C     C_R   0.773251 0.967301 0.765848 -0.139222
C17   C     C_R   0.692478 0.842463 0.825427 0.013084
C18   C     C_R   0.239916 0.968496 0.759414 -0.151139
C19   C     C_R   0.226452 0.956111 0.681041 -0.193537
C20   C     C_R   0.162671 0.817846 0.660999 0.034964
C21   C     C_R   0.128495 0.693186 0.719476 0.362783
C22   C     C_R   0.145304 0.706718 0.798394 -0.099176
C23   C     C_R   0.643125 0.856167 0.124485 0.540475
C24   C     C_R   0.194679 0.843353 0.818672 -0.025716
C25   C     C_R   0.710886 0.773240 0.353287 0.565202
C26   C     C_R   0.686086 0.388569 0.397255 0.526820
C27   C     C_R   0.107897 0.812455 0.359780 0.542717
C28   C     C_R   0.678821 0.799276 0.586197 0.551160
C29   C     C_R   0.678429 0.382394 0.624559 0.547940
C30   C     C_R   0.100611 0.802259 0.585759 0.566981
C31   C     C_R   0.225893 0.864694 0.898575 0.555372
C32   C     C_R   0.637643 0.284916 0.860935 0.553359
C33   C     C_R   0.647772 0.865204 0.899937 0.536820
C34   C     C_R   0.528380 0.310456 0.206097 -0.146504
C35   C     C_R   0.536464 0.321729 0.285558 -0.146370
C36   C     C_R   0.662118 0.340912 0.321440 0.016130
Cr1   Cr    Cr6+3 0.402240 0.783890 0.019450 1.015480
Cr2   Cr    Cr6+3 0.382360 0.097900 0.991800 1.007445
Cr3   Cr    Cr6+3 0.715380 0.118170 0.988700 1.018826
Cr4   Cr    Cr6+3 0.936650 0.882420 0.465510 0.990013
Cr5   Cr    Cr6+3 0.605770 0.565620 0.493360 1.011325
Cr6   Cr    Cr6+3 0.921340 0.550490 0.496380 1.075016
H1    H     H_    0.425524 0.281255 0.181196 0.129455
H2    H     H_    0.256858 0.053799 0.636777 0.144845
H3    H     H_    0.117283 0.610888 0.843588 0.144406
H4    H     H_    0.444746 0.314368 0.319024 0.128458
H5    H     H_    0.874106 0.376132 0.160748 0.141389
H6    H     H_    0.556489 0.584929 0.709812 0.135768
H7    H     H_    0.821121 0.053043 0.640821 0.134824
H8    H     H_    0.832096 0.075703 0.779940 0.157117
H9    H     H_    0.287175 0.076926 0.773374 0.154734
O1    O     O_R   0.521780 0.757110 0.108900 -0.528319
O2    O     O_R   0.513330 0.228330 0.898660 -0.501569
O3    O     O_R   0.739230 0.266130 0.888050 -0.498929
O4    O     O_R   0.712580 0.991850 0.918770 -0.506398
O5    O     O_3   0.499990 0.999980 0.999980 -0.263797
O6    O     O_R   0.083770 0.911170 0.376030 -0.521388
O7    O     O_R   0.808770 0.880340 0.383890 -0.507415
O8    O     O_R   0.584340 0.689460 0.394160 -0.510749
O9    O     O_R   0.614320 0.443940 0.423590 -0.523165
O10   O     O_R   0.805020 0.410040 0.421340 -0.515685
O11   O     O_R   0.049240 0.685450 0.403290 -0.495428
O12   O     O_R   0.275160 0.783810 0.101120 -0.501245
O13   O     O_R   0.077520 0.903010 0.551800 -0.543337
O14   O     O_R   0.802980 0.872780 0.546830 -0.513986
O15   O     O_R   0.578090 0.681300 0.569920 -0.508577
O16   O     O_R   0.608530 0.436370 0.586530 -0.516214
O17   O     O_R   0.798770 0.401880 0.597100 -0.465598
O18   O     O_R   0.043450 0.677890 0.566230 -0.427796
O19   O     O_3   0.821250 0.666180 0.485090 -0.275334
O20   O     O_R   0.237900 0.972600 0.090980 -0.509143
O21   O     O_R   0.511190 0.220540 0.061620 -0.524443
O22   O     O_R   0.736920 0.257720 0.063840 -0.521306
O23   O     O_R   0.710450 0.984050 0.081720 -0.494663
O24   O     O_R   0.524090 0.765520 0.933110 -0.505622
O25   O     O_R   0.277300 0.791600 0.938160 -0.494780
O26   O     O_R   0.240210 0.981010 0.915190 -0.516133
F1    F     F_    0.070269 0.557658 0.701687 -0.623912
C37   C     C_R   0.910330 0.344802 0.308917 0.056621
C38   C     C_R   0.053535 0.457483 0.280263 -0.085261
C39   C     C_R   0.174210 0.454024 0.311492 -0.104736
C40   C     C_R   0.153128 0.337795 0.371362 -0.116061
C41   C     C_R   0.011456 0.224222 0.399468 -0.095352
C42   C     C_R   0.890358 0.226449 0.367839 -0.050027
H10   H     H_    0.071327 0.548226 0.234047 0.117684
H11   H     H_    0.283999 0.541751 0.289481 0.134047
H12   H     H_    0.246509 0.335706 0.396008 0.111774
H13   H     H_    0.995665 0.134848 0.446057 0.148485
H14   H     H_    0.781133 0.137617 0.390080 0.121647
C43   C     C_R   0.523919 0.563167 0.864362 0.036011
C44   C     C_R   0.377197 0.470080 0.851482 -0.092069
C45   C     C_R   0.276705 0.365847 0.914297 -0.101076
C46   C     C_R   0.319540 0.358647 0.990989 -0.068126
C47   C     C_R   0.464825 0.449669 0.003681 -0.043673
C48   C     C_R   0.569355 0.541732 0.939851 -0.048431
H15   H     H_    0.337574 0.484071 0.794389 0.129948
H16   H     H_    0.163843 0.296554 0.904301 0.110892
H17   H     H_    0.240058 0.284285 0.040661 0.098003
H18   H     H_    0.496836 0.451198 0.063229 0.099519
H19   H     H_    0.681125 0.611766 0.951489 0.089000

loop_
_geom_bond_atom_site_label_1
_geom_bond_atom_site_label_2
_ccdc_geom_bond_type
C33   O4    A    
C46   C47   A    
C30   O13   A    
C19   C20   A    
C11   C43   S    
C39   C40   A    
C43   C44   A    
C43   C48   A    
Cr5   O16   S    
C20   C30   S    
C1    O20   A    
Cr4   O19   S    
C18   C24   A    
C26   O10   A    
C16   H8    S    
C18   C19   A    
C5    C6    T    
Cr3   O3    S    
C15   C16   A    
Cr6   O19   S    
C34   C35   A    
Cr3   O23   S    
C12   O22   A    
C2    C37   S    
C9    C32   S    
C44   H15   S    
C29   O16   A    
Cr1   O5    S    
C33   O24   A    
Cr3   O4    S    
C41   C42   A    
C16   C17   A    
C21   F1    S    
C45   H16   S    
C4    C12   S    
C9    C10   T    
Cr6   O11   S    
C39   H11   S    
C15   H7    S    
C41   H13   S    
Cr1   O24   S    
C13   C14   A    
Cr6   O17   S    
C17   C33   S    
C1    O12   A    
C32   O3    A    
Cr1   O12   S    
C18   H9    S    
C31   O26   A    
C4    C34   A    
Cr2   O21   S    
Cr4   O7    S    
C7    C8    T    
Cr5   O8    S    
C27   O6    A    
C44   C45   A    
Cr1   O1    S    
C48   H19   S    
Cr6   O18   S    
C35   C36   A    
C23   O1    A    
C28   O15   A    
C38   H10   S    
C27   O11   A    
C29   O17   A    
Cr3   O5    S    
C5    C23   S    
Cr6   O10   S    
C26   C36   S    
Cr1   O25   S    
Cr4   O14   S    
C22   C24   A    
C42   H14   S    
C23   O23   A    
C3    C4    A    
C32   O2    A    
C30   O18   A    
C19   H2    S    
C2    C36   A    
Cr2   O20   S    
C11   C17   A    
Cr4   O6    S    
C1    C7    S    
C34   H1    S    
Cr5   O9    S    
C38   C39   A    
C13   H6    S    
Cr5   O15   S    
Cr2   O26   S    
Cr4   O13   S    
C2    C3    A    
C24   C31   S    
C11   C13   A    
C10   C29   S    
C31   O25   A    
C37   C42   A    
Cr2   O2    S    
C47   H18   S    
C3    H5    S    
C45   C46   A    
C28   O14   A    
Cr3   O22   S    
C12   O21   A    
C47   C48   A    
C37   C38   A    
C6    C25   S    
C22   H3    S    
Cr2   O5    S    
C20   C21   A    
C40   C41   A    
C25   O7    A    
C8    C27   S    
C14   C15   A    
C25   O8    A    
C14   C28   S    
C21   C22   A    
C35   H4    S    
C26   O9    A    
C46   H17   S    
C40   H12   S    
Cr5   O19   S    
