data_mof_unit_23188.cif
_audit_creation_date              2012-10-26T19:57:48-0400
_audit_creation_method            fapswitch 2.2
_symmetry_space_group_name_H-M    P1
_symmetry_Int_Tables_number       1
_space_group_crystal_system       triclinic
_cell_length_a                    7.448417
_cell_length_b                    8.659207
_cell_length_c                    12.968857
_cell_angle_alpha                 88.612156
_cell_angle_beta                  80.104679
_cell_angle_gamma                 102.666953
_cell_volume                      802.288970865

loop_
_atom_site_label
_atom_site_type_symbol
_atom_type_description
_atom_site_fract_x
_atom_site_fract_y
_atom_site_fract_z
_atom_type_partial_charge
C1    C     C_R   0.453005 0.199808 0.502935 0.546672
C2    C     C_R   0.678143 0.643042 0.131234 -0.158042
C3    C     C_R   0.575253 0.591230 0.863212 -0.028848
C4    C     C_R   0.424747 0.408770 0.136788 -0.028848
C5    C     C_R   0.566449 0.565793 0.971709 0.031905
C6    C     C_R   0.433551 0.434207 0.028291 0.031905
C7    C     C_2   0.426545 0.032099 0.503527 -0.173388
C8    C     C_2   0.573455 0.967901 0.496473 -0.173388
C9    C     C_R   0.295668 0.267577 0.196788 0.034146
C10   C     C_R   0.365162 0.137069 0.224099 -0.085663
C11   C     C_R   0.242911 0.000931 0.276099 -0.116625
C12   C     C_R   0.546995 0.800192 0.497065 0.546672
C13   C     C_R   0.051318 0.994902 0.301575 -0.116858
C14   C     C_R   0.981571 0.125368 0.275894 -0.107825
C15   C     C_R   0.103329 0.261748 0.223854 -0.070775
C16   C     C_R   0.704331 0.732423 0.803212 0.034146
C17   C     C_R   0.896671 0.738252 0.776145 -0.070775
C18   C     C_R   0.018428 0.874633 0.724105 -0.107825
C19   C     C_R   0.948681 0.005099 0.698425 -0.116858
C20   C     C_R   0.757087 0.999069 0.723901 -0.116626
C21   C     C_R   0.634837 0.862931 0.775901 -0.085664
C22   C     C_R   0.468339 0.496574 0.700558 0.547792
C23   C     C_R   0.531661 0.503426 0.299442 0.547792
C24   C     C_R   0.546835 0.515659 0.187085 0.000260
C25   C     C_R   0.453165 0.484341 0.812915 0.000260
C26   C     C_R   0.312642 0.331143 0.975118 -0.143394
C27   C     C_R   0.687358 0.668857 0.024882 -0.143394
C28   C     C_R   0.321857 0.356957 0.868766 -0.158042
Cu1   Cu    Cu3+1 0.686350 0.517570 0.488220 0.938913
Cu2   Cu    Cu3+1 0.313650 0.482430 0.511780 0.938913
H1    H     H_    0.210991 0.228908 0.014577 0.124515
H2    H     H_    0.952006 0.638235 0.796625 0.117454
H3    H     H_    0.166910 0.879617 0.704660 0.110372
H4    H     H_    0.042901 0.111254 0.659418 0.136452
H5    H     H_    0.703449 0.100194 0.703834 0.107060
H6    H     H_    0.486731 0.859798 0.796096 0.096251
H7    H     H_    0.770574 0.725908 0.170885 0.120247
H8    H     H_    0.229426 0.274092 0.829115 0.120247
H9    H     H_    0.934665 0.377568 0.582480 0.231583
H10   H     H_    0.065335 0.622431 0.417519 0.231583
H11   H     H_    0.789009 0.771092 0.985423 0.124515
H12   H     H_    0.284899 0.961132 0.509184 0.135100
H13   H     H_    0.715101 0.038868 0.490816 0.135100
H14   H     H_    0.513268 0.140201 0.203904 0.096251
H15   H     H_    0.296549 0.899806 0.296166 0.107060
H16   H     H_    0.957098 0.888746 0.340582 0.136452
H17   H     H_    0.833089 0.120385 0.295340 0.110372
H18   H     H_    0.047994 0.361766 0.203375 0.117454
N1    N     N_2   0.033570 0.455950 0.529530 -0.255921
N2    N     N_2   0.966430 0.544050 0.470470 -0.255921
O1    O     O_R   0.621060 0.286250 0.492350 -0.508561
O2    O     O_R   0.378940 0.713750 0.507650 -0.508561
O3    O     O_R   0.306310 0.256580 0.512240 -0.502772
O4    O     O_R   0.693690 0.743420 0.487760 -0.502772
O5    O     O_R   0.631800 0.512400 0.642670 -0.495631
O6    O     O_R   0.368200 0.487600 0.357330 -0.495631
O7    O     O_R   0.317060 0.482730 0.662570 -0.514417
O8    O     O_R   0.682940 0.517270 0.337430 -0.514417

loop_
_geom_bond_atom_site_label_1
_geom_bond_atom_site_label_2
_ccdc_geom_bond_type
C23   O8    A    
C23   C24   S    
C7    H12   S    
C16   C21   A    
C11   C13   A    
C9    C10   A    
C27   H11   S    
C26   C28   A    
C19   C20   A    
C14   C15   A    
C8    H13   S    
C28   H8    S    
C8    C12   S    
C2    C27   A    
C5    C27   A    
C22   O7    A    
C17   C18   A    
C9    C15   A    
C22   O5    A    
C7    C8    D    
C21   H6    S    
C6    C26   A    
C13   C14   A    
Cu1   O8    S    
C25   C28   A    
C1    O1    A    
C2    H7    S    
Cu1   Cu2   S    
Cu2   O6    S    
C15   H18   S    
H10   N2    S    
C4    C6    A    
H9    N1    S    
Cu2   N1    S    
N1    N2    D    
Cu1   N2    S    
C2    C24   A    
C5    C6    A    
C4    C24   A    
C18   H3    S    
C11   H15   S    
C10   C11   A    
C10   H14   S    
Cu2   O7    S    
C23   O6    A    
C3    C25   A    
C20   C21   A    
C22   C25   S    
Cu2   O3    S    
C18   C19   A    
Cu1   O1    S    
Cu1   O4    S    
C17   H2    S    
C1    O3    A    
C13   H16   S    
Cu2   O2    S    
Cu1   O5    S    
C12   O2    A    
C4    C9    S    
C1    C7    S    
C14   H17   S    
C26   H1    S    
C20   H5    S    
C12   O4    A    
C3    C16   S    
C16   C17   A    
C3    C5    A    
C19   H4    S    
