data_mof_unit_66847.cif
_audit_creation_date              2012-12-11T17:02:57-0500
_audit_creation_method            fapswitch 2.2
_symmetry_space_group_name_H-M    P1
_symmetry_Int_Tables_number       1
_space_group_crystal_system       triclinic
_cell_length_a                    8.973635
_cell_length_b                    15.582409
_cell_length_c                    16.707246
_cell_angle_alpha                 100.021991
_cell_angle_beta                  95.112647
_cell_angle_gamma                 98.991257
_cell_volume                      2255.96657258

loop_
_atom_site_label
_atom_site_type_symbol
_atom_type_description
_atom_site_fract_x
_atom_site_fract_y
_atom_site_fract_z
_atom_type_partial_charge
Ba1   Ba    Ba6+2 0.163630 0.544320 0.462600 2.142028
Ba2   Ba    Ba6+2 0.646550 0.455670 0.537340 2.106621
C1    C     C_3   0.502175 0.788219 0.178887 0.131513
C2    C     C_R   0.878878 0.798047 0.533403 -0.005152
C3    C     C_R   0.082449 0.224029 0.491566 0.270353
C4    C     C_3   0.040956 0.775408 0.252994 0.294408
C5    C     C_R   0.163387 0.171210 0.532292 0.079405
C6    C     C_R   0.091651 0.087657 0.542943 -0.093152
C7    C     C_R   0.937547 0.050824 0.512605 0.091839
C8    C     C_R   0.854366 0.108931 0.473521 -0.106895
C9    C     C_R   0.866074 0.957821 0.515581 0.069018
C10   C     C_R   0.707790 0.928814 0.482858 -0.101011
C11   C     C_R   0.629773 0.991429 0.450663 -0.068906
C12   C     C_3   0.463879 0.745991 0.254844 0.513308
C13   C     C_R   0.707965 0.071420 0.435171 -0.062917
C14   C     C_R   0.943564 0.891313 0.547362 -0.058174
C15   C     C_R   0.720408 0.777314 0.509666 0.196237
C16   C     C_3   0.026254 0.850594 0.204981 -0.314251
C17   C     C_R   0.923576 0.200740 0.469090 -0.018541
C18   C     C_R   0.608782 0.537895 0.268920 0.089831
C19   C     C_R   0.462926 0.487609 0.241646 -0.087073
C20   C     C_R   0.410768 0.474227 0.156693 0.347623
C21   C     C_R   0.511954 0.497156 0.099457 0.284280
C22   C     C_R   0.663957 0.533927 0.129243 -0.137148
C23   C     C_3   0.575520 0.750135 0.765260 0.434102
C24   C     C_R   0.712590 0.557167 0.213447 0.034231
C25   C     C_R   0.399084 0.502890 0.849249 -0.196425
C26   C     C_R   0.350990 0.493353 0.765001 0.039221
C27   C     C_R   0.295365 0.479347 0.904051 0.297848
C28   C     C_3   0.704116 0.314119 0.283814 0.522764
C29   C     C_R   0.199239 0.453838 0.735337 0.085091
C30   C     C_R   0.091193 0.436911 0.789459 -0.101181
C31   C     C_R   0.139942 0.451846 0.874164 0.303029
C32   C     C_3   0.644405 0.274327 0.191032 0.107057
C33   C     C_3   0.072573 0.697084 0.730794 0.397242
C34   C     C_3   0.645321 0.799984 0.855628 0.476739
C35   C     C_3   0.151098 0.759305 0.810300 0.282078
C36   C     C_3   0.213933 0.248075 0.242954 0.373494
C37   C     C_3   0.233568 0.191563 0.157909 0.066571
C38   C     C_2   0.645840 0.177600 0.154949 0.980335
C39   C     C_2   0.955800 0.627343 0.749031 0.895313
C40   C     C_2   0.076795 0.287932 0.242301 0.878326
C41   C     C_2   0.092664 0.124736 0.118243 0.923046
C42   C     C_2   0.572049 0.726680 0.119565 0.891257
C43   C     C_2   0.496520 0.808429 0.718725 0.897345
C44   C     C_2   0.786490 0.869574 0.861050 0.977512
C45   C     C_3   0.796422 0.217530 0.725285 0.171944
C46   C     C_2   0.608213 0.876264 0.199931 0.945188
C47   C     C_2   0.938587 0.197250 0.690895 0.702592
C48   C     C_2   0.663860 0.054565 0.704190 0.885918
C49   C     C_2   0.779497 0.137538 0.848105 0.942547
C50   C     C_2   0.458517 0.293337 0.790867 0.757764
C51   C     C_2   0.212246 0.163455 0.861256 1.015288
C52   C     C_2   0.463001 0.979841 0.433775 0.951245
C53   C     C_2   0.070767 0.916487 0.613149 0.889791
C54   C     C_2   0.656307 0.096644 0.357957 0.950977
C55   C     C_2   0.962821 0.793369 0.326487 0.782149
C56   C     C_3   0.712044 0.142651 0.762956 -0.274379
C57   C     C_2   0.118564 0.938008 0.249812 1.035537
C58   C     C_3   0.346511 0.216931 0.740146 0.205051
C59   C     C_3   0.304093 0.143508 0.790564 -0.298847
C60   C     C_R   0.635635 0.837096 0.479479 -0.094419
Cl1   Cl    Cl    0.312994 0.654061 0.223389 -0.626183
Cl2   Cl    Cl    0.514680 0.854042 0.912040 -0.429775
Cl3   Cl    Cl    0.618434 0.678909 0.529714 -0.525371
Cl4   Cl    Cl    0.188080 0.318561 0.465834 -0.538813
Cl5   Cl    Cl    0.216058 0.439614 0.124761 -0.433181
Cl6   Cl    Cl    0.007107 0.433478 0.943966 -0.402792
Cl7   Cl    Cl    0.668064 0.572507 0.372616 -0.625218
Cl8   Cl    Cl    0.141642 0.429882 0.630248 -0.574107
Cl9   Cl    Cl    0.825365 0.415997 0.295401 -0.559548
Cl10  Cl    Cl    0.709394 0.336912 0.116861 -0.527519
Cl11  Cl    Cl    0.197138 0.643594 0.682806 -0.667951
Cl12  Cl    Cl    0.225222 0.701159 0.884490 -0.465821
Cl13  Cl    Cl    0.191218 0.168900 0.309253 -0.581414
Cl14  Cl    Cl    0.334685 0.807689 0.124688 -0.509854
Cl15  Cl    Cl    0.298147 0.253417 0.082818 -0.527811
Cl16  Cl    Cl    0.721282 0.726859 0.709066 -0.700106
Cl17  Cl    Cl    0.695881 0.722817 0.914769 -0.558632
H1    H     H_    0.525668 0.281416 0.188081 0.044761
H2    H     H_    0.243253 0.083828 0.747683 0.157127
H3    H     H_    0.161220 0.777621 0.272204 0.111919
H4    H     H_    0.406091 0.122297 0.817133 0.129530
H5    H     H_    0.161363 0.054973 0.577921 0.121671
H6    H     H_    0.514728 0.534103 0.872794 0.145821
H7    H     H_    0.744246 0.547174 0.086295 0.184878
H8    H     H_    0.058691 0.832926 0.142748 0.198981
H9    H     H_    0.607714 0.327322 0.317761 0.024409
H10   H     H_    0.853272 0.171131 0.207220 0.327933
H11   H     H_    0.807134 0.597864 0.828276 0.367837
H12   H     H_    0.243471 0.808079 0.796279 0.103163
H13   H     H_    0.029034 0.282513 0.118900 0.361161
H14   H     H_    0.930545 0.080445 0.022158 0.363842
H15   H     H_    0.545589 0.640563 0.013171 0.352715
H16   H     H_    0.407886 0.823750 0.608823 0.341101
H17   H     H_    0.969308 0.945726 0.932470 0.351835
H18   H     H_    0.733105 0.973471 0.156909 0.387983
H19   H     H_    0.977945 0.100257 0.752206 0.323617
H20   H     H_    0.496448 0.970694 0.629802 0.354216
H21   H     H_    0.828254 0.199047 0.966786 0.379802
H22   H     H_    0.578301 0.351446 0.900087 0.379792
H23   H     H_    0.068407 0.797512 0.838711 0.106468
H24   H     H_    0.172030 0.282974 0.841218 0.225421
H25   H     H_    0.263600 0.978298 0.476501 0.344606
H26   H     H_    0.131312 0.941721 0.735034 0.322688
H27   H     H_    0.497552 0.140394 0.290604 0.315609
H28   H     H_    0.770029 0.817972 0.363296 0.293123
H29   H     H_    0.239515 0.959946 0.156499 0.334454
H30   H     H_    0.321095 0.151854 0.170576 0.130844
H31   H     H_    0.560596 0.717807 0.277710 -0.007175
H32   H     H_    0.906317 0.859086 0.195169 0.138222
H33   H     H_    0.716606 0.227454 0.674040 0.055024
H34   H     H_    0.607574 0.165489 0.775110 0.085448
H35   H     H_    0.244158 0.242307 0.720409 -0.000835
N1    N     N_2   0.470073 0.480891 0.012119 -0.183207
N2    N     N_2   0.338874 0.492693 0.990504 -0.049866
O1    O     O_2   0.162570 0.722330 0.548140 -0.367015
O2    O     O_2   0.783699 0.451873 0.789567 -0.411666
O3    O     O_3   0.828863 0.294608 0.786328 -0.542748
O4    O     O_3   0.890730 0.608900 0.545420 -0.346242
O5    O     O_3   0.431610 0.453580 0.401830 -0.363122
O6    O     O_2   0.628250 0.544210 0.698290 -0.397273
O7    O     O_3   0.471001 0.672210 0.768492 -0.582006
O8    O     O_2   0.472639 0.181290 0.524107 -0.426468
O9    O     O_3   0.413703 0.179229 0.671858 -0.582538
O10   O     O_3   0.394120 0.666550 0.400060 -0.368937
O11   O     O_2   0.313887 0.814258 0.456378 -0.404316
O12   O     O_3   0.345480 0.310563 0.281907 -0.653576
O13   O     O_3   0.011710 0.748035 0.679366 -0.621160
O14   O     O_3   0.422323 0.809104 0.316776 -0.584917
O15   O     O_2   0.182040 0.455740 0.301680 -0.350357
O16   O     O_3   0.971530 0.620720 0.357690 -0.424070
O17   O     O_2   0.007882 0.533312 0.212022 -0.273382
O18   O     O_2   0.537655 0.135320 0.107559 -0.485167
O19   O     O_R   0.772815 0.137831 0.162829 -0.679494
O20   O     O_2   0.902498 0.563926 0.695195 -0.519340
O21   O     O_R   0.908285 0.635222 0.826816 -0.691731
O22   O     O_2   0.039222 0.311825 0.308724 -0.490143
O23   O     O_3   0.980173 0.693163 0.200915 -0.523627
O24   O     O_R   0.995496 0.304691 0.173329 -0.660042
O25   O     O_2   0.037481 0.067888 0.154004 -0.569617
O26   O     O_R   0.025204 0.127142 0.040222 -0.647772
O27   O     O_2   0.706282 0.721870 0.132117 -0.620396
O28   O     O_R   0.484442 0.677316 0.048511 -0.576589
O29   O     O_2   0.487967 0.884192 0.749918 -0.595246
O30   O     O_R   0.439632 0.776234 0.637043 -0.667487
O31   O     O_2   0.823357 0.898045 0.800756 -0.520098
O32   O     O_R   0.874849 0.902416 0.936732 -0.644922
O33   O     O_2   0.658306 0.909215 0.270680 -0.595517
O34   O     O_2   0.647720 0.277620 0.451840 -0.455703
O35   O     O_R   0.652460 0.919027 0.136653 -0.625055
O36   O     O_2   0.997244 0.246133 0.649190 -0.659972
O37   O     O_R   0.005604 0.125292 0.703025 -0.767491
O38   O     O_2   0.753889 0.004964 0.687484 -0.532548
O39   O     O_R   0.513103 0.029210 0.669292 -0.670068
O40   O     O_2   0.819572 0.069989 0.862601 -0.554786
O41   O     O_R   0.787936 0.210212 0.911724 -0.603599
O42   O     O_2   0.516958 0.351274 0.757558 -0.592374
O43   O     O_R   0.498888 0.297627 0.874537 -0.691313
O44   O     O_2   0.186822 0.107297 0.903188 -0.466967
O45   O     O_3   0.919570 0.391090 0.454510 -0.335487
O46   O     O_R   0.153795 0.241537 0.880612 -0.627814
O47   O     O_2   0.402474 0.969069 0.363616 -0.502596
O48   O     O_R   0.375317 0.989087 0.497968 -0.722618
O49   O     O_2   0.198657 0.907467 0.598743 -0.596893
O50   O     O_R   0.040785 0.940390 0.693705 -0.650920
O51   O     O_2   0.731140 0.084227 0.301066 -0.556593
O52   O     O_R   0.521022 0.129439 0.347966 -0.655181
O53   O     O_2   0.034805 0.819140 0.394004 -0.617196
O54   O     O_R   0.807401 0.784618 0.315339 -0.799887
O55   O     O_2   0.086120 0.971905 0.316063 -0.501856
O56   O     O_3   0.416180 0.333440 0.599870 -0.397004
O57   O     O_R   0.239405 0.982177 0.217017 -0.620033
O58   O     O_3   0.781108 0.257731 0.320774 -0.639509
O59   O     O_3   0.378690 0.546410 0.598100 -0.286049
O60   O     O_3   0.838770 0.379270 0.642240 -0.387108
P1    P     P_3+3 0.987060 0.708150 0.571770 1.259405
P2    P     P_3+3 0.349540 0.428350 0.313090 1.214162
P3    P     P_3+3 0.917988 0.603793 0.249677 1.253854
P4    P     P_3+3 0.823240 0.291840 0.428170 1.177425
P5    P     P_3+3 0.887128 0.391537 0.749148 1.218654
P6    P     P_3+3 0.446828 0.781675 0.414865 1.103047
P7    P     P_3+3 0.463958 0.564564 0.704313 1.266284
P8    P     P_3+3 0.362275 0.217297 0.581920 1.143371

loop_
_geom_bond_atom_site_label_1
_geom_bond_atom_site_label_2
_ccdc_geom_bond_type
Ba2   O34   S    
C35   Cl12  S    
C4    H3    S    
C32   Cl10  S    
C40   O22   D    
C58   H35   S    
C2    P1    S    
Ba1   O16   S    
C28   Cl9   S    
C5    C6    A    
C45   C47   S    
C24   P3    S    
C10   C11   A    
C31   Cl6   S    
C5    P8    S    
C43   O29   D    
C37   Cl15  S    
C47   O37   S    
C58   O9    S    
C33   C35   S    
C26   P7    S    
C22   C24   A    
O8    P8    D    
C8    C13   A    
C36   C37   S    
C15   C60   A    
C51   O46   S    
O2    P5    D    
C25   C27   A    
C45   H33   S    
C27   C31   A    
C1    C46   S    
H26   O50   S    
C22   H7    S    
Ba1   Ba2   S    
O3    P5    S    
C4    O23   S    
C25   H6    S    
O7    P7    S    
C50   C58   S    
C32   H1    S    
C51   C59   S    
H21   O41   S    
C29   Cl8   S    
C44   O32   S    
C29   C30   A    
C6    C7    A    
C51   O44   D    
H20   O39   S    
C56   H34   S    
C21   C22   A    
C34   C44   S    
C52   O47   D    
C33   Cl11  S    
C7    C8    A    
C48   O39   S    
C39   O21   S    
Ba2   O60   S    
C50   O43   S    
C45   O3    S    
H19   O37   S    
Ba1   O45   S    
C46   O33   D    
O9    P8    S    
C4    C55   S    
H16   O30   S    
Ba2   P4    S    
C57   O55   D    
Ba2   O45   S    
O15   P2    D    
O1    P1    D    
C55   O53   D    
C36   Cl13  S    
Ba2   O6    S    
C50   O42   D    
O60   P5    S    
C1    C42   S    
C38   O19   S    
C49   O40   D    
C35   H12   S    
C40   O24   S    
C43   O30   S    
C48   C56   S    
C38   O18   D    
C30   P5    S    
Ba1   O10   S    
C59   H4    S    
C3    C5    A    
C28   C32   S    
O17   P3    D    
C37   C41   S    
O16   P3    S    
Ba1   O15   S    
O13   P1    S    
C49   O41   S    
C23   Cl16  S    
H17   O32   S    
C58   C59   S    
Ba1   O4    S    
H27   O52   S    
C2    C14   A    
O4    P1    S    
Ba2   O59   S    
C60   P6    S    
C10   C60   A    
Ba1   P2    S    
O56   P8    S    
C44   O31   D    
C8    C17   A    
C42   O28   S    
H29   O57   S    
C54   O52   S    
H18   O35   S    
C49   C56   S    
Ba1   O1    S    
C16   H32   S    
O45   P4    S    
C1    Cl14  S    
C23   O7    S    
C1    C12   S    
H10   O19   S    
C4    C16   S    
C2    C15   A    
C19   P2    S    
C27   N2    S    
C7    C9    A    
O14   P6    S    
C32   C38   S    
C18   Cl7   S    
O10   P6    S    
O12   P2    S    
C53   O49   D    
C28   H9    S    
H13   O24   S    
C23   C43   S    
C34   Cl2   S    
H11   O21   S    
O34   P4    D    
C55   O54   S    
C12   O14   S    
Ba2   O5    S    
C12   H31   S    
C33   O13   S    
Ba1   O59   S    
H24   O46   S    
Ba2   O4    S    
C47   O36   D    
C6    H5    S    
O59   P7    S    
C26   C29   A    
C3    Cl4   S    
C57   O57   S    
C34   Cl17  S    
H25   O48   S    
C36   O12   S    
C9    C10   A    
C36   C40   S    
O5    P2    S    
C3    C17   A    
C11   C52   S    
O58   P4    S    
C15   Cl3   S    
C16   H8    S    
H15   O28   S    
C13   C54   S    
C11   C13   A    
C14   C53   S    
C59   H2    S    
C30   C31   A    
C45   C56   S    
C35   H23   S    
C18   C24   A    
C48   O38   D    
C42   O27   D    
C12   Cl1   S    
C54   O51   D    
C33   C39   S    
Ba1   O5    S    
C20   Cl5   S    
C9    C14   A    
O23   P3    S    
C23   C34   S    
C21   N1    S    
C16   C57   S    
C37   H30   S    
C18   C19   A    
H22   O43   S    
C46   O35   S    
C25   C26   A    
O11   P6    D    
O6    P7    D    
C20   C21   A    
C41   O26   S    
C53   O50   S    
C52   O48   S    
C19   C20   A    
Ba1   P1    S    
C17   P4    S    
C28   O58   S    
C39   O20   D    
H14   O26   S    
N1    N2    D    
C41   O25   D    
Ba2   O56   S    
H28   O54   S    
