data_mof_unit_23553.cif
_audit_creation_date              2012-12-11T17:05:29-0500
_audit_creation_method            fapswitch 2.2
_symmetry_space_group_name_H-M    P1
_symmetry_Int_Tables_number       1
_space_group_crystal_system       triclinic
_cell_length_a                    6.981139
_cell_length_b                    14.512104
_cell_length_c                    16.063056
_cell_angle_alpha                 90.053791
_cell_angle_beta                  90.138411
_cell_angle_gamma                 90.127533
_cell_volume                      1627.35500544

loop_
_atom_site_label
_atom_site_type_symbol
_atom_type_description
_atom_site_fract_x
_atom_site_fract_y
_atom_site_fract_z
_atom_type_partial_charge
O1    O     O_R   0.494380 0.415640 0.412830 -0.538899
O2    O     O_R   0.823960 0.405540 0.586560 -0.544659
O3    O     O_R   0.994270 0.584360 0.587170 -0.545440
C1    C     C_R   0.655257 0.383491 0.615106 0.695235
O4    O     O_R   0.824090 0.404620 0.413450 -0.540802
O5    O     O_R   0.994400 0.583430 0.412820 -0.541448
C2    C     C_R   0.655171 0.382453 0.384596 0.695265
O6    O     O_R   0.494250 0.416570 0.587180 -0.538528
O7    O     O_3   0.660800 0.558670 0.500000 -0.362911
V1    V     V_3+5 0.935650 0.489120 0.500000 1.394792
O8    O     O_R   0.324110 0.594460 0.413440 -0.538021
C3    C     C_R   0.155100 0.616632 0.384840 0.692881
O9    O     O_R   0.323980 0.595380 0.586550 -0.518919
C4    C     C_R   0.156173 0.616392 0.615861 0.686929
V2    V     V_3+5 0.435660 0.510880 0.500000 1.423352
O10   O     O_3   0.160640 0.441330 0.500000 -0.373961
C5    C     C_3   0.011706 0.650475 0.756263 -0.437807
H1    H     H_    0.871543 0.628798 0.729726 0.162951
H2    H     H_    0.072973 0.588765 0.787535 0.134156
C6    C     C_3   0.979340 0.727829 0.821339 -0.336177
H3    H     H_    0.977007 0.698763 0.885384 0.149814
H4    H     H_    0.839737 0.757426 0.807152 0.202562
H5    H     H_    0.927140 0.774750 0.635949 0.153375
H6    H     H_    0.961084 0.894209 0.729199 0.137554
C7    C     C_3   0.078881 0.780394 0.656443 -0.321943
C8    C     C_3   0.351766 0.696730 0.728703 0.030770
C9    C     C_3   0.150226 0.684729 0.687117 0.116989
H7    H     H_    0.404832 0.627023 0.746608 0.092093
C10   C     C_3   0.131013 0.805788 0.812907 0.028832
C11   C     C_3   0.095174 0.853104 0.727324 -0.349598
C12   C     C_3   0.330751 0.754367 0.810770 -0.140712
H8    H     H_    0.324659 0.702625 0.862162 0.081620
H9    H     H_    0.160932 0.803794 0.601115 0.137112
H10   H     H_    0.213157 0.902191 0.713564 0.172944
C13   C     C_R   0.274938 0.751515 0.188598 0.101387
C14   C     C_R   0.118189 0.810752 0.179524 -0.116108
C15   C     C_R   0.965752 0.800077 0.236026 -0.173419
H11   H     H_    0.842498 0.844677 0.231881 0.149571
C16   C     C_R   0.977387 0.736660 0.302314 -0.181116
H12   H     H_    0.861486 0.733364 0.346725 0.136334
C17   C     C_R   0.142458 0.682518 0.314453 -0.109349
C18   C     C_R   0.286872 0.689078 0.254376 0.098617
C19   C     C_3   0.495586 0.706590 0.265700 -0.421635
C20   C     C_3   0.482647 0.774187 0.193761 -0.392057
H13   H     H_    0.583247 0.644780 0.251250 0.171491
H14   H     H_    0.527446 0.740288 0.326360 0.179234
H15   H     H_    0.562133 0.751285 0.137568 0.181374
H16   H     H_    0.507869 0.846967 0.212579 0.192991
C21   C     C_R   0.493382 0.316014 0.740821 0.093848
C22   C     C_R   0.647589 0.317381 0.685178 -0.110428
C23   C     C_R   0.798913 0.255498 0.700195 -0.173984
H17   H     H_    0.921318 0.254170 0.659194 0.136346
C24   C     C_R   0.787565 0.190131 0.764733 -0.175444
H18   H     H_    0.902261 0.140765 0.771791 0.125406
C25   C     C_R   0.624252 0.184536 0.815946 -0.100461
C26   C     C_R   0.481763 0.251099 0.804468 0.097102
C27   C     C_3   0.271662 0.238747 0.792109 -0.406977
C28   C     C_3   0.284212 0.309952 0.723060 -0.398040
H19   H     H_    0.187724 0.262633 0.846709 0.170251
H20   H     H_    0.235534 0.168516 0.769204 0.170350
H21   H     H_    0.208375 0.375198 0.737915 0.160997
H22   H     H_    0.254486 0.281242 0.660144 0.174506
C29   C     C_R   0.500920 0.246065 0.312419 0.077823
C30   C     C_R   0.647533 0.311982 0.317309 -0.100147
C31   C     C_R   0.795087 0.305208 0.257600 -0.156038
H23   H     H_    0.914671 0.352689 0.259560 0.112190
C32   C     C_R   0.783389 0.241121 0.191295 -0.123931
H24   H     H_    0.894823 0.241009 0.144589 0.109567
C33   C     C_R   0.624348 0.181447 0.182898 -0.104504
C34   C     C_R   0.490396 0.182503 0.247681 0.118725
C35   C     C_3   0.276552 0.183564 0.247212 -0.193156
C36   C     C_3   0.288331 0.253915 0.318198 -0.445104
H25   H     H_    0.216761 0.211882 0.188438 0.099879
H26   H     H_    0.233607 0.228734 0.379068 0.181398
H27   H     H_    0.237586 0.323603 0.300144 0.164122
O11   O     O_R   0.771490 0.080820 0.910070 -0.550429
O12   O     O_R   0.441590 0.092730 0.083780 -0.548115
O13   O     O_R   0.271350 0.913900 0.084390 -0.531437
C37   C     C_R   0.610840 0.114915 0.112600 0.702367
O14   O     O_R   0.441780 0.091820 0.910670 -0.539872
O15   O     O_R   0.271540 0.912980 0.910040 -0.524311
C38   C     C_R   0.610734 0.113795 0.882048 0.681066
O16   O     O_R   0.771300 0.081740 0.084420 -0.535224
O17   O     O_3   0.604960 0.938700 0.997240 -0.338816
V3    V     V_3+5 0.330090 0.008230 0.997220 1.452826
O18   O     O_R   0.941820 0.901930 0.910640 -0.531089
C39   C     C_R   0.112394 0.877013 0.883599 0.665558
O19   O     O_R   0.941630 0.902840 0.083750 -0.539721
C40   C     C_R   0.110332 0.880977 0.112577 0.718597
V4    V     V_3+5 0.830090 0.986410 0.997190 1.459007
O20   O     O_3   0.105080 0.055990 0.997200 -0.381847
C41   C     C_2   0.504084 0.812217 0.830825 0.737802
O21   O     O_2   0.592841 0.795989 0.894856 -0.562171
O22   O     O_R   0.552463 0.888415 0.781856 -0.685502
H28   H     H_    0.664597 0.924527 0.805131 0.285010
C42   C     C_2   0.189621 0.092742 0.272794 0.796419
O23   O     O_2   0.017871 0.088091 0.286759 -0.558897
O24   O     O_R   0.303995 0.014104 0.280127 -0.671817
H29   H     H_    0.228630 0.958036 0.298714 0.285617
N1    N     N_3   0.490291 0.735219 0.669047 -0.647841
H30   H     H_    0.628063 0.729721 0.693567 0.217596
H31   H     H_    0.463154 0.804539 0.656859 0.264215

loop_
_geom_bond_atom_site_label_1
_geom_bond_atom_site_label_2
_ccdc_geom_bond_type
C14   C40   S    
C28   H22   S    
C25   C26   A    
C12   C41   S    
C17   C18   A    
C13   C14   A    
C1    O6    A    
V3    O20   S    
C16   C17   A    
C24   H18   S    
C8    C9    S    
C10   C11   S    
C14   C15   A    
C15   H11   S    
O5    C3    A    
C27   H19   S    
V2    O10   S    
O24   H29   S    
C5    C6    S    
C26   C27   S    
C13   C18   A    
N1    H30   S    
O8    V2    S    
C31   C32   A    
C42   O24   S    
C34   C35   S    
O1    V2    S    
C4    C9    S    
O7    V1    S    
C20   H15   S    
O19   C40   A    
C28   H21   S    
C24   C25   A    
O12   V3    S    
C8    C12   S    
O9    C4    A    
O22   H28   S    
O17   V4    S    
C36   H27   S    
N1    H31   S    
C5    H1    S    
C6    C10   S    
O12   C37   A    
O13   C40   A    
C11   H10   S    
C32   H24   S    
C5    C9    S    
O17   V3    S    
O14   C38   A    
O18   V4    S    
O11   C38   A    
C16   H12   S    
O4    C2    A    
O18   C39   A    
C27   H20   S    
C35   C42   S    
C21   C28   S    
C23   H17   S    
C1    C22   S    
C23   C24   A    
O2    C1    A    
C19   C20   S    
O14   V3    S    
C12   H8    S    
C29   C34   A    
C42   O23   D    
C41   O22   S    
C22   C23   A    
C29   C36   S    
C25   C38   S    
C13   C20   S    
C19   H13   S    
O15   C39   A    
O3    C4    A    
O13   V3    S    
C36   H26   S    
O19   V4    S    
C31   H23   S    
O6    V2    S    
O9    V2    S    
C33   C37   S    
C18   C19   S    
V4    O20   S    
O2    V1    S    
C3    C17   S    
C35   H25   S    
C7    C11   S    
O16   V4    S    
O1    C2    A    
C6    H4    S    
O5    V1    S    
O8    C3    A    
C7    C9    S    
C21   C26   A    
C8    H7    S    
C30   C31   A    
O7    V2    S    
C35   C36   S    
C10   C12   S    
O3    V1    S    
V1    O10   S    
C37   O16   A    
C27   C28   S    
C41   O21   D    
C5    H2    S    
H5    C7    S    
C33   C34   A    
C19   H14   S    
H6    C11   S    
C2    C30   S    
C10   C39   S    
O11   V4    S    
C29   C30   A    
O4    V1    S    
C6    H3    S    
C15   C16   A    
C21   C22   A    
C8    N1    S    
C32   C33   A    
O15   V3    S    
C20   H16   S    
C7    H9    S    
