data_mof_unit_43572.cif
_audit_creation_date              2012-10-26T19:20:37-0400
_audit_creation_method            fapswitch 2.2
_symmetry_space_group_name_H-M    P1
_symmetry_Int_Tables_number       1
_space_group_crystal_system       triclinic
_cell_length_a                    10.795444
_cell_length_b                    11.108132
_cell_length_c                    9.822752
_cell_angle_alpha                 111.194852
_cell_angle_beta                  97.775504
_cell_angle_gamma                 91.089766
_cell_volume                      1085.19478339

loop_
_atom_site_label
_atom_site_type_symbol
_atom_type_description
_atom_site_fract_x
_atom_site_fract_y
_atom_site_fract_z
_atom_type_partial_charge
C1    C     C_R   0.488863 0.254778 0.440914 0.536441
C2    C     C_R   0.736926 0.499071 0.497940 0.524047
C3    C     C_R   0.152789 0.729730 0.674992 -0.105247
C4    C     C_R   0.847213 0.270271 0.325033 -0.105239
C5    C     C_R   0.099586 0.843018 0.755279 0.064193
C6    C     C_R   0.900419 0.156968 0.244795 0.064191
C7    C     C_R   0.969170 0.843168 0.743805 -0.092829
C8    C     C_R   0.030835 0.156811 0.256290 -0.092770
C9    C     C_R   0.893603 0.731593 0.657271 -0.103453
C10   C     C_R   0.106402 0.268398 0.342788 -0.103425
C11   C     C_R   0.946278 0.615034 0.580435 0.011048
C12   C     C_R   0.511143 0.745222 0.559086 0.536448
C13   C     C_R   0.053724 0.384967 0.419587 0.011035
C14   C     C_R   0.077277 0.614511 0.587498 -0.015845
C15   C     C_R   0.922724 0.385493 0.412515 -0.015843
C16   C     C_R   0.870410 0.500290 0.494653 0.000742
C17   C     C_R   0.129591 0.499716 0.505352 0.000736
C18   C     C_2   0.180465 0.960696 0.851552 0.581518
C19   C     C_2   0.819541 0.039277 0.148561 0.581446
C20   C     C_1   0.594553 0.871503 0.373597 0.228207
C21   C     C_1   0.405443 0.128485 0.626382 0.228232
C22   C     C_2   0.495657 0.117398 0.408730 -0.129037
C23   C     C_2   0.504363 0.882603 0.591267 -0.129028
C24   C     C_2   0.477385 0.064325 0.508251 -0.049089
C25   C     C_2   0.522625 0.935670 0.491738 -0.049094
C26   C     C_2   0.513095 0.507152 0.080203 0.001670
C27   C     C_2   0.486908 0.492844 0.919796 0.001664
C28   C     C_R   0.263074 0.500934 0.502061 0.524053
Cu1   Cu    Cu3+1 0.521920 0.521810 0.644910 0.981945
Cu2   Cu    Cu3+1 0.478080 0.478190 0.355090 0.981977
H1    H     H_    0.074915 0.070287 0.197597 0.174169
H2    H     H_    0.591825 0.571463 0.150660 0.178889
H3    H     H_    0.629617 0.614696 0.931900 0.232847
H4    H     H_    0.370381 0.385306 0.068101 0.232837
H5    H     H_    0.354882 0.040453 0.948204 0.352420
H6    H     H_    0.645141 0.959562 0.051747 0.352399
H7    H     H_    0.925090 0.929679 0.802538 0.174122
H8    H     H_    0.253545 0.733052 0.681463 0.172695
H9    H     H_    0.746456 0.266951 0.318550 0.172676
H10   H     H_    0.793387 0.738479 0.651093 0.140656
H11   H     H_    0.206618 0.261512 0.348978 0.140654
H12   H     H_    0.470001 0.937536 0.692906 0.154270
H13   H     H_    0.530037 0.062474 0.307100 0.154208
H14   H     H_    0.408180 0.428529 0.849337 0.178880
N1    N     N_2   0.445130 0.445420 0.137360 -0.346167
N2    N     N_2   0.554870 0.554580 0.862640 -0.346172
N3    N     N_1   0.652545 0.821860 0.280297 -0.296452
N4    N     N_1   0.347441 0.178124 0.719673 -0.296502
O1    O     O_R   0.511700 0.332340 0.577400 -0.480918
O2    O     O_R   0.310108 0.954240 0.880405 -0.715889
O3    O     O_2   0.865954 0.936526 0.093020 -0.516082
O4    O     O_R   0.689918 0.045793 0.119486 -0.715870
O5    O     O_R   0.488300 0.667660 0.422600 -0.480917
O6    O     O_R   0.474680 0.295500 0.332650 -0.490200
O7    O     O_R   0.525320 0.704500 0.667350 -0.490216
O8    O     O_R   0.338170 0.518410 0.622370 -0.504445
O9    O     O_R   0.661830 0.481590 0.377630 -0.504434
O10   O     O_R   0.301150 0.481570 0.377630 -0.489973
O11   O     O_R   0.698850 0.518430 0.622370 -0.489992
O12   O     O_2   0.134037 0.063382 0.907327 -0.516189

loop_
_geom_bond_atom_site_label_1
_geom_bond_atom_site_label_2
_ccdc_geom_bond_type
C6    C8    A    
C1    O6    A    
C26   H2    S    
Cu1   Cu2   S    
H3    N2    S    
Cu1   O8    S    
C28   O10   A    
C2    C16   S    
C11   C16   A    
Cu2   N1    S    
C12   O5    A    
H6    O4    S    
C4    H9    S    
C13   C17   A    
Cu1   N2    S    
C9    C11   A    
C21   N4    T    
H5    O2    S    
C13   C15   A    
C28   O8    A    
C2    O9    A    
C1    C22   S    
H4    N1    S    
Cu1   O1    S    
C10   H11   S    
C6    C19   S    
Cu2   O6    S    
C14   C17   A    
C26   C27   S    
C23   H12   S    
C3    C14   A    
Cu2   O10   S    
C27   N2    D    
C18   O12   D    
C11   C14   A    
C19   O4    S    
C7    C9    A    
C23   C25   D    
C4    C15   A    
C7    H7    S    
Cu2   O5    S    
C22   C24   D    
C20   N3    T    
C20   C25   S    
C15   C16   A    
C12   O7    A    
Cu2   O9    S    
C19   O3    D    
C24   C25   S    
C18   O2    S    
C8    C10   A    
C4    C6    A    
C21   C24   S    
C5    C7    A    
Cu1   O11   S    
C2    O11   A    
C12   C23   S    
C5    C18   S    
Cu1   O7    S    
C26   N1    D    
C17   C28   S    
C1    O1    A    
C27   H14   S    
C9    H10   S    
C8    H1    S    
C22   H13   S    
C3    H8    S    
C3    C5    A    
C10   C13   A    
