data_mof_unit_40195.cif
_audit_creation_date              2012-12-10T18:30:22-0500
_audit_creation_method            fapswitch 2.2
_symmetry_space_group_name_H-M    P1
_symmetry_Int_Tables_number       1
_space_group_crystal_system       triclinic
_cell_length_a                    15.01061
_cell_length_b                    14.167328
_cell_length_c                    15.513703
_cell_angle_alpha                 89.78074
_cell_angle_beta                  81.340184
_cell_angle_gamma                 104.553963
_cell_volume                      3153.88457256

loop_
_atom_site_label
_atom_site_type_symbol
_atom_type_description
_atom_site_fract_x
_atom_site_fract_y
_atom_site_fract_z
_atom_type_partial_charge
C1    C     C_R   0.559207 0.512528 0.337903 0.885240
C2    C     C_R   0.440810 0.487430 0.662071 0.885072
C3    C     C_R   0.558114 0.516189 0.099137 0.073462
C4    C     C_R   0.441055 0.480244 0.900950 0.071917
C5    C     C_R   0.643090 0.493688 0.066126 0.091463
C6    C     C_R   0.356239 0.503023 0.934136 0.082855
C7    C     C_R   0.488356 0.506143 0.045011 0.074564
C8    C     C_R   0.510613 0.489324 0.955219 0.087087
C9    C     C_R   0.603069 0.488107 0.921607 -0.238393
C10   C     C_R   0.395759 0.506719 0.078782 -0.215850
C11   C     C_R   0.666630 0.484453 0.976892 -0.233706
C12   C     C_R   0.332334 0.510993 0.023524 -0.212675
C13   C     C_R   0.160306 0.351396 0.365519 0.397418
C14   C     C_R   0.838605 0.640045 0.640401 0.416982
C15   C     C_R   0.249878 0.382742 0.386210 -0.139134
C16   C     C_R   0.749984 0.613921 0.616396 -0.139233
C17   C     C_R   0.204825 0.493559 0.486868 -0.054814
C18   C     C_R   0.794845 0.507230 0.511297 -0.052105
C19   C     C_R   0.114568 0.471125 0.465115 -0.096485
C20   C     C_R   0.885844 0.530040 0.531097 -0.097713
C21   C     C_R   0.090880 0.395525 0.405757 -0.047618
C22   C     C_R   0.909578 0.603537 0.592327 -0.054178
C23   C     C_R   0.498390 0.329160 0.499766 0.879764
C24   C     C_R   0.501602 0.670839 0.500239 0.879408
C25   C     C_R   0.047131 0.518853 0.503581 0.054363
C26   C     C_R   0.953751 0.484323 0.489854 0.061017
C27   C     C_R   0.930580 0.404389 0.436207 -0.364245
C28   C     C_R   0.070975 0.601071 0.554430 -0.357566
C29   C     C_R   0.998300 0.363949 0.390253 0.498631
C30   C     C_R   0.003394 0.639896 0.602519 0.494992
C31   C     C_1   0.495671 0.226841 0.499091 -0.212679
C32   C     C_1   0.504283 0.773151 0.500928 -0.205801
C33   C     C_1   0.496152 0.141642 0.499170 -0.010720
C34   C     C_1   0.503749 0.858336 0.500856 -0.006373
C35   C     C_1   0.498628 0.042280 0.499722 0.008256
C36   C     C_1   0.501230 0.957686 0.500308 0.009266
C37   C     C_R   0.597391 0.517213 0.244668 -0.098929
C38   C     C_R   0.402591 0.482078 0.755278 -0.099660
C39   C     C_R   0.703968 0.481810 0.122608 -0.210380
C40   C     C_R   0.295947 0.516595 0.877663 -0.205938
C41   C     C_R   0.678895 0.486453 0.212747 0.167962
C42   C     C_R   0.321461 0.513334 0.787445 0.166811
C43   C     C_R   0.546359 0.546562 0.185508 0.083088
C44   C     C_R   0.452997 0.451140 0.814172 0.081540
H1    H     H_    0.734729 0.475524 0.949607 0.143680
H2    H     H_    0.264245 0.519894 0.050883 0.149995
H3    H     H_    0.859551 0.369182 0.430336 0.149061
H4    H     H_    0.142477 0.639108 0.555999 0.155611
H5    H     H_    0.768265 0.463018 0.096745 0.142680
H6    H     H_    0.231850 0.535706 0.903670 0.141973
H7    H     H_    0.627433 0.489136 0.852602 0.158307
H8    H     H_    0.371303 0.504981 0.147877 0.176999
H9    H     H_    0.772331 0.458832 0.461214 0.140506
H10   H     H_    0.226462 0.543179 0.536517 0.139240
H11   H     H_    0.695315 0.645356 0.647299 0.149498
H12   H     H_    0.305192 0.352447 0.354841 0.152060
N1    N     N_R   0.268300 0.449640 0.447270 -0.113449
N2    N     N_R   0.731700 0.550360 0.552730 -0.113648
O1    O     O_R   0.616880 0.525390 0.394380 -0.602528
O2    O     O_R   0.383120 0.474610 0.605620 -0.602643
O3    O     O_R   0.468100 0.493070 0.360490 -0.603573
O4    O     O_R   0.531900 0.506930 0.639510 -0.608924
O5    O     O_R   0.574410 0.389880 0.516950 -0.594073
O6    O     O_R   0.425590 0.610120 0.483050 -0.594182
O7    O     O_R   0.425630 0.357560 0.483060 -0.597044
O8    O     O_R   0.574370 0.642440 0.516940 -0.588113
Zn1   Zn    Zn3+2 0.599340 0.521580 0.522630 0.929245
Zn2   Zn    Zn3+2 0.400660 0.478420 0.477370 0.925535
C45   C     C_3   0.500485 0.370170 0.788579 -0.892027
H13   H     H_    0.568723 0.398619 0.746333 0.253145
H14   H     H_    0.510626 0.330683 0.846812 0.247647
H15   H     H_    0.455646 0.315014 0.752250 0.233948
C46   C     C_3   0.498254 0.627297 0.210147 -0.894301
H16   H     H_    0.487927 0.665892 0.151480 0.245112
H17   H     H_    0.430033 0.598845 0.252407 0.258245
H18   H     H_    0.542758 0.683215 0.246099 0.233701
C47   C     C_3   0.261001 0.542806 0.728472 -0.901953
H19   H     H_    0.303042 0.603374 0.682376 0.238195
H20   H     H_    0.228948 0.479265 0.691935 0.257392
H21   H     H_    0.203294 0.568412 0.766230 0.213933
C48   C     C_3   0.740249 0.459001 0.271871 -0.904127
H22   H     H_    0.699048 0.398584 0.318509 0.236864
H23   H     H_    0.798445 0.433966 0.234382 0.212670
H24   H     H_    0.771691 0.523418 0.307723 0.259205
O9    O     O_3   0.972305 0.285301 0.338239 -0.570588
C49   C     C_3   0.928475 0.311573 0.270606 0.125126
H25   H     H_    0.961620 0.387629 0.243758 0.125916
H26   H     H_    0.853393 0.303843 0.294949 0.134816
C50   C     C_3   0.935551 0.242927 0.196241 -0.798835
H27   H     H_    0.901263 0.166428 0.219839 0.249780
H28   H     H_    0.900513 0.262418 0.143135 0.195824
H29   H     H_    0.009895 0.249000 0.169925 0.275629
O10   O     O_3   0.030799 0.723842 0.647708 -0.551524
C51   C     C_3   0.070663 0.702514 0.719924 0.133128
H30   H     H_    0.134927 0.677937 0.698832 0.116805
H31   H     H_    0.019895 0.645326 0.764455 0.132484
C52   C     C_3   0.097946 0.794676 0.770103 -0.790127
H32   H     H_    0.036633 0.824568 0.789778 0.274389
H33   H     H_    0.125209 0.777833 0.829459 0.192025
H34   H     H_    0.152932 0.850652 0.728484 0.252509
O11   O     O_3   0.142514 0.283241 0.302351 -0.575647
C53   C     C_3   0.149400 0.191869 0.333583 0.149160
H35   H     H_    0.108586 0.171905 0.400257 0.145703
H36   H     H_    0.223446 0.192475 0.334737 0.116248
C54   C     C_3   0.110575 0.113413 0.272792 -0.783278
H37   H     H_    0.148570 0.131671 0.205259 0.248477
H38   H     H_    0.118742 0.041870 0.294966 0.201240
H39   H     H_    0.035393 0.107597 0.273125 0.271096
O12   O     O_3   0.857151 0.703549 0.707232 -0.559025
C55   C     C_3   0.798501 0.663910 0.785985 0.090847
H40   H     H_    0.795682 0.585259 0.796920 0.114374
H41   H     H_    0.726879 0.672282 0.785622 0.140759
C56   C     C_3   0.835429 0.718581 0.862676 -0.807234
H42   H     H_    0.844538 0.798209 0.851913 0.263739
H43   H     H_    0.785376 0.693124 0.923534 0.216453
H44   H     H_    0.903189 0.704487 0.870733 0.238914

loop_
_geom_bond_atom_site_label_1
_geom_bond_atom_site_label_2
_ccdc_geom_bond_type
C43   C46   S    
C7    C10   A    
O10   C51   S    
C14   O12   S    
C46   H17   S    
C46   H16   S    
C35   C36   T    
C9    H7    S    
C4    C8    A    
C10   H8    S    
C52   H34   S    
C52   H32   S    
C7    C8    A    
C39   C41   A    
C47   H19   S    
C25   C28   A    
C54   H38   S    
C3    C43   A    
C26   C27   A    
O11   C53   S    
O4    Zn1   S    
O6    Zn2   S    
C19   C21   A    
C5    C11   A    
C30   O10   S    
C3    C7    A    
C1    O1    A    
C6    C12   A    
C2    O2    A    
C23   O5    A    
C27   C29   A    
C53   C54   S    
C45   H14   S    
C55   H40   S    
C18   H9    S    
O1    Zn1   S    
C18   N2    A    
C8    C9    A    
C31   C33   T    
C50   H28   S    
C29   O9    S    
C24   O8    A    
C56   H44   S    
C40   C42   A    
O8    Zn1   S    
C24   O6    A    
C15   N1    A    
C53   H35   S    
C52   H33   S    
C48   H22   S    
C47   H20   S    
C54   H39   S    
O5    Zn1   S    
C6    C40   A    
C4    C6    A    
C49   H25   S    
C17   C19   A    
C4    C44   A    
C51   C52   S    
C25   C26   A    
O9    C49   S    
C21   C29   A    
C23   C31   S    
C37   C43   A    
C45   H15   S    
C53   H36   S    
C24   C32   S    
C38   C44   A    
C2    C38   S    
O7    Zn2   S    
C41   C48   S    
C13   C21   A    
C44   C45   S    
C16   N2    A    
C50   H29   S    
C51   H31   S    
C9    C11   A    
C55   C56   S    
C10   C12   A    
C12   H2    S    
C39   H5    S    
C20   C22   A    
C51   H30   S    
C13   C15   A    
C46   H18   S    
C14   C16   A    
C11   H1    S    
N1    Zn2   S    
C13   O11   S    
C48   H24   S    
C56   H42   S    
C47   H21   S    
C27   H3    S    
C28   H4    S    
C22   C30   A    
C3    C5    A    
C49   C50   S    
C1    O3    A    
C48   H23   S    
C18   C20   A    
C38   C42   A    
C1    C37   S    
C54   H37   S    
C15   H12   S    
C23   O7    A    
C5    C39   A    
C16   H11   S    
O12   C55   S    
O3    Zn2   S    
C14   C22   A    
C20   C26   A    
C40   H6    S    
C28   C30   A    
C33   C35   S    
C34   C36   S    
C49   H26   S    
C37   C41   A    
C45   H13   S    
C19   C25   A    
C55   H41   S    
N2    Zn1   S    
O2    Zn2   S    
C42   C47   S    
C17   N1    A    
C50   H27   S    
C17   H10   S    
C2    O4    A    
C32   C34   T    
C56   H43   S    
