data_mof_unit_49437.cif
_audit_creation_date              2012-12-11T15:54:48-0500
_audit_creation_method            fapswitch 2.2
_symmetry_space_group_name_H-M    P1
_symmetry_Int_Tables_number       1
_space_group_crystal_system       triclinic
_cell_length_a                    17.558771
_cell_length_b                    24.334948
_cell_length_c                    15.03291
_cell_angle_alpha                 90.033129
_cell_angle_beta                  125.728391
_cell_angle_gamma                 90.043217
_cell_volume                      5214.50529114

loop_
_atom_site_label
_atom_site_type_symbol
_atom_type_description
_atom_site_fract_x
_atom_site_fract_y
_atom_site_fract_z
_atom_type_partial_charge
C1    C     C_R   0.905560 0.870469 0.091070 -0.138873
C2    C     C_R   0.905363 0.129348 0.091003 -0.134329
C3    C     C_R   0.402130 0.376455 0.092165 -0.143232
C4    C     C_R   0.402002 0.623433 0.092077 -0.138642
C5    C     C_R   0.061393 0.849234 0.907943 -0.178490
C6    C     C_R   0.060496 0.151054 0.907984 -0.176886
C7    C     C_R   0.557167 0.347884 0.908444 -0.185799
C8    C     C_R   0.556432 0.652305 0.908484 -0.184525
C9    C     C_R   0.148781 0.152195 0.090919 -0.097824
C10   C     C_R   0.150439 0.848410 0.091171 -0.096139
C11   C     C_R   0.646049 0.652879 0.090879 -0.089218
C12   C     C_R   0.647507 0.347616 0.091101 -0.088418
C13   C     C_R   0.323609 0.001265 0.275147 0.077247
C14   C     C_R   0.823466 0.501262 0.274849 0.076666
C15   C     C_R   0.931534 0.999952 0.632722 0.002292
C16   C     C_R   0.547707 0.500039 0.723303 -0.016020
C17   C     C_R   0.123266 0.818050 0.999531 -0.000472
C18   C     C_R   0.121341 0.182631 0.999437 0.000771
C19   C     C_R   0.617558 0.316412 0.999627 0.000447
C20   C     C_R   0.615917 0.684121 0.999554 0.002302
C21   C     C_3   0.906299 0.051626 0.377494 -0.399915
C22   C     C_3   0.905955 0.948372 0.377120 -0.409758
C23   C     C_3   0.618309 0.551743 0.538795 -0.403495
C24   C     C_3   0.464391 0.499992 0.427901 -0.395899
C25   C     C_3   0.890720 0.051589 0.467589 -0.414403
C26   C     C_3   0.890365 0.948375 0.467221 -0.396996
C27   C     C_3   0.614273 0.551639 0.638345 -0.400979
C28   C     C_3   0.459966 0.499964 0.525987 -0.387692
C29   C     C_3   0.059467 0.999950 0.502357 -0.417323
C30   C     C_3   0.618283 0.448453 0.538685 -0.402891
C31   C     C_3   0.963832 0.999989 0.389357 0.408747
C32   C     C_3   0.567602 0.500066 0.466792 0.399784
C33   C     C_3   0.937604 0.999955 0.540694 0.397910
C34   C     C_3   0.560185 0.500049 0.634565 0.396763
C35   C     C_R   0.811462 0.126070 0.907190 -0.144743
C36   C     C_R   0.811619 0.873584 0.907325 -0.138501
C37   C     C_R   0.309875 0.623446 0.908055 -0.141161
C38   C     C_R   0.309992 0.376246 0.908197 -0.134627
C39   C     C_3   0.044156 0.999919 0.591715 -0.386311
C40   C     C_3   0.614287 0.448555 0.638262 -0.402782
C41   C     C_3   0.655086 0.182082 0.896564 -0.405326
C42   C     C_3   0.654774 0.818179 0.897149 -0.414104
C43   C     C_3   0.153179 0.679375 0.900871 -0.405612
C44   C     C_3   0.152721 0.321029 0.901447 -0.411682
C45   C     C_3   0.101253 0.730435 0.900321 -0.504633
C46   C     C_3   0.100140 0.270247 0.900890 -0.502798
C47   C     C_3   0.600254 0.231093 0.897102 -0.508162
C48   C     C_3   0.599323 0.769494 0.897785 -0.505530
C49   C     C_3   0.302590 0.735714 0.993733 -0.403282
C50   C     C_3   0.301266 0.264176 0.993200 -0.404781
C51   C     C_3   0.802807 0.240020 0.996543 -0.414574
C52   C     C_3   0.801694 0.759784 0.996031 -0.416545
C53   C     C_3   0.759153 0.182802 0.102164 -0.396665
C54   C     C_3   0.759478 0.817271 0.102749 -0.396847
C55   C     C_3   0.261771 0.682907 0.106144 -0.401328
C56   C     C_3   0.261907 0.317303 0.106675 -0.400293
C57   C     C_3   0.758767 0.185247 0.998466 0.311269
C58   C     C_3   0.758566 0.814709 0.998679 0.317901
C59   C     C_3   0.257947 0.682132 0.000249 0.310744
C60   C     C_3   0.257588 0.317943 0.000441 0.315223
C61   C     C_3   0.169910 0.767834 0.000359 0.291314
C62   C     C_3   0.168516 0.232682 0.000445 0.289649
C63   C     C_3   0.666299 0.267722 0.999650 0.296261
C64   C     C_3   0.665174 0.732649 0.999763 0.295164
C65   C     C_3   0.251503 0.786254 0.994236 0.407469
C66   C     C_3   0.249568 0.213896 0.993597 0.408972
C67   C     C_3   0.748907 0.288807 0.997336 0.414265
C68   C     C_3   0.747144 0.711241 0.996522 0.415579
C69   C     C_3   0.209140 0.733293 0.105832 -0.365944
C70   C     C_3   0.208679 0.267169 0.106314 -0.361836
C71   C     C_3   0.704338 0.231619 0.102782 -0.371373
C72   C     C_3   0.704280 0.768635 0.103417 -0.367932
C73   C     C_3   0.481892 0.965195 0.340871 -0.516668
C74   C     C_3   0.465402 0.061432 0.388395 -0.539242
C75   C     C_3   0.981738 0.465291 0.341064 -0.519782
C76   C     C_3   0.965040 0.561446 0.388721 -0.539169
C77   C     C_R   0.742653 0.954541 0.696966 -0.111513
C78   C     C_R   0.746092 0.046046 0.696443 -0.110536
C79   C     C_R   0.242386 0.454530 0.697200 -0.114745
C80   C     C_R   0.245833 0.546046 0.696621 -0.119797
C81   C     C_3   0.587623 0.968681 0.438126 0.349106
C82   C     C_3   0.565629 0.062090 0.493461 0.342339
C83   C     C_3   0.087311 0.468644 0.438648 0.349980
C84   C     C_3   0.065178 0.562071 0.493904 0.342402
C85   C     C_3   0.433633 0.980599 0.468707 -0.413230
C86   C     C_3   0.933029 0.480480 0.468531 -0.413553
C87   C     C_3   0.424350 0.002197 0.365294 0.288007
C88   C     C_3   0.924049 0.502196 0.365331 0.288964
C89   C     C_3   0.599090 0.001664 0.535239 0.119295
C90   C     C_3   0.098589 0.501638 0.535652 0.118690
C91   C     C_3   0.536095 0.975959 0.565243 -0.427049
C92   C     C_3   0.035432 0.475936 0.565402 -0.426779
C93   C     C_R   0.005555 0.046033 0.274568 -0.144122
C94   C     C_R   0.005583 0.953984 0.274586 -0.143772
C95   C     C_R   0.548444 0.545793 0.304023 -0.150130
C96   C     C_R   0.548479 0.454287 0.304021 -0.149960
C97   C     C_R   0.816521 0.858061 0.999229 0.023245
C98   C     C_R   0.816325 0.141664 0.999070 0.021654
C99   C     C_R   0.313238 0.363079 0.000334 0.020627
C100  C     C_R   0.313112 0.636732 0.000171 0.019040
C101  C     C_R   0.695596 0.000724 0.635706 0.060104
C102  C     C_R   0.195089 0.500715 0.636145 0.061756
C103  C     C_R   0.983590 0.000002 0.308522 0.000034
C104  C     C_R   0.564078 0.500062 0.366676 -0.007178
C105  C     C_R   0.268158 0.954524 0.246936 -0.157584
C106  C     C_R   0.266357 0.046736 0.245293 -0.156127
C107  C     C_R   0.768041 0.454504 0.246612 -0.158221
C108  C     C_R   0.766231 0.546750 0.244905 -0.157071
C109  C     C_R   0.949208 0.045823 0.695810 -0.159284
C110  C     C_R   0.949159 0.954116 0.695750 -0.128477
C111  C     C_R   0.518647 0.546159 0.750595 -0.142124
C112  C     C_R   0.518626 0.453885 0.750540 -0.126479
H1    H     H_    0.938065 0.856050 0.173236 0.086862
H2    H     H_    0.937761 0.143810 0.173182 0.086322
H3    H     H_    0.431487 0.368972 0.177067 0.093760
H4    H     H_    0.431296 0.630975 0.176977 0.092365
H5    H     H_    0.837517 0.051994 0.295505 0.155051
H6    H     H_    0.837171 0.948066 0.295130 0.158150
H7    H     H_    0.584194 0.590028 0.491710 0.146641
H8    H     H_    0.427018 0.536861 0.376541 0.154336
H9    H     H_    0.814287 0.051925 0.430619 0.152156
H10   H     H_    0.813925 0.948097 0.430246 0.175470
H11   H     H_    0.579222 0.590116 0.635978 0.144237
H12   H     H_    0.420234 0.536782 0.521578 0.153187
H13   H     H_    0.921532 0.090077 0.515548 0.148347
H14   H     H_    0.920900 0.909859 0.514918 0.150277
H15   H     H_    0.686576 0.552003 0.715566 0.153851
H16   H     H_    0.420266 0.463062 0.521490 0.164269
H17   H     H_    0.101121 0.036882 0.511682 0.155530
H18   H     H_    0.100903 0.963010 0.511407 0.155737
H19   H     H_    0.692577 0.447780 0.566644 0.152373
H20   H     H_    0.584121 0.410121 0.491529 0.148422
H21   H     H_    0.078934 0.036780 0.644648 0.157281
H22   H     H_    0.078674 0.963008 0.644330 0.155592
H23   H     H_    0.686600 0.448324 0.715465 0.154008
H24   H     H_    0.579268 0.410020 0.635876 0.147340
H25   H     H_    0.649763 0.183604 0.819280 0.169818
H26   H     H_    0.649094 0.816470 0.819653 0.151419
H27   H     H_    0.145399 0.678210 0.822107 0.169897
H28   H     H_    0.144618 0.322066 0.822493 0.150907
H29   H     H_    0.622664 0.142837 0.896862 0.171610
H30   H     H_    0.623086 0.857614 0.897866 0.170332
H31   H     H_    0.120129 0.641443 0.905345 0.170357
H32   H     H_    0.120404 0.359147 0.906413 0.169846
H33   H     H_    0.540263 0.216119 0.896929 0.186132
H34   H     H_    0.539992 0.784826 0.898518 0.185770
H35   H     H_    0.041581 0.717636 0.902657 0.185113
H36   H     H_    0.040976 0.283374 0.903895 0.184989
H37   H     H_    0.071634 0.752673 0.822049 0.158928
H38   H     H_    0.069729 0.248023 0.822346 0.153869
H39   H     H_    0.570988 0.254521 0.820177 0.159520
H40   H     H_    0.569057 0.746137 0.820484 0.154289
H41   H     H_    0.299323 0.736027 0.917459 0.114351
H42   H     H_    0.297673 0.263761 0.916718 0.112801
H43   H     H_    0.801779 0.242154 0.921800 0.115418
H44   H     H_    0.800449 0.757591 0.921143 0.114085
H45   H     H_    0.756000 0.133518 0.822112 0.120158
H46   H     H_    0.756272 0.865695 0.822432 0.085196
H47   H     H_    0.254256 0.631473 0.823278 0.120315
H48   H     H_    0.254499 0.367742 0.823632 0.084463
H49   H     H_    0.222073 0.809035 0.915880 0.014901
H50   H     H_    0.219527 0.191163 0.914965 0.013302
H51   H     H_    0.719950 0.312638 0.920168 0.012119
H52   H     H_    0.717481 0.687569 0.918928 0.010716
H53   H     H_    0.831340 0.184836 0.178779 0.153858
H54   H     H_    0.831762 0.815081 0.179135 0.154998
H55   H     H_    0.335082 0.685502 0.180661 0.155136
H56   H     H_    0.335298 0.314456 0.180921 0.156790
H57   H     H_    0.727375 0.143527 0.103620 0.155743
H58   H     H_    0.728278 0.856652 0.104685 0.158159
H59   H     H_    0.230277 0.644613 0.112016 0.156344
H60   H     H_    0.231151 0.355757 0.113112 0.159560
H61   H     H_    0.645299 0.216547 0.104404 0.149709
H62   H     H_    0.645780 0.783894 0.105848 0.153449
H63   H     H_    0.150853 0.719943 0.110369 0.148380
H64   H     H_    0.150838 0.280797 0.111410 0.152481
H65   H     H_    0.259103 0.757657 0.180741 0.177690
H66   H     H_    0.258483 0.242666 0.180909 0.180880
H67   H     H_    0.752444 0.255319 0.179330 0.177664
H68   H     H_    0.752410 0.744776 0.179586 0.180776
H69   H     H_    0.378300 0.737679 0.063652 0.192288
H70   H     H_    0.377025 0.261981 0.062868 0.190645
H71   H     H_    0.877829 0.242359 0.068288 0.192178
H72   H     H_    0.876731 0.757214 0.067630 0.190258
H73   H     H_    0.456093 0.922112 0.327248 0.190795
H74   H     H_    0.423596 0.090902 0.399796 0.190844
H75   H     H_    0.955821 0.422220 0.327016 0.192145
H76   H     H_    0.923074 0.590820 0.400061 0.191037
H77   H     H_    0.472036 0.978884 0.264151 0.152941
H78   H     H_    0.464714 0.076255 0.317862 0.158133
H79   H     H_    0.972210 0.479128 0.264603 0.153085
H80   H     H_    0.964479 0.576388 0.318339 0.158542
H81   H     H_    0.624470 0.991941 0.409907 0.071914
H82   H     H_    0.611924 0.080305 0.473152 0.065737
H83   H     H_    0.124451 0.491838 0.410754 0.077405
H84   H     H_    0.111550 0.580299 0.473729 0.066688
H85   H     H_    0.726994 0.912132 0.671350 0.128343
H86   H     H_    0.738069 0.088146 0.669633 0.138740
H87   H     H_    0.226632 0.412116 0.671627 0.130181
H88   H     H_    0.237591 0.588170 0.669851 0.140574
H89   H     H_    0.400935 0.939346 0.454231 0.159683
H90   H     H_    0.396814 0.008917 0.490156 0.164254
H91   H     H_    0.900455 0.439177 0.453873 0.159608
H92   H     H_    0.895903 0.508685 0.489732 0.163387
H93   H     H_    0.553825 0.931978 0.587993 0.155393
H94   H     H_    0.547237 0.996292 0.638335 0.173914
H95   H     H_    0.053249 0.431985 0.588379 0.155117
H96   H     H_    0.046308 0.496331 0.638298 0.173742
H97   H     H_    0.014772 0.087466 0.304335 0.083536
H98   H     H_    0.014833 0.912587 0.304384 0.083609
H99   H     H_    0.561446 0.588233 0.329910 0.086285
H100  H     H_    0.561547 0.411880 0.329904 0.085936
H101  H     H_    0.291174 0.912259 0.263240 0.104912
H102  H     H_    0.284645 0.089588 0.254470 0.112186
H103  H     H_    0.790924 0.412203 0.262626 0.107043
H104  H     H_    0.784392 0.589631 0.253648 0.114396
H105  H     H_    0.938804 0.088529 0.672020 0.087720
H106  H     H_    0.938767 0.911392 0.671885 0.092676
H107  H     H_    0.523660 0.588705 0.734686 0.089126
H108  H     H_    0.523591 0.411347 0.734517 0.089761
H109  H     H_    0.022028 0.837234 0.822828 0.097294
H110  H     H_    0.021186 0.162916 0.822851 0.093869
H111  H     H_    0.515261 0.335183 0.823667 0.098906
H112  H     H_    0.514583 0.664846 0.823673 0.093465
H113  H     H_    0.189303 0.165727 0.175162 0.089560
H114  H     H_    0.192124 0.835312 0.175647 0.087571
H115  H     H_    0.687316 0.666055 0.175383 0.090479
H116  H     H_    0.689916 0.334858 0.175806 0.089245
H117  H     H_    0.943628 0.090207 0.385385 0.145365
H118  H     H_    0.943023 0.909773 0.384711 0.148455
H119  H     H_    0.692612 0.552504 0.566790 0.152581
H120  H     H_    0.426983 0.463087 0.376405 0.157620
N1    N     N_R   0.950530 0.896220 0.057200 -0.036131
N2    N     N_R   0.950530 0.103780 0.057200 -0.035611
N3    N     N_R   0.450530 0.396220 0.057200 -0.038322
N4    N     N_R   0.450530 0.603780 0.057200 -0.037655
N5    N     N_R   0.893330 0.103780 0.942800 -0.037425
N6    N     N_R   0.893330 0.896220 0.942800 -0.036106
N7    N     N_R   0.393330 0.603780 0.942800 -0.037763
N8    N     N_R   0.393330 0.396220 0.942800 -0.036410
N9    N     N_R   0.818150 0.971400 0.792440 -0.045392
N10   N     N_R   0.818150 0.028600 0.792440 -0.046303
N11   N     N_R   0.318150 0.471400 0.792440 -0.046755
N12   N     N_R   0.318150 0.528600 0.792440 -0.047839
N13   N     N_R   0.025710 0.028600 0.207560 -0.033031
N14   N     N_R   0.025710 0.971400 0.207560 -0.033204
N15   N     N_R   0.525710 0.528600 0.207560 -0.031565
N16   N     N_R   0.525710 0.471400 0.207560 -0.031603
N17   N     N_R   0.181850 0.971400 0.207560 -0.041898
N18   N     N_R   0.181850 0.028600 0.207560 -0.042755
N19   N     N_R   0.681850 0.471400 0.207560 -0.039150
N20   N     N_R   0.681850 0.528600 0.207560 -0.039986
N21   N     N_R   0.974290 0.028600 0.792440 -0.034692
N22   N     N_R   0.974290 0.971400 0.792440 -0.036436
N23   N     N_R   0.474290 0.528600 0.792440 -0.037390
N24   N     N_R   0.474290 0.471400 0.792440 -0.033754
N25   N     N_R   0.049470 0.896220 0.942800 -0.035059
N26   N     N_R   0.049470 0.103780 0.942800 -0.034412
N27   N     N_R   0.549470 0.396220 0.942800 -0.033530
N28   N     N_R   0.549470 0.603780 0.942800 -0.032955
N29   N     N_R   0.106670 0.103780 0.057200 -0.042952
N30   N     N_R   0.106670 0.896220 0.057200 -0.042119
N31   N     N_R   0.606670 0.603780 0.057200 -0.043388
N32   N     N_R   0.606670 0.396220 0.057200 -0.042758
Ni1   Ni    Ni4+2 0.065600 0.934400 0.131190 0.204737
Ni2   Ni    Ni4+2 0.065600 0.065600 0.131190 0.206123
Ni3   Ni    Ni4+2 0.565600 0.434400 0.131190 0.205207
Ni4   Ni    Ni4+2 0.565600 0.565600 0.131190 0.206349
Ni5   Ni    Ni4+2 0.934400 0.065600 0.868810 0.205140
Ni6   Ni    Ni4+2 0.934400 0.934400 0.868810 0.212825
Ni7   Ni    Ni4+2 0.434400 0.565600 0.868810 0.205074
Ni8   Ni    Ni4+2 0.434400 0.434400 0.868810 0.216257
O1    O     O_3   0.315892 0.819859 0.084187 -0.768905
H121  H     H_    0.298600 0.858649 0.060272 0.311816
O2    O     O_3   0.313675 0.180113 0.083114 -0.771684
H122  H     H_    0.295922 0.141369 0.058786 0.310699
O3    O     O_3   0.810970 0.321954 0.089341 -0.771076
H123  H     H_    0.796045 0.360880 0.065413 0.311542
O4    O     O_3   0.808914 0.677805 0.087918 -0.773649
H124  H     H_    0.793461 0.638954 0.063364 0.310363
O5    O     O_3   0.628734 0.916141 0.468416 -0.762544
H125  H     H_    0.591001 0.892503 0.482757 0.315659
O6    O     O_3   0.571117 0.096540 0.572819 -0.772944
H126  H     H_    0.523434 0.084733 0.584336 0.326324
O7    O     O_3   0.128141 0.416031 0.468939 -0.758196
H127  H     H_    0.090147 0.392471 0.483002 0.315417
O8    O     O_3   0.070573 0.596488 0.573245 -0.772813
H128  H     H_    0.022713 0.584731 0.584506 0.325857

loop_
_geom_bond_atom_site_label_1
_geom_bond_atom_site_label_2
_ccdc_geom_bond_type
C108  H104  S    
C5    H109  S    
C13   C87   S    
C47   H33   S    
C84   H84   S    
C8    N28   A    
C96   H100  S    
C55   C59   S    
C43   C59   S    
C42   H26   S    
N12   Ni7   S    
C77   H85   S    
N3    N8    A    
C15   C109  A    
C7    N27   A    
N13   Ni2   S    
C35   N5    A    
C55   H55   S    
C60   C99   S    
C75   C83   S    
C76   C84   S    
N30   Ni1   S    
C24   C32   S    
C85   C91   S    
N19   N20   A    
N16   Ni3   S    
N23   Ni7   S    
C95   C104  A    
C96   N16   A    
C76   H80   S    
C40   H24   S    
C51   H43   S    
N17   N18   A    
C8    C20   A    
C82   C89   S    
C49   C65   S    
C108  N20   A    
C34   C40   S    
C64   C68   S    
C49   H41   S    
C6    H110  S    
N2    Ni2   S    
C110  N22   A    
C15   C33   S    
C51   H71   S    
C73   C81   S    
N32   Ni3   S    
C11   H115  S    
C23   H7    S    
N21   N22   A    
C86   C88   S    
C48   C64   S    
C5    C17   A    
N21   Ni5   S    
C10   C17   A    
N17   Ni1   S    
C30   H19   S    
C80   H88   S    
C93   N13   A    
N5    Ni5   S    
N23   N24   A    
C95   N15   A    
N9    Ni6   S    
C66   H50   S    
N9    N10   A    
C26   H14   S    
C71   H67   S    
N6    Ni6   S    
N26   Ni5   S    
C54   H58   S    
N11   Ni8   S    
C73   C87   S    
C21   H5    S    
C73   H77   S    
C12   H116  S    
C3    N3    A    
C74   H78   S    
C65   H49   S    
C77   C101  A    
C2    N2    A    
C90   C102  S    
C28   H12   S    
O2    H122  S    
C19   C63   S    
C9    N29   A    
C42   H30   S    
O4    H124  S    
C32   C104  S    
C79   C102  A    
C43   H27   S    
C36   C97   A    
C51   C57   S    
C11   N31   A    
C74   C87   S    
C67   O3    S    
C35   C98   A    
C76   C88   S    
C41   H25   S    
C79   N11   A    
C76   H76   S    
C85   H89   S    
C69   H65   S    
C45   C61   S    
N1    Ni1   S    
C14   C108  A    
C14   C88   S    
C28   C34   S    
C107  N19   A    
C25   H13   S    
C69   H63   S    
N13   N14   A    
C56   H60   S    
C78   C101  A    
C36   N6    A    
C59   C100  S    
C4    N4    A    
C15   C110  A    
C42   C58   S    
C66   O2    S    
C50   H70   S    
C58   C97   S    
C1    H1    S    
C72   H62   S    
C74   C82   S    
N28   N31   A    
C6    C18   A    
C82   O6    S    
C55   H59   S    
C91   H93   S    
N20   Ni4   S    
C23   C27   S    
C85   C87   S    
C27   C34   S    
C111  N23   A    
N31   Ni4   S    
C106  H102  S    
C40   H23   S    
C63   C67   S    
C11   C20   A    
C24   H8    S    
C105  H101  S    
C22   C31   S    
C62   C66   S    
C65   O1    S    
N25   N30   A    
C30   C32   S    
N10   Ni5   S    
C52   H72   S    
C109  H105  S    
C18   C62   S    
N18   Ni2   S    
C13   C105  A    
N27   N32   A    
C1    N1    A    
C41   C57   S    
C68   O4    S    
C27   H11   S    
C70   H66   S    
C51   C67   S    
C44   C46   S    
C54   C72   S    
C24   H120  S    
O5    H125  S    
C38   N8    A    
N22   Ni6   S    
C10   N30   A    
C48   H34   S    
N2    N5    A    
C31   C103  S    
C20   C64   S    
C42   C48   S    
C75   H79   S    
N1    N6    A    
C35   H45   S    
C41   H29   S    
O7    H127  S    
C92   H96   S    
C61   C65   S    
C7    H111  S    
C75   C88   S    
C26   C33   S    
C90   C92   S    
O8    H128  S    
C22   H118  S    
C44   H32   S    
C21   H117  S    
C56   H56   S    
C50   C66   S    
C5    N25   A    
O1    H121  S    
C41   C47   S    
C30   C40   S    
C33   C39   S    
C112  H108  S    
C43   C45   S    
C21   C31   S    
C55   C69   S    
C52   C58   S    
C85   H90   S    
C94   N14   A    
C49   H69   S    
N15   Ni4   S    
C50   H42   S    
C53   H53   S    
C14   C107  A    
C46   H38   S    
C84   O8    S    
C46   C62   S    
C94   C103  A    
C94   H98   S    
C50   C60   S    
C56   C70   S    
C4    C100  A    
C48   H40   S    
C93   H97   S    
C54   C58   S    
O3    H123  S    
C77   N9    A    
N26   N29   A    
C89   C91   S    
C72   H68   S    
C17   C61   S    
C1    C97   A    
C111  H107  S    
N14   Ni1   S    
C86   H92   S    
C13   C106  A    
C91   H94   S    
C53   H57   S    
C16   C112  A    
N4    Ni4   S    
C43   H31   S    
C54   H54   S    
C84   C90   S    
C61   C69   S    
C29   C39   S    
C22   H6    S    
C83   C90   S    
C21   C25   S    
C71   H61   S    
C79   H87   S    
C89   C101  S    
C45   H35   S    
C29   H17   S    
C4    H4    S    
C75   H75   S    
C24   C28   S    
C47   H39   S    
C38   C99   A    
N24   Ni8   S    
C107  H103  S    
C52   C68   S    
C8    H112  S    
C73   H73   S    
N15   N16   A    
C62   C70   S    
C36   H46   S    
C52   H44   S    
C39   H21   S    
C7    C19   A    
C49   C59   S    
N4    N7    A    
N7    Ni7   S    
C6    N26   A    
C16   C34   S    
C95   H99   S    
C23   C32   S    
N8    Ni8   S    
N28   Ni7   S    
C96   C104  A    
C68   H52   S    
C81   C89   S    
N29   Ni2   S    
C29   C31   S    
C92   H95   S    
C86   C92   S    
C28   H16   S    
C47   C63   S    
C2    H2    S    
N3    Ni3   S    
C106  N18   A    
C70   H64   S    
C44   C60   S    
C81   O5    S    
C30   H20   S    
C57   C98   S    
C81   H81   S    
C12   C19   A    
C109  N21   A    
C46   H36   S    
C86   H91   S    
C53   C57   S    
N19   Ni3   S    
C78   H86   S    
C45   H37   S    
C80   N12   A    
C83   H83   S    
C110  H106  S    
C23   H119  S    
C27   H15   S    
C82   H82   S    
C64   C72   S    
C37   N7    A    
C67   H51   S    
C105  N17   A    
C29   H18   S    
C3    C99   A    
C9    C18   A    
C56   C60   S    
C2    C98   A    
C44   H28   S    
C83   O7    S    
C22   C26   S    
C80   C102  A    
O6    H126  S    
C10   H114  S    
C3    H3    S    
C9    H113  S    
N25   Ni6   S    
C26   H10   S    
C112  N24   A    
C74   H74   S    
C37   H47   S    
C25   H9    S    
C63   C71   S    
C78   N10   A    
C37   C100  A    
C12   N32   A    
N27   Ni8   S    
N11   N12   A    
C16   C111  A    
C25   C33   S    
C93   C103  A    
C38   H48   S    
C39   H22   S    
C53   C71   S    
