data_mof_unit_36217.cif
_audit_creation_date              2012-12-10T19:06:59-0500
_audit_creation_method            fapswitch 2.2
_symmetry_space_group_name_H-M    P1
_symmetry_Int_Tables_number       1
_space_group_crystal_system       triclinic
_cell_length_a                    27.773863
_cell_length_b                    10.8158
_cell_length_c                    9.552513
_cell_angle_alpha                 90.384224
_cell_angle_beta                  90.582524
_cell_angle_gamma                 90.588907
_cell_volume                      2869.17549573

loop_
_atom_site_label
_atom_site_type_symbol
_atom_type_description
_atom_site_fract_x
_atom_site_fract_y
_atom_site_fract_z
_atom_type_partial_charge
Br1   Br    Br    0.466593 0.867379 0.903396 -0.461355
Br2   Br    Br    0.426854 0.307306 0.155229 -0.437080
C1    C     C_R   0.499271 0.262341 0.499535 0.820649
C2    C     C_R   0.974142 0.387488 0.484955 0.061758
C3    C     C_R   0.974640 0.614931 0.485396 0.042231
C4    C     C_R   0.407541 0.503410 0.499152 0.887909
C5    C     C_R   0.949110 0.500989 0.486611 0.077620
C6    C     C_R   0.948207 0.278733 0.516392 -0.096873
C7    C     C_R   0.898212 0.278386 0.524898 -0.131855
C8    C     C_R   0.872648 0.388255 0.508571 -0.027991
C9    C     C_R   0.898124 0.500406 0.492605 -0.048991
C10   C     C_R   0.872655 0.612002 0.484179 -0.021842
C11   C     C_R   0.822146 0.608939 0.487100 0.540694
C12   C     C_R   0.279622 0.436339 0.601416 -0.062544
C13   C     C_R   0.822139 0.389496 0.512020 0.547119
C14   C     C_R   0.720485 0.451365 0.385415 -0.098089
C15   C     C_R   0.670281 0.452224 0.385197 -0.218576
C16   C     C_R   0.499195 0.737662 0.500214 0.833159
C17   C     C_R   0.671625 0.545016 0.617056 -0.223317
C18   C     C_R   0.721837 0.544606 0.616872 -0.095243
C19   C     C_R   0.746410 0.497735 0.501108 0.350762
C20   C     C_R   0.024650 0.387665 0.462717 -0.092766
C21   C     C_R   0.050394 0.500669 0.484018 0.035941
C22   C     C_R   0.025539 0.614270 0.498094 0.060913
C23   C     C_R   0.253392 0.501476 0.500930 0.252270
C24   C     C_R   0.051003 0.281206 0.420044 0.394545
C25   C     C_R   0.102380 0.721110 0.537348 -0.112892
C26   C     C_R   0.948186 0.725487 0.474359 -0.192597
C27   C     C_R   0.898084 0.723722 0.472593 -0.127086
C28   C     C_R   0.592505 0.499877 0.500544 0.775038
C29   C     C_R   0.052474 0.723183 0.526882 -0.175699
C30   C     C_R   0.486549 0.064353 0.621172 0.090023
C31   C     C_R   0.494664 0.129148 0.497688 -0.107118
C32   C     C_R   0.495736 0.063271 0.370509 -0.164715
C33   C     C_R   0.495598 0.934584 0.371072 -0.131181
C34   C     C_R   0.101403 0.500452 0.490209 -0.044549
C35   C     C_R   0.494365 0.870647 0.498869 -0.139160
C36   C     C_R   0.485919 0.937136 0.621913 0.159560
C37   C     C_3   0.509847 0.932477 0.762675 0.074978
C38   C     C_3   0.511085 0.073146 0.760704 -0.489847
C39   C     C_R   0.526003 0.586795 0.075209 0.266275
C40   C     C_R   0.177232 0.391940 0.474529 0.592004
C41   C     C_R   0.470340 0.422671 0.071020 0.359465
C42   C     C_R   0.470620 0.423069 0.922798 -0.086300
C43   C     C_R   0.526137 0.586363 0.927939 0.329155
C44   C     C_3   0.579251 0.606027 0.924224 -0.529170
C45   C     C_R   0.126640 0.390152 0.468209 -0.107847
C46   C     C_3   0.579103 0.607490 0.082925 -0.505849
C47   C     C_R   0.177736 0.608181 0.525132 0.561271
C48   C     C_R   0.277656 0.569919 0.399286 -0.139146
C49   C     C_R   0.327997 0.575157 0.397226 0.394833
C50   C     C_R   0.329771 0.438841 0.599663 -0.232751
C51   C     C_R   0.101215 0.282411 0.431307 -0.162795
C52   C     C_R   0.127275 0.610733 0.518024 -0.017458
C53   C     C_R   0.354554 0.506651 0.497549 -0.163762
C54   C     C_R   0.645438 0.498891 0.501198 -0.029573
Cu1   Cu    Cu3+1 0.500000 0.499980 0.640670 0.981603
Cu2   Cu    Cu3+1 0.500000 0.500020 0.359330 1.034917
H1    H     H_    0.349318 0.386430 0.677609 0.185442
H2    H     H_    0.499102 0.886030 0.272196 0.199833
H3    H     H_    0.261107 0.383773 0.680942 0.172507
H4    H     H_    0.546049 0.889594 0.760443 0.114396
H5    H     H_    0.487984 0.117587 0.840552 0.239471
H6    H     H_    0.548159 0.112348 0.754021 0.177155
H7    H     H_    0.447604 0.359411 0.864549 0.168642
H8    H     H_    0.598371 0.524814 0.880919 0.212766
H9    H     H_    0.589251 0.696678 0.878115 0.200389
H10   H     H_    0.598686 0.528113 0.128539 0.212787
H11   H     H_    0.588659 0.699301 0.128878 0.209782
H12   H     H_    0.256809 0.620299 0.322610 0.202083
H13   H     H_    0.120675 0.199684 0.403253 0.234636
H14   H     H_    0.650927 0.415200 0.295077 0.147722
H15   H     H_    0.739305 0.415241 0.295492 0.145311
H16   H     H_    0.879747 0.191746 0.545228 0.192752
H17   H     H_    0.966374 0.193558 0.538840 0.196775
H18   H     H_    0.050643 0.042195 0.149063 0.385313
H19   H     H_    0.332682 0.822695 0.138448 0.401291
H20   H     H_    0.121408 0.806946 0.560242 0.202882
H21   H     H_    0.965346 0.814738 0.463367 0.184788
H22   H     H_    0.653401 0.583462 0.706487 0.148337
H23   H     H_    0.879360 0.810748 0.463744 0.196830
H24   H     H_    0.741705 0.581022 0.706407 0.144915
H25   H     H_    0.035758 0.811033 0.546656 0.176921
H26   H     H_    0.499425 0.110327 0.271447 0.195925
N1    N     N_R   0.201677 0.500004 0.502376 -0.459041
N2    N     N_R   0.798027 0.498706 0.500132 -0.470755
N3    N     N_R   0.500300 0.500930 0.147930 -0.220332
N4    N     N_R   0.500310 0.500890 0.852020 -0.215838
O1    O     O_R   0.500000 0.319640 0.618810 -0.592078
O2    O     O_R   0.569730 0.499960 0.618810 -0.591448
O3    O     O_R   0.569740 0.500000 0.381220 -0.598056
O4    O     O_2   0.201819 0.287050 0.450523 -0.502293
O5    O     O_2   0.017399 0.047233 0.413121 -0.352998
O6    O     O_2   0.979631 0.192973 0.249490 -0.271516
O7    O     O_3   0.065407 0.115510 0.195829 -0.507183
O8    O     O_2   0.394789 0.749347 0.344350 -0.289427
O9    O     O_2   0.376372 0.598802 0.157604 -0.245216
O10   O     O_3   0.314549 0.771594 0.206015 -0.504397
O11   O     O_2   0.797303 0.282658 0.527579 -0.526619
O12   O     O_2   0.202735 0.713005 0.554581 -0.499787
O13   O     O_2   0.797289 0.715069 0.476186 -0.528606
O14   O     O_R   0.500010 0.319680 0.381230 -0.564782
O15   O     O_R   0.430260 0.500000 0.618780 -0.580126
O16   O     O_R   0.430270 0.500040 0.381190 -0.489451
O17   O     O_R   0.499990 0.680320 0.618770 -0.566557
O18   O     O_R   0.500000 0.680360 0.381190 -0.558887
S1    S     S_3+6 0.025966 0.156520 0.319896 -0.013824
S2    S     S_3+6 0.355455 0.674675 0.273995 0.050891

loop_
_geom_bond_atom_site_label_1
_geom_bond_atom_site_label_2
_ccdc_geom_bond_type
C17   C54   A    
Cu1   O17   S    
C14   C19   A    
C18   H24   S    
C10   C27   A    
C17   C18   A    
C4    C53   S    
C28   O2    A    
C25   H20   S    
Cu2   N3    S    
C25   C52   A    
O10   S2    S    
C43   C44   S    
C5    C9    A    
C38   H5    S    
Cu1   O1    S    
C26   C27   A    
C33   C35   A    
C16   C35   S    
C44   H8    S    
C8    C13   A    
H18   O7    S    
C36   C37   S    
C1    C31   S    
C47   C52   A    
C29   H25   S    
C34   C45   A    
C32   C33   A    
C26   H21   S    
C23   C48   A    
O9    S2    D    
C12   C50   A    
C49   S2    S    
C11   N2    A    
C21   C22   A    
Cu2   O14   S    
C4    O16   A    
Cu2   O3    S    
C46   H11   S    
C49   C53   A    
C50   C53   A    
C2    C6    A    
C45   C51   A    
O8    S2    D    
C42   H7    S    
C32   H26   S    
C2    C5    A    
Cu1   O15   S    
C48   C49   A    
C39   N3    A    
C44   C46   S    
O6    S1    D    
Cu1   O2    S    
C25   C29   A    
C14   H15   S    
C47   N1    A    
C43   N4    A    
C37   C38   S    
C3    C5    A    
C6    C7    A    
C12   H3    S    
C28   C54   S    
C6    H17   S    
C33   H2    S    
Cu2   O18   S    
C41   C42   A    
C16   O18   A    
C27   H23   S    
C35   C36   A    
C50   H1    S    
C3    C26   A    
C2    C20   A    
Br2   C41   S    
C18   C19   A    
C23   N1    S    
C31   C32   A    
H19   O10   S    
C40   N1    A    
C4    O15   A    
C46   H10   S    
C15   C54   A    
O7    S1    S    
C13   N2    A    
C1    O14   A    
C30   C36   A    
Cu2   O16   S    
C7    H16   S    
C11   O13   S    
C51   H13   S    
C24   C51   A    
C7    C8    A    
C37   H4    S    
C19   N2    S    
C13   O11   S    
C28   O3    A    
C24   S1    S    
C9    C10   A    
C38   H6    S    
Cu1   N4    S    
C1    O1    A    
C41   N3    A    
C30   C31   A    
C48   H12   S    
C16   O17   A    
C44   H9    S    
O5    S1    D    
C47   O12   S    
Cu1   Cu2   S    
C14   C15   A    
C3    C22   A    
C39   C46   S    
C40   O4    S    
C40   C45   A    
C30   C38   S    
C12   C23   A    
C17   H22   S    
C22   C29   A    
C34   C52   A    
C8    C9    A    
Br1   C37   S    
C10   C11   A    
C15   H14   S    
C21   C34   A    
C20   C24   A    
C39   C43   A    
C20   C21   A    
C42   N4    A    
