data_mof_unit_60485.cif
_audit_creation_date              2012-12-10T17:44:44-0500
_audit_creation_method            fapswitch 2.2
_symmetry_space_group_name_H-M    P1
_symmetry_Int_Tables_number       1
_space_group_crystal_system       triclinic
_cell_length_a                    30.436018
_cell_length_b                    30.436008
_cell_length_c                    38.941956
_cell_angle_alpha                 90.000029
_cell_angle_beta                  90.000031
_cell_angle_gamma                 90.00002
_cell_volume                      36073.9154952

loop_
_atom_site_label
_atom_site_type_symbol
_atom_type_description
_atom_site_fract_x
_atom_site_fract_y
_atom_site_fract_z
_atom_type_partial_charge
C1    C     C_R   0.085079 0.500000 0.500000 0.910774
C2    C     C_R   0.500000 0.914921 0.500000 0.910783
C3    C     C_R   0.914921 0.500000 0.500000 0.910778
C4    C     C_R   0.500000 0.085078 0.500000 0.910789
C5    C     C_R   0.585079 0.000000 0.000000 0.910771
C6    C     C_R   0.000000 0.414921 0.000000 0.910774
C7    C     C_R   0.414921 0.000000 1.000000 0.910773
C8    C     C_R   1.000000 0.585078 0.000000 0.910785
C9    C     C_R   0.133484 0.500000 0.500000 -0.492800
C10   C     C_R   0.500000 0.866516 0.500000 -0.492795
C11   C     C_R   0.866516 0.500000 0.500000 -0.492801
C12   C     C_R   0.500000 0.133484 0.500000 -0.492791
C13   C     C_R   0.633484 0.000000 0.000000 -0.492800
C14   C     C_R   1.000000 0.366516 0.000000 -0.492800
C15   C     C_R   0.366516 1.000000 1.000000 -0.492798
C16   C     C_R   1.000000 0.633484 0.000000 -0.492794
C17   C     C_R   0.225778 0.500000 0.500000 -0.325190
C18   C     C_R   0.500000 0.774222 0.500000 -0.325188
C19   C     C_R   0.774222 0.500000 0.500000 -0.325192
C20   C     C_R   0.500000 0.225777 0.500000 -0.325193
C21   C     C_R   0.725777 0.000000 1.000000 -0.325189
C22   C     C_R   1.000000 0.274222 0.000000 -0.325192
C23   C     C_R   0.274223 0.000000 0.000000 -0.325191
C24   C     C_R   1.000000 0.725777 1.000000 -0.325189
C25   C     C_R   0.297059 0.488936 0.470136 -0.105425
C26   C     C_R   0.488938 0.702941 0.470136 -0.105424
C27   C     C_R   0.702941 0.511063 0.470136 -0.105425
C28   C     C_R   0.511057 0.297059 0.470135 -0.105423
C29   C     C_R   0.297059 0.511064 0.529863 -0.105426
C30   C     C_R   0.488943 0.297059 0.529865 -0.105426
C31   C     C_R   0.702941 0.488937 0.529864 -0.105426
C32   C     C_R   0.511061 0.702941 0.529864 -0.105426
C33   C     C_R   0.797059 0.988939 0.970136 -0.105426
C34   C     C_R   0.988936 0.202941 0.970137 -0.105426
C35   C     C_R   0.202941 0.011059 0.970136 -0.105427
C36   C     C_R   0.011057 0.797059 0.970135 -0.105426
C37   C     C_R   0.797059 0.011061 0.029864 -0.105427
C38   C     C_R   0.988943 0.797059 0.029865 -0.105426
C39   C     C_R   0.202941 0.988941 0.029865 -0.105427
C40   C     C_R   0.011064 0.202941 0.029863 -0.105425
C41   C     C_R   0.342806 0.488893 0.470003 0.573146
C42   C     C_R   0.488895 0.657194 0.470003 0.573147
C43   C     C_R   0.657194 0.511106 0.470003 0.573145
C44   C     C_R   0.511101 0.342806 0.470002 0.573149
C45   C     C_R   0.342806 0.511107 0.529996 0.573143
C46   C     C_R   0.488899 0.342806 0.529998 0.573149
C47   C     C_R   0.657194 0.488894 0.529997 0.573145
C48   C     C_R   0.511105 0.657194 0.529997 0.573147
C49   C     C_R   0.842806 0.988896 0.970003 0.573147
C50   C     C_R   0.988892 0.157194 0.970004 0.573145
C51   C     C_R   0.157194 0.011103 0.970002 0.573147
C52   C     C_R   0.011101 0.842806 0.970002 0.573147
C53   C     C_R   0.842806 0.011104 0.029997 0.573145
C54   C     C_R   0.988899 0.842806 0.029998 0.573147
C55   C     C_R   0.157194 0.988897 0.029998 0.573147
C56   C     C_R   0.011107 0.157194 0.029996 0.573144
C57   C     C_R   0.366262 0.500000 0.500000 -0.317613
C58   C     C_R   0.500000 0.633738 0.500000 -0.317613
C59   C     C_R   0.633738 0.500000 0.500000 -0.317619
C60   C     C_R   0.500000 0.366262 0.500000 -0.317624
C61   C     C_R   0.866262 0.000000 1.000000 -0.317614
C62   C     C_R   1.000000 0.133738 0.000000 -0.317613
C63   C     C_R   0.133738 0.000000 0.000000 -0.317616
C64   C     C_R   0.000000 0.866262 1.000000 -0.317621
C65   C     C_R   0.274012 0.500000 0.500000 0.050823
C66   C     C_R   0.500000 0.725988 0.500000 0.050821
C67   C     C_R   0.725989 0.500000 0.500000 0.050821
C68   C     C_R   0.500000 0.274011 0.500000 0.050821
C69   C     C_R   0.774011 0.000000 1.000000 0.050821
C70   C     C_R   1.000000 0.225988 0.000000 0.050823
C71   C     C_R   0.225989 0.000000 0.000000 0.050823
C72   C     C_R   1.000000 0.774011 1.000000 0.050820
C73   C     C_R   0.500000 0.585314 0.500000 0.859150
C74   C     C_R   0.585314 0.500000 0.500000 0.859147
C75   C     C_R   0.500000 0.414685 0.500000 0.859144
C76   C     C_R   0.414685 0.500000 0.500000 0.859149
C77   C     C_R   0.000000 0.085314 0.000000 0.859150
C78   C     C_R   0.085315 0.000000 0.000000 0.859144
C79   C     C_R   0.000000 0.914685 0.000000 0.859142
C80   C     C_R   0.914686 0.000000 0.000000 0.859148
C81   C     C_R   1.000000 0.500000 0.433721 0.908530
C82   C     C_R   0.500000 1.000000 0.433721 0.908546
C83   C     C_R   0.000000 0.500000 0.566279 0.908528
C84   C     C_R   0.500000 0.000000 0.566279 0.908535
C85   C     C_R   0.500000 1.000000 0.933721 0.908521
C86   C     C_R   1.000000 0.500000 0.933721 0.908533
C87   C     C_R   0.500000 0.000000 0.066279 0.908520
C88   C     C_R   1.000000 0.500000 0.066279 0.908532
C89   C     C_R   0.013676 0.537415 0.377273 0.520810
C90   C     C_R   0.537412 0.986314 0.377274 0.520807
C91   C     C_R   0.986324 0.462585 0.377273 0.520809
C92   C     C_R   0.462588 0.013686 0.377274 0.520805
C93   C     C_R   0.013676 0.462584 0.622727 0.520810
C94   C     C_R   0.537414 0.013679 0.622727 0.520808
C95   C     C_R   0.986324 0.537416 0.622727 0.520809
C96   C     C_R   0.462586 0.986321 0.622727 0.520809
C97   C     C_R   0.513668 0.037418 0.877273 0.520814
C98   C     C_R   0.037415 0.486323 0.877273 0.520811
C99   C     C_R   0.486332 0.962582 0.877273 0.520815
C100  C     C_R   0.962585 0.513677 0.877273 0.520810
C101  C     C_R   0.513667 0.962581 0.122727 0.520816
C102  C     C_R   0.037415 0.513677 0.122727 0.520807
C103  C     C_R   0.486333 0.037418 0.122727 0.520815
C104  C     C_R   0.962585 0.486323 0.122727 0.520812
C105  C     C_R   0.013753 0.537386 0.341394 0.548562
C106  C     C_R   0.537382 0.986237 0.341394 0.548565
C107  C     C_R   0.986247 0.462614 0.341394 0.548563
C108  C     C_R   0.462617 0.013763 0.341394 0.548566
C109  C     C_R   0.013753 0.462614 0.658606 0.548563
C110  C     C_R   0.537385 0.013756 0.658606 0.548564
C111  C     C_R   0.986247 0.537386 0.658606 0.548563
C112  C     C_R   0.462615 0.986244 0.658606 0.548566
C113  C     C_R   0.513745 0.037389 0.841393 0.548563
C114  C     C_R   0.037386 0.486246 0.841394 0.548564
C115  C     C_R   0.486254 0.962611 0.841393 0.548562
C116  C     C_R   0.962614 0.513754 0.841394 0.548563
C117  C     C_R   0.513744 0.962611 0.158607 0.548561
C118  C     C_R   0.037386 0.513754 0.158606 0.548565
C119  C     C_R   0.486256 0.037389 0.158607 0.548560
C120  C     C_R   0.962614 0.486246 0.158606 0.548564
C121  C     C_R   0.000000 0.500000 0.322992 -0.408350
C122  C     C_R   0.500000 0.000000 0.322993 -0.408351
C123  C     C_R   1.000000 0.500000 0.677007 -0.408353
C124  C     C_R   0.500000 1.000000 0.677007 -0.408350
C125  C     C_R   0.500000 1.000000 0.822992 -0.408353
C126  C     C_R   1.000000 0.500000 0.822992 -0.408350
C127  C     C_R   0.500000 0.000000 0.177008 -0.408349
C128  C     C_R   1.000000 0.500000 0.177008 -0.408351
C129  C     C_R   0.000000 0.500000 0.395670 -0.487908
C130  C     C_R   0.500000 0.000000 0.395670 -0.487899
C131  C     C_R   1.000000 0.500000 0.604330 -0.487909
C132  C     C_R   0.500000 1.000000 0.604330 -0.487902
C133  C     C_R   0.500000 1.000000 0.895669 -0.487914
C134  C     C_R   1.000000 0.500000 0.895670 -0.487906
C135  C     C_R   0.500000 0.000000 0.104331 -0.487913
C136  C     C_R   1.000000 0.500000 0.104330 -0.487905
C137  C     C_R   0.000000 0.500000 0.215077 0.540835
C138  C     C_R   0.500000 0.000000 0.215077 0.540839
C139  C     C_R   1.000000 0.500000 0.784923 0.540836
C140  C     C_R   0.500000 1.000000 0.784923 0.540843
C141  C     C_R   0.500000 1.000000 0.715077 0.540842
C142  C     C_R   1.000000 0.500000 0.715077 0.540835
C143  C     C_R   0.500000 0.000000 0.284923 0.540836
C144  C     C_R   1.000000 0.500000 0.284923 0.540835
C145  C     C_R   0.202661 0.537683 0.510167 0.538753
C146  C     C_R   0.537682 0.797339 0.510169 0.538754
C147  C     C_R   0.797339 0.462317 0.510169 0.538751
C148  C     C_R   0.462319 0.202660 0.510172 0.538755
C149  C     C_R   0.202661 0.462317 0.489833 0.538752
C150  C     C_R   0.537681 0.202660 0.489828 0.538755
C151  C     C_R   0.797339 0.537682 0.489831 0.538751
C152  C     C_R   0.462318 0.797339 0.489831 0.538752
C153  C     C_R   0.702661 0.037682 0.010169 0.538751
C154  C     C_R   0.037683 0.297339 0.010166 0.538753
C155  C     C_R   0.297339 0.962318 0.010170 0.538752
C156  C     C_R   0.962319 0.702660 0.010172 0.538752
C157  C     C_R   0.702661 0.962318 0.989831 0.538751
C158  C     C_R   0.037681 0.702660 0.989827 0.538752
C159  C     C_R   0.297339 0.037682 0.989830 0.538754
C160  C     C_R   0.962316 0.297339 0.989834 0.538752
C161  C     C_R   0.156889 0.537758 0.510175 0.520585
C162  C     C_R   0.537757 0.843111 0.510177 0.520589
C163  C     C_R   0.843111 0.462243 0.510177 0.520588
C164  C     C_R   0.462244 0.156889 0.510181 0.520586
C165  C     C_R   0.156889 0.462242 0.489825 0.520587
C166  C     C_R   0.537756 0.156889 0.489819 0.520584
C167  C     C_R   0.843111 0.537757 0.489823 0.520589
C168  C     C_R   0.462243 0.843111 0.489823 0.520589
C169  C     C_R   0.656889 0.037757 0.010178 0.520586
C170  C     C_R   0.037758 0.343111 0.010174 0.520587
C171  C     C_R   0.343111 0.962243 0.010178 0.520584
C172  C     C_R   0.962245 0.656889 0.010181 0.520586
C173  C     C_R   0.656889 0.962243 0.989822 0.520585
C174  C     C_R   0.037755 0.656889 0.989819 0.520585
C175  C     C_R   0.343111 0.037756 0.989822 0.520583
C176  C     C_R   0.962242 0.343111 0.989826 0.520589
Cu1   Cu    Cu3+1 0.000000 0.456020 0.500000 1.257214
Cu2   Cu    Cu3+1 0.456020 0.000000 0.500000 1.257209
Cu3   Cu    Cu3+1 0.000000 0.543980 0.500000 1.257214
Cu4   Cu    Cu3+1 0.543980 0.000000 0.500000 1.257209
Cu5   Cu    Cu3+1 0.500000 0.956020 0.000000 1.257217
Cu6   Cu    Cu3+1 0.956020 0.500000 0.000000 1.257212
Cu7   Cu    Cu3+1 0.500000 0.043980 0.000000 1.257217
Cu8   Cu    Cu3+1 0.043980 0.500000 0.000000 1.257212
Cu9   Cu    Cu3+1 0.500000 0.500000 0.465850 1.248911
Cu10  Cu    Cu3+1 0.500000 0.500000 0.534150 1.248910
Cu11  Cu    Cu3+1 0.000000 0.000000 0.965850 1.248911
Cu12  Cu    Cu3+1 0.000000 0.000000 0.034150 1.248910
H1    H     H_    0.279531 0.480560 0.446822 0.221725
H2    H     H_    0.480564 0.720469 0.446821 0.221727
H3    H     H_    0.720469 0.519438 0.446821 0.221727
H4    H     H_    0.519429 0.279531 0.446819 0.221727
H5    H     H_    0.279531 0.519440 0.553178 0.221725
H6    H     H_    0.480571 0.279531 0.553181 0.221726
H7    H     H_    0.720469 0.480562 0.553179 0.221727
H8    H     H_    0.519436 0.720469 0.553179 0.221726
H9    H     H_    0.779531 0.980565 0.946821 0.221725
H10   H     H_    0.980559 0.220469 0.946823 0.221725
H11   H     H_    0.220469 0.019432 0.946821 0.221725
H12   H     H_    0.019429 0.779531 0.946820 0.221727
H13   H     H_    0.779531 0.019435 0.053179 0.221725
H14   H     H_    0.980571 0.779531 0.053180 0.221727
H15   H     H_    0.220469 0.980568 0.053179 0.221725
H16   H     H_    0.019441 0.220469 0.053178 0.221725
N1    N     N_R   0.972902 0.472886 0.267093 -0.104880
N2    N     N_R   0.472893 0.027105 0.267093 -0.104881
N3    N     N_R   0.027098 0.527114 0.267093 -0.104880
N4    N     N_R   0.527107 0.972895 0.267093 -0.104880
N5    N     N_R   0.972902 0.527114 0.732907 -0.104880
N6    N     N_R   0.472890 0.972898 0.732907 -0.104883
N7    N     N_R   0.027098 0.472886 0.732907 -0.104881
N8    N     N_R   0.527110 0.027102 0.732907 -0.104883
N9    N     N_R   0.472906 0.972882 0.767092 -0.104884
N10   N     N_R   0.972887 0.527099 0.767093 -0.104881
N11   N     N_R   0.527094 0.027117 0.767092 -0.104884
N12   N     N_R   0.027113 0.472901 0.767093 -0.104881
N13   N     N_R   0.472909 0.027120 0.232908 -0.104882
N14   N     N_R   0.972887 0.472901 0.232907 -0.104881
N15   N     N_R   0.527091 0.972880 0.232908 -0.104881
N16   N     N_R   0.027113 0.527098 0.232907 -0.104880
O1    O     O_R   0.064210 0.462870 0.500060 -0.525043
O2    O     O_R   0.462870 0.935790 0.500060 -0.525047
O3    O     O_R   0.935790 0.537130 0.500060 -0.525046
O4    O     O_R   0.537130 0.064210 0.500060 -0.525051
O5    O     O_R   0.064210 0.537130 0.499940 -0.525044
O6    O     O_R   0.462870 0.064210 0.499940 -0.525045
O7    O     O_R   0.935790 0.462870 0.499940 -0.525045
O8    O     O_R   0.537130 0.935790 0.499940 -0.525042
O9    O     O_R   0.564210 0.962870 0.000060 -0.525046
O10   O     O_R   0.962870 0.435790 0.000060 -0.525043
O11   O     O_R   0.435790 0.037130 0.000060 -0.525047
O12   O     O_R   0.037130 0.564210 0.000060 -0.525048
O13   O     O_R   0.564210 0.037130 0.999940 -0.525046
O14   O     O_R   0.962870 0.564210 0.999940 -0.525048
O15   O     O_R   0.435790 0.962870 0.999940 -0.525046
O16   O     O_R   0.037130 0.435790 0.999940 -0.525043
O17   O     O_R   0.999950 0.462870 0.450140 -0.525725
O18   O     O_R   0.462870 0.000050 0.450140 -0.525732
O19   O     O_R   0.000050 0.537130 0.450140 -0.525723
O20   O     O_R   0.537130 0.999950 0.450140 -0.525729
O21   O     O_R   0.999950 0.537130 0.549860 -0.525726
O22   O     O_R   0.462870 0.999950 0.549860 -0.525725
O23   O     O_R   0.000050 0.462870 0.549860 -0.525723
O24   O     O_R   0.537130 0.000050 0.549860 -0.525729
O25   O     O_R   0.499950 0.962870 0.950140 -0.525719
O26   O     O_R   0.962870 0.500050 0.950140 -0.525728
O27   O     O_R   0.500050 0.037130 0.950140 -0.525719
O28   O     O_R   0.037130 0.499950 0.950140 -0.525722
O29   O     O_R   0.499950 0.037130 0.049860 -0.525719
O30   O     O_R   0.962870 0.499950 0.049860 -0.525722
O31   O     O_R   0.500050 0.962870 0.049860 -0.525718
O32   O     O_R   0.037130 0.500050 0.049860 -0.525729
O33   O     O_R   0.499920 0.564350 0.471170 -0.525208
O34   O     O_R   0.564350 0.500080 0.471170 -0.525210
O35   O     O_R   0.500080 0.435650 0.471170 -0.525205
O36   O     O_R   0.435650 0.499920 0.471170 -0.525208
O37   O     O_R   0.499920 0.435650 0.528830 -0.525206
O38   O     O_R   0.564350 0.499920 0.528830 -0.525208
O39   O     O_R   0.500080 0.564350 0.528830 -0.525208
O40   O     O_R   0.435650 0.500080 0.528830 -0.525211
O41   O     O_R   0.999920 0.064350 0.971170 -0.525210
O42   O     O_R   0.064350 0.000080 0.971170 -0.525208
O43   O     O_R   0.000080 0.935650 0.971170 -0.525205
O44   O     O_R   0.935650 0.999920 0.971170 -0.525205
O45   O     O_R   0.999920 0.935650 0.028830 -0.525207
O46   O     O_R   0.064350 0.999920 0.028830 -0.525205
O47   O     O_R   0.000080 0.064350 0.028830 -0.525209
O48   O     O_R   0.935650 0.000080 0.028830 -0.525210
F1    F     F_    0.027663 0.574051 0.393904 -0.528536
F2    F     F_    0.574044 0.972317 0.393905 -0.528544
F3    F     F_    0.972337 0.425949 0.393904 -0.528537
F4    F     F_    0.425956 0.027683 0.393905 -0.528545
F5    F     F_    0.027662 0.425948 0.606096 -0.528536
F6    F     F_    0.574049 0.027668 0.606095 -0.528541
F7    F     F_    0.972338 0.574052 0.606096 -0.528536
F8    F     F_    0.425951 0.972331 0.606095 -0.528539
F9    F     F_    0.527648 0.074057 0.893904 -0.528531
F10   F     F_    0.074051 0.472335 0.893904 -0.528536
F11   F     F_    0.472352 0.925942 0.893904 -0.528531
F12   F     F_    0.925949 0.527665 0.893904 -0.528540
F13   F     F_    0.527645 0.925942 0.106096 -0.528531
F14   F     F_    0.074051 0.527665 0.106096 -0.528540
F15   F     F_    0.472355 0.074058 0.106096 -0.528531
F16   F     F_    0.925950 0.472335 0.106096 -0.528537
F17   F     F_    0.026601 0.574435 0.324765 -0.521672
F18   F     F_    0.574428 0.973379 0.324765 -0.521672
F19   F     F_    0.973399 0.425565 0.324764 -0.521673
F20   F     F_    0.425571 0.026620 0.324765 -0.521672
F21   F     F_    0.026600 0.425564 0.675235 -0.521671
F22   F     F_    0.574433 0.026606 0.675235 -0.521674
F23   F     F_    0.973400 0.574436 0.675235 -0.521671
F24   F     F_    0.425567 0.973394 0.675235 -0.521673
F25   F     F_    0.526585 0.074441 0.824764 -0.521672
F26   F     F_    0.074435 0.473397 0.824765 -0.521672
F27   F     F_    0.473415 0.925559 0.824764 -0.521672
F28   F     F_    0.925565 0.526603 0.824765 -0.521673
F29   F     F_    0.526583 0.925559 0.175236 -0.521672
F30   F     F_    0.074435 0.526603 0.175235 -0.521673
F31   F     F_    0.473417 0.074441 0.175236 -0.521672
F32   F     F_    0.925565 0.473397 0.175235 -0.521672
F33   F     F_    0.224470 0.574721 0.519544 -0.546100
F34   F     F_    0.574719 0.775530 0.519548 -0.546100
F35   F     F_    0.775530 0.425280 0.519548 -0.546100
F36   F     F_    0.425282 0.224469 0.519555 -0.546098
F37   F     F_    0.224470 0.425279 0.480456 -0.546101
F38   F     F_    0.574717 0.224469 0.480445 -0.546100
F39   F     F_    0.775531 0.574720 0.480452 -0.546099
F40   F     F_    0.425281 0.775530 0.480452 -0.546101
F41   F     F_    0.724469 0.074719 0.019549 -0.546101
F42   F     F_    0.074722 0.275530 0.019543 -0.546100
F43   F     F_    0.275530 0.925282 0.019551 -0.546102
F44   F     F_    0.925283 0.724469 0.019556 -0.546100
F45   F     F_    0.724470 0.925281 0.980451 -0.546102
F46   F     F_    0.074717 0.724469 0.980444 -0.546101
F47   F     F_    0.275530 0.074719 0.980449 -0.546100
F48   F     F_    0.925278 0.275530 0.980457 -0.546100
F49   F     F_    0.135660 0.574660 0.520611 -0.528914
F50   F     F_    0.574657 0.864340 0.520615 -0.528916
F51   F     F_    0.864340 0.425342 0.520616 -0.528915
F52   F     F_    0.425346 0.135659 0.520623 -0.528919
F53   F     F_    0.135660 0.425340 0.479389 -0.528914
F54   F     F_    0.574654 0.135659 0.479377 -0.528921
F55   F     F_    0.864340 0.574658 0.479384 -0.528916
F56   F     F_    0.425343 0.864340 0.479384 -0.528920
F57   F     F_    0.635660 0.074657 0.020616 -0.528917
F58   F     F_    0.074660 0.364340 0.020610 -0.528914
F59   F     F_    0.364340 0.925344 0.020618 -0.528916
F60   F     F_    0.925346 0.635660 0.020623 -0.528920
F61   F     F_    0.635660 0.925343 0.979384 -0.528917
F62   F     F_    0.074654 0.635660 0.979377 -0.528920
F63   F     F_    0.364340 0.074656 0.979382 -0.528917
F64   F     F_    0.925340 0.364340 0.979390 -0.528914
F65   F     F_    0.363861 0.477406 0.440611 -0.572035
F66   F     F_    0.477410 0.636139 0.440610 -0.572036
F67   F     F_    0.636139 0.522592 0.440610 -0.572034
F68   F     F_    0.522582 0.363861 0.440607 -0.572030
F69   F     F_    0.363861 0.522594 0.559389 -0.572036
F70   F     F_    0.477418 0.363861 0.559393 -0.572030
F71   F     F_    0.636139 0.477407 0.559390 -0.572033
F72   F     F_    0.522590 0.636139 0.559390 -0.572036
F73   F     F_    0.863861 0.977412 0.940609 -0.572034
F74   F     F_    0.977405 0.136138 0.940611 -0.572037
F75   F     F_    0.136139 0.022585 0.940609 -0.572036
F76   F     F_    0.022582 0.863861 0.940607 -0.572031
F77   F     F_    0.863861 0.022588 0.059391 -0.572036
F78   F     F_    0.977418 0.863861 0.059393 -0.572032
F79   F     F_    0.136139 0.977415 0.059391 -0.572034
F80   F     F_    0.022595 0.136138 0.059389 -0.572036

loop_
_geom_bond_atom_site_label_1
_geom_bond_atom_site_label_2
_ccdc_geom_bond_type
C23   C155  A    
C62   C77   S    
C32   H8    S    
C42   C58   A    
C2    O8    A    
C31   C67   A    
C76   O40   A    
C45   C57   A    
C27   H3    S    
C77   O41   A    
Cu12  O48   S    
C78   O46   A    
C57   C76   S    
C172  F60   S    
C37   C69   A    
Cu5   O25   S    
C98   C114  A    
C61   C80   S    
C117  F29   S    
C111  F23   S    
C154  C170  A    
C1    O1    A    
C120  F32   S    
C163  F51   S    
C164  F52   S    
C86   C134  S    
C145  F33   S    
C80   O44   A    
C4    C12   S    
C5    C13   S    
C33   C69   A    
C88   O32   A    
C149  F37   S    
C156  F44   S    
C35   C71   A    
C8    C16   S    
C11   C167  A    
Cu8   O28   S    
C90   F2    S    
C18   C152  A    
C153  F41   S    
Cu5   Cu7   S    
C147  F35   S    
C91   C107  A    
Cu5   O31   S    
C25   C41   A    
Cu9   O34   S    
C50   F74   S    
C109  F21   S    
Cu11  O41   S    
C94   C132  A    
C29   C45   A    
C26   C66   A    
C13   C173  A    
C81   O17   A    
Cu9   O35   S    
C81   C129  S    
C143  N4    A    
C139  N12   A    
C84   O24   A    
C74   O34   A    
C35   C51   A    
C64   C79   S    
C56   C62   A    
C43   F67   S    
Cu1   O17   S    
C144  N1    A    
Cu8   O32   S    
C6    O16   A    
C55   F79   S    
C60   C75   S    
C46   C60   A    
C20   C68   S    
C73   O39   A    
C112  C124  A    
C91   C129  A    
C53   F77   S    
C145  C161  A    
C29   H5    S    
C84   C132  S    
Cu4   O4    S    
C3    C11   S    
Cu6   O14   S    
C47   C59   A    
C10   C168  A    
C38   H14   S    
C51   F75   S    
C21   C153  A    
C171  F59   S    
C24   C156  A    
C31   H7    S    
C97   C133  A    
C104  C120  A    
Cu9   O36   S    
C35   H11   S    
C87   O31   A    
C157  C173  A    
C40   C70   A    
C28   C68   A    
C42   F66   S    
C75   O35   A    
C114  C126  A    
C151  C167  A    
C143  N2    A    
C139  N10   A    
C150  C166  A    
C161  F49   S    
C97   F9    S    
C99   F11   S    
Cu6   O10   S    
C40   H16   S    
Cu1   Cu3   S    
C55   C63   A    
C19   C151  A    
C20   C148  A    
C176  F64   S    
C36   C52   A    
C43   C59   A    
C144  N3    A    
C37   C53   A    
N4    N15   A    
C13   C169  A    
N7    N12   A    
C85   O25   A    
C78   O42   A    
C121  C144  S    
C122  C143  S    
C100  C134  A    
C101  C135  A    
C125  C140  S    
C113  F25   S    
C38   C72   A    
C126  C139  S    
C118  F30   S    
C115  F27   S    
C148  C164  A    
C1    C9    S    
C170  F58   S    
C149  C165  A    
C109  C123  A    
C39   C71   A    
C156  C172  A    
C105  F17   S    
C21   C69   S    
C107  F19   S    
C93   F5    S    
C108  F20   S    
C27   C43   A    
C6    C14   S    
C34   H10   S    
N8    N11   A    
C174  F62   S    
Cu10  O39   S    
C106  C122  A    
C11   C163  A    
C9    C161  A    
Cu3   O21   S    
C140  N9    A    
C29   C65   A    
C154  F42   S    
C169  F57   S    
Cu1   O23   S    
C138  N15   A    
C6    O10   A    
C41   F65   S    
C96   F8    S    
C124  C141  S    
Cu7   O11   S    
C24   C72   S    
C16   C174  A    
C87   O29   A    
C3    O3    A    
C104  C136  A    
C80   O48   A    
C30   C46   A    
C119  F31   S    
C158  C174  A    
C18   C66   S    
N6    N9    A    
C101  F13   S    
Cu12  O45   S    
Cu6   O30   S    
C25   H1    S    
C148  F36   S    
C22   C160  A    
C112  F24   S    
C7    C15   S    
C157  F45   S    
C76   O36   A    
Cu6   Cu8   S    
C27   C67   A    
C49   F73   S    
C10   C162  A    
C89   C105  A    
C85   O27   A    
C142  N5    A    
Cu1   O1    S    
C22   C70   S    
C48   F72   S    
C93   C109  A    
C63   C78   S    
C119  C127  A    
C39   H15   S    
C79   O43   A    
C100  C116  A    
C20   C150  A    
C175  F63   S    
C7    O11   A    
C146  C162  A    
C26   C42   A    
N3    N16   A    
Cu6   O26   S    
C99   C115  A    
C92   F4    S    
Cu4   O20   S    
Cu10  O37   S    
C33   C49   A    
C83   O23   A    
Cu11  O44   S    
C2    O2    A    
C95   F7    S    
Cu8   O16   S    
Cu3   O19   S    
C140  N11   A    
C110  C124  A    
C142  N7    A    
C45   F69   S    
C75   O37   A    
C138  N13   A    
C40   C56   A    
C152  F40   S    
C19   C67   S    
C127  C138  S    
C4    O6    A    
C34   C70   A    
C39   C55   A    
C31   C47   A    
C95   C131  A    
C32   C48   A    
C152  C168  A    
C7    O15   A    
C49   C61   A    
Cu12  O47   S    
C111  C123  A    
C87   C135  S    
C56   F80   S    
C51   C63   A    
C88   C136  S    
C173  F61   S    
C98   F10   S    
Cu4   O8    S    
C19   C147  A    
C81   O19   A    
Cu3   O5    S    
C17   C145  A    
C23   C71   S    
Cu1   O7    S    
N2    N13   A    
C38   C54   A    
C162  F50   S    
C150  F38   S    
C15   C171  A    
Cu7   O27   S    
C117  C127  A    
C59   C74   S    
C90   C106  A    
Cu7   O13   S    
C73   O33   A    
C146  F34   S    
C114  F26   S    
C52   C64   A    
C107  C121  A    
C159  F47   S    
C3    O7    A    
Cu2   O18   S    
C32   C66   A    
C1    O5    A    
C116  F28   S    
C86   O28   A    
C106  F18   S    
C17   C65   S    
C36   H12   S    
C23   C159  A    
C94   F6    S    
Cu2   Cu4   S    
C120  C128  A    
C48   C58   A    
C47   F71   S    
C5    O13   A    
C83   O21   A    
Cu11  O42   S    
N5    N10   A    
C101  C117  A    
C9    C165  A    
C41   C57   A    
Cu11  Cu12  S    
C104  F16   S    
Cu9   Cu10  S    
C30   H6    S    
C74   O38   A    
C14   C170  A    
C44   C60   A    
C123  C142  S    
C94   C110  A    
C102  C136  A    
C160  F48   S    
C90   C130  A    
C166  F54   S    
C52   F76   S    
C113  C125  A    
C153  C169  A    
C37   H13   S    
C147  C163  A    
C93   C131  A    
C89   C129  A    
C141  N6    A    
C30   C68   A    
C85   C133  S    
Cu2   O22   S    
C102  F14   S    
C92   C130  A    
C26   H2    S    
C83   C131  S    
C96   C112  A    
C54   C64   A    
C89   F1    S    
C158  F46   S    
C91   F3    S    
C12   C166  A    
C24   C158  A    
C12   C164  A    
C99   C133  A    
C168  F56   S    
C103  C135  A    
C14   C176  A    
C118  C128  A    
Cu9   O33   S    
Cu5   O9    S    
C82   O20   A    
C137  N14   A    
C28   C44   A    
C82   C130  S    
C102  C118  A    
C96   C132  A    
C110  F22   S    
C86   O26   A    
C116  C126  A    
C100  F12   S    
C160  C176  A    
C53   C61   A    
C28   H4    S    
C103  F15   S    
C92   C108  A    
Cu4   O24   S    
C155  F43   S    
N1    N14   A    
C34   C50   A    
C25   C65   A    
Cu8   O12   S    
Cu10  O40   S    
C4    O4    A    
C77   O47   A    
Cu3   O3    S    
C128  C137  S    
Cu7   O29   S    
C155  C171  A    
Cu5   O15   S    
C33   H9    S    
C105  C121  A    
C141  N8    A    
C103  C119  A    
C54   F78   S    
C50   C62   A    
C5    O9    A    
C97   C113  A    
C2    C10   S    
C88   O30   A    
C22   C154  A    
C46   F70   S    
C21   C157  A    
C17   C149  A    
C108  C122  A    
C18   C146  A    
C84   O22   A    
C98   C134  A    
C151  F39   S    
C115  C125  A    
C15   C175  A    
C95   C111  A    
C8    O12   A    
C165  F53   S    
Cu10  O38   S    
C82   O18   A    
C137  N16   A    
Cu11  O43   S    
C79   O45   A    
Cu2   O6    S    
C36   C72   A    
C44   F68   S    
Cu12  O46   S    
Cu2   O2    S    
C159  C175  A    
C167  F55   S    
C58   C73   S    
C8    O14   A    
C16   C172  A    
