data_mof_unit_15229.cif
_audit_creation_date              2012-12-10T17:12:02-0500
_audit_creation_method            fapswitch 2.2
_symmetry_space_group_name_H-M    P1
_symmetry_Int_Tables_number       1
_space_group_crystal_system       triclinic
_cell_length_a                    11.83087
_cell_length_b                    12.960496
_cell_length_c                    15.820132
_cell_angle_alpha                 94.77295
_cell_angle_beta                  73.932169
_cell_angle_gamma                 100.142218
_cell_volume                      2293.05116881

loop_
_atom_site_label
_atom_site_type_symbol
_atom_type_description
_atom_site_fract_x
_atom_site_fract_y
_atom_site_fract_z
_atom_type_partial_charge
C1    C     C_R   0.522718 0.700330 0.497909 0.861637
C2    C     C_R   0.477282 0.299669 0.502091 0.861636
C3    C     C_R   0.365714 0.532261 0.085384 0.263885
C4    C     C_R   0.634286 0.467740 0.914616 0.263885
C5    C     C_R   0.276108 0.502043 0.041199 0.425569
C6    C     C_R   0.723892 0.497958 0.958801 0.425568
C7    C     C_R   0.461814 0.186301 0.508901 -0.233968
C8    C     C_R   0.538186 0.813699 0.491099 -0.233968
C9    C     C_R   0.651978 0.979031 0.432157 0.379171
C10   C     C_R   0.348021 0.020969 0.567843 0.379171
C11   C     C_R   0.643822 0.870879 0.439759 0.288741
C12   C     C_R   0.356177 0.129121 0.560241 0.288741
C13   C     C_R   0.441611 0.863789 0.533415 -0.181345
C14   C     C_R   0.558389 0.136211 0.466585 -0.181345
C15   C     C_R   0.446818 0.970897 0.525528 -0.045476
C16   C     C_R   0.553182 0.029102 0.474472 -0.045476
C17   C     C_R   0.935785 0.598535 0.586119 0.266081
C18   C     C_R   0.064216 0.401465 0.413881 0.266082
C19   C     C_R   0.820189 0.590722 0.574729 0.540626
C20   C     C_R   0.179811 0.409278 0.425271 0.540626
C21   C     C_R   0.860132 0.457980 0.462283 0.571268
C22   C     C_R   0.139868 0.542020 0.537717 0.571268
C23   C     C_R   0.426583 0.491750 0.668147 0.875107
C24   C     C_R   0.573417 0.508250 0.331853 0.875107
C25   C     C_R   0.980708 0.464144 0.468114 -0.239354
C26   C     C_R   0.019292 0.535856 0.531886 -0.239354
C27   C     C_R   0.381601 0.479951 0.764884 -0.210006
C28   C     C_R   0.618399 0.520049 0.235115 -0.210007
C29   C     C_R   0.223417 0.446607 0.900978 0.403327
C30   C     C_R   0.776582 0.553393 0.099022 0.403327
C31   C     C_R   0.259960 0.448380 0.808443 0.345613
C32   C     C_R   0.740040 0.551620 0.191557 0.345613
C33   C     C_R   0.465029 0.495835 0.814432 -0.163427
C34   C     C_R   0.534971 0.504165 0.185568 -0.163427
C35   C     C_R   0.431007 0.483335 0.905706 0.019951
C36   C     C_R   0.568993 0.516665 0.094294 0.019951
C37   C     C_R   0.308556 0.474813 0.950327 -0.140792
C38   C     C_R   0.691444 0.525187 0.049673 -0.140792
C39   C     C_R   0.516881 0.488382 0.954121 -0.070348
C40   C     C_R   0.483119 0.511619 0.045879 -0.070348
Cu1   Cu    Cu3+1 0.386820 0.492450 0.493500 1.102046
Cu2   Cu    Cu3+1 0.613180 0.507550 0.506500 1.102046
H1    H     H_    0.442434 0.477325 0.218148 0.227704
H2    H     H_    0.557566 0.522675 0.781852 0.227704
H3    H     H_    0.637840 0.182261 0.427317 0.254337
H4    H     H_    0.362160 0.817739 0.572683 0.254337
N1    N     N_R   0.216750 0.481110 0.483710 -0.271262
N2    N     N_R   0.783250 0.518890 0.516290 -0.271262
O1    O     O_R   0.419950 0.645670 0.495380 -0.546575
O2    O     O_R   0.580050 0.354330 0.504620 -0.546575
O3    O     O_R   0.611110 0.658410 0.506370 -0.546788
O4    O     O_R   0.388890 0.341590 0.493630 -0.546788
O5    O     O_R   0.350820 0.490050 0.621260 -0.497283
O6    O     O_R   0.649180 0.509950 0.378740 -0.497283
O7    O     O_R   0.541970 0.502800 0.632250 -0.554038
O8    O     O_R   0.458030 0.497200 0.367750 -0.554038
O9    O     O_3   0.161349 0.520436 0.081415 -0.496107
C41   C     C_3   0.106653 0.447824 0.148123 0.075390
H5    H     H_    0.130701 0.475992 0.209891 0.196730
H6    H     H_    0.128317 0.367353 0.128780 0.145363
H7    H     H_    0.008682 0.441642 0.161665 0.241793
O10   O     O_3   0.838651 0.479565 0.918585 -0.496106
C42   C     C_3   0.893346 0.552177 0.851877 0.075389
H8    H     H_    0.871683 0.632649 0.871221 0.145363
H9    H     H_    0.869297 0.524010 0.790109 0.196728
H10   H     H_    0.991318 0.558358 0.838334 0.241794
O11   O     O_3   0.261504 0.350769 0.371479 -0.562710
C43   C     C_3   0.231056 0.243504 0.392944 -0.089194
H11   H     H_    0.189246 0.197075 0.344340 0.220471
H12   H     H_    0.172421 0.229269 0.460787 0.182817
H13   H     H_    0.314008 0.211537 0.386847 0.161588
O12   O     O_3   0.738496 0.649231 0.628521 -0.562711
C44   C     C_3   0.768944 0.756496 0.607056 -0.089193
H14   H     H_    0.827579 0.770732 0.539213 0.182817
H15   H     H_    0.810753 0.802925 0.655661 0.220470
H16   H     H_    0.685992 0.788463 0.613152 0.161588
Cl1   Cl    Cl    0.963864 0.686315 0.672596 -0.529412
Cl2   Cl    Cl    0.036136 0.313685 0.327404 -0.529411
Cl3   Cl    Cl    0.849168 0.590936 0.250139 -0.416584
Cl4   Cl    Cl    0.150831 0.409064 0.749861 -0.416583
Cl5   Cl    Cl    0.072488 0.397432 0.952065 -0.396905
Cl6   Cl    Cl    0.927512 0.602568 0.047935 -0.396905
Cl7   Cl    Cl    0.334469 0.617944 0.179464 -0.522445
Cl8   Cl    Cl    0.665531 0.382056 0.820536 -0.522444
Cl9   Cl    Cl    0.236521 0.192688 0.620511 -0.455319
Cl10  Cl    Cl    0.763479 0.807312 0.379489 -0.455319
Cl11  Cl    Cl    0.786417 0.049965 0.368391 -0.412686
Cl12  Cl    Cl    0.213583 0.950035 0.631609 -0.412685
Cl13  Cl    Cl    0.197039 0.626763 0.614030 -0.467192
Cl14  Cl    Cl    0.802961 0.373237 0.385970 -0.467191

loop_
_geom_bond_atom_site_label_1
_geom_bond_atom_site_label_2
_ccdc_geom_bond_type
C42   H9    S    
C8    C13   A    
C5    C37   A    
C1    C8    S    
Cu1   Cu2   S    
C20   O11   S    
C2    C7    S    
C31   Cl4   S    
C27   C33   A    
C10   Cl12  S    
C12   Cl9   S    
C17   C26   A    
C35   C37   A    
C9    C16   A    
C10   C15   A    
C43   H13   S    
C13   H4    S    
C11   Cl10  S    
C24   O6    A    
C15   C16   A    
C30   C38   A    
C44   H14   S    
C2    O2    A    
C17   C19   A    
C7    C14   A    
C43   H11   S    
C6    C38   A    
C23   C27   S    
Cu1   O4    S    
C34   C36   A    
Cu2   O3    S    
C21   N2    A    
C41   H7    S    
C22   N1    A    
C42   H10   S    
C28   C34   A    
C44   H15   S    
C19   O12   S    
C18   C25   A    
C10   C12   A    
Cu1   O1    S    
C23   O5    A    
C14   H3    S    
C21   Cl14  S    
C7    C12   A    
C27   C31   A    
O11   C43   S    
C28   C32   A    
C4    C6    A    
C39   C40   A    
C19   N2    A    
C41   H5    S    
C30   Cl6   S    
C35   C39   A    
Cu1   O8    S    
C29   Cl5   S    
O10   C42   S    
Cu2   O7    S    
C1    O3    A    
C4    Cl8   S    
C4    C39   A    
C36   C40   A    
C18   Cl2   S    
C17   Cl1   S    
Cu1   N1    S    
Cu2   N2    S    
C9    C11   A    
Cu1   O5    S    
C2    O4    A    
Cu2   O2    S    
C3    C40   A    
C13   C15   A    
C3    Cl7   S    
C44   H16   S    
C14   C16   A    
C21   C25   A    
C33   H2    S    
C34   H1    S    
C24   C28   S    
O12   C44   S    
C3    C5    A    
C23   O7    A    
C24   O8    A    
C5    O9    S    
C6    O10   S    
C36   C38   A    
C25   C26   A    
C29   C31   A    
Cu2   O6    S    
C32   Cl3   S    
C30   C32   A    
O9    C41   S    
C1    O1    A    
C8    C11   A    
C33   C35   A    
C22   Cl13  S    
C18   C20   A    
C20   N1    A    
C42   H8    S    
C43   H12   S    
C22   C26   A    
C29   C37   A    
C41   H6    S    
C9    Cl11  S    
