data_mof_unit_44565.cif
_audit_creation_date              2013-03-05T16:04:17-0500
_audit_creation_method            fapswitch 2.2
_symmetry_space_group_name_H-M    P1
_symmetry_Int_Tables_number       1
_space_group_crystal_system       triclinic
_cell_length_a                    8.280011
_cell_length_b                    14.584914
_cell_length_c                    19.380354
_cell_angle_alpha                 99.908881
_cell_angle_beta                  92.673578
_cell_angle_gamma                 92.068991
_cell_volume                      2300.69475984

loop_
_atom_site_label
_atom_site_type_symbol
_atom_site_description
_atom_site_fract_x
_atom_site_fract_y
_atom_site_fract_z
_atom_type_partial_charge
P1    P     P_3+3 0.064140 0.407250 0.340900 0.506684
O1    O     O_2   0.890230 0.433890 0.328780 -0.326857
O2    O     O_3   0.136580 0.442380 0.417110 -0.372570
O3    O     O_3   0.636390 0.607640 0.365630 -0.371201
O4    O     O_2   0.712684 0.513053 0.246474 -0.341097
O5    O     O_3   0.011142 0.287943 0.321949 -0.599296
O6    O     O_3   0.687061 0.691336 0.247267 -0.507950
H1    H     H_    0.573289 0.777958 0.325637 0.099598
C1    C     C_3   0.665113 0.853844 0.248362 0.014403
H2    H     H_    0.777769 0.873472 0.281200 0.206218
H3    H     H_    0.694216 0.839794 0.192168 0.162098
P2    P     P_3+3 0.622060 0.719380 0.547490 0.487203
P3    P     P_3+3 0.055791 0.779809 0.401508 0.520213
O7    O     O_2   0.794910 0.731270 0.525620 -0.334113
O8    O     O_3   0.045950 0.658760 0.399470 -0.362528
O9    O     O_2   0.908065 0.820484 0.439779 -0.355738
O10   O     O_3   0.665262 0.754153 0.637925 -0.636500
O11   O     O_3   0.019098 0.799706 0.315683 -0.491934
C2    C     C_3   0.159186 0.782665 0.278383 0.192841
H4    H     H_    0.203863 0.713250 0.283839 0.011651
H5    H     H_    0.255188 0.836955 0.298970 0.062914
C3    C     C_3   0.123095 0.783631 0.199644 0.091149
C4    C     C_3   0.021068 0.759303 0.689022 0.190375
H6    H     H_    0.949739 0.762116 0.640313 0.178095
H7    H     H_    0.948324 0.724430 0.724716 0.094404
C5    C     C_3   0.066438 0.858907 0.726408 -0.135980
H8    H     H_    0.143758 0.856383 0.774403 0.145139
H9    H     H_    0.954784 0.893902 0.743045 0.153367
Ba1   Ba    Ba6+2 0.843770 0.541130 0.463760 1.655665
C6    C     C_3   0.131413 0.231160 0.340794 0.694365
H10   H     H_    0.252766 0.267223 0.348172 -0.030687
C7    C     C_3   0.134608 0.147705 0.279913 -0.577880
H11   H     H_    0.010190 0.115857 0.267290 0.261501
H12   H     H_    0.172903 0.174138 0.232491 0.207831
C8    C     C_3   0.544915 0.723821 0.677491 0.575132
H13   H     H_    0.433469 0.702095 0.644979 0.057313
C9    C     C_3   0.500387 0.804215 0.734795 -0.106769
H14   H     H_    0.419598 0.778015 0.771835 0.149534
H15   H     H_    0.431062 0.853413 0.708795 0.144044
P4    P     P_3+3 0.125560 0.592830 0.659110 0.476629
O12   O     O_2   0.299470 0.566150 0.671260 -0.350320
O13   O     O_3   0.053110 0.557700 0.582890 -0.366596
O14   O     O_3   0.553300 0.392440 0.634370 -0.311608
O15   O     O_3   0.161831 0.713343 0.670801 -0.591261
P5    P     P_3+3 0.133064 0.223427 0.606191 0.541330
O16   O     O_3   0.638180 0.384440 0.468210 -0.381851
O17   O     O_3   0.143740 0.341320 0.600540 -0.367745
O18   O     O_2   0.250119 0.175894 0.552963 -0.327427
O19   O     O_3   0.214994 0.203128 0.686687 -0.503711
Ba2   Ba    Ba6+2 0.346040 0.458940 0.536250 1.669461
P6    P     P_3+3 0.604378 0.593209 0.275352 0.484444
C10   C     C_3   0.587959 0.766186 0.267945 0.158850
H16   H     H_    0.468729 0.752677 0.239342 0.005110
O20   O     O_3   0.551510 0.615640 0.531790 -0.384444
C11   C     C_3   0.597354 0.273874 0.325825 0.195663
H17   H     H_    0.504648 0.327584 0.329650 0.064945
H18   H     H_    0.718074 0.307135 0.340763 0.177392
C12   C     C_3   0.597941 0.221111 0.251026 -0.048266
H19   H     H_    0.480682 0.181818 0.235994 0.144733
H20   H     H_    0.695571 0.170296 0.247509 0.173868
P7    P     P_3+3 0.576926 0.264459 0.456273 0.475776
O21   O     O_2   0.394780 0.268760 0.474430 -0.340539
O22   O     O_3   0.564364 0.209326 0.368965 -0.598836
H21   H     H_    0.225709 0.752790 0.170421 0.044849
C13   C     C_3   0.148173 0.262209 0.741857 0.459399
H22   H     H_    0.195160 0.335117 0.743981 0.106896
H23   H     H_    0.014557 0.259089 0.735408 -0.011788
C14   C     C_3   0.196763 0.229492 0.810609 -0.580892
H24   H     H_    0.330200 0.232136 0.819309 0.235676
H25   H     H_    0.153806 0.155799 0.807382 0.243571
P8    P     P_3+3 0.601305 0.388646 0.722432 0.512976
C15   C     C_3   0.637155 0.213138 0.731687 0.456673
H26   H     H_    0.750289 0.235681 0.709655 0.006468
O23   O     O_2   0.491721 0.461480 0.762367 -0.341472
O24   O     O_3   0.522081 0.282514 0.739543 -0.529672
C16   C     C_3   0.676526 0.186627 0.804183 -0.637848
H27   H     H_    0.583066 0.136053 0.816621 0.238842
H28   H     H_    0.674867 0.249555 0.845364 0.223816
C17   C     C_R   0.049899 0.562616 0.799000 -0.221889
H29   H     H_    0.108909 0.629800 0.818382 0.136242
C18   C     C_R   0.018566 0.537885 0.725151 0.228725
C19   C     C_R   0.889932 0.426268 0.812729 -0.376944
H30   H     H_    0.850357 0.372591 0.840579 0.156417
C20   C     C_R   0.818306 0.424042 0.745611 0.197801
C21   C     C_R   0.312921 0.569159 0.188357 -0.372004
H31   H     H_    0.362303 0.623286 0.163315 0.146261
C22   C     C_R   0.391169 0.557561 0.251558 0.260767
C23   C     C_R   0.120928 0.445280 0.199688 -0.212732
H32   H     H_    0.035711 0.388309 0.179602 0.170371
C24   C     C_R   0.170826 0.457370 0.272458 0.244108
C25   C     C_R   0.997745 0.501653 0.845292 0.146859
C26   C     C_R   0.900753 0.468677 0.699575 -0.263062
H33   H     H_    0.862650 0.455818 0.644478 0.156586
C27   C     C_R   0.186637 0.505532 0.155021 0.111145
C28   C     C_R   0.313121 0.507761 0.295377 -0.359733
H34   H     H_    0.366371 0.505767 0.347156 0.126831
C29   C     C_R   0.767052 0.462062 0.949469 -0.191222
C30   C     C_R   0.669038 0.407971 0.984206 0.027817
C31   C     C_R   0.708968 0.406408 0.054165 -0.058078
C32   C     C_R   0.849973 0.452837 0.085959 -0.148746
C33   C     C_R   0.973695 0.481045 0.045537 0.022002
C34   C     C_R   0.929893 0.485817 0.973083 0.100425
C35   C     C_R   0.134936 0.503745 0.075251 -0.056203
C36   C     C_R   0.248654 0.530625 0.027561 0.108551
C37   C     C_R   0.202321 0.543716 0.957067 0.014524
C38   C     C_R   0.043509 0.514436 0.926087 -0.007611
C39   C     C_R   0.414552 0.543095 0.048075 -0.264750
C40   C     C_R   0.516926 0.598878 0.017110 -0.232089
C41   C     C_R   0.468510 0.623166 0.953797 0.415000
C42   C     C_R   0.321721 0.585404 0.920413 -0.272001
H35   H     H_    0.713354 0.483183 0.903242 0.174566
H36   H     H_    0.623823 0.376069 0.084881 0.206818
H37   H     H_    0.858032 0.466213 0.141780 0.188817
H38   H     H_    0.466931 0.512542 0.090055 0.181865
H39   H     H_    0.636704 0.619109 0.040957 0.177912
H40   H     H_    0.309805 0.589544 0.866254 0.169207
C43   C     C_R   0.694745 0.947351 0.548825 0.022077
C44   C     C_R   0.501065 0.806370 0.509414 0.161847
C45   C     C_R   0.345865 0.774460 0.480105 -0.263569
C46   C     C_R   0.247784 0.831223 0.446867 0.230118
C47   C     C_R   0.298204 0.922859 0.445772 -0.260699
C48   C     C_R   0.447594 0.959578 0.478201 0.088557
C49   C     C_R   0.550717 0.903139 0.512415 0.019548
C50   C     C_R   0.635936 0.095563 0.510724 -0.012178
C51   C     C_R   0.740002 0.041124 0.545394 0.031453
C52   C     C_R   0.678879 0.191486 0.512466 0.255109
C53   C     C_R   0.818767 0.230936 0.550269 -0.365327
C54   C     C_R   0.927993 0.175449 0.578727 0.266549
C55   C     C_R   0.888779 0.081925 0.577148 -0.299422
C56   C     C_R   0.491902 0.053200 0.476907 -0.028342
H41   H     H_    0.219706 0.965722 0.419947 0.170442
H42   H     H_    0.977489 0.042145 0.600205 0.185594
H43   H     H_    0.850494 0.303792 0.551291 0.162283
H44   H     H_    0.410749 0.093007 0.449836 0.164576
N1    N     N_R   0.150962 0.914906 0.682273 0.234589
O25   O     O_R   0.190284 0.001738 0.707237 -0.422618
O26   O     O_R   0.193381 0.879294 0.619818 -0.446666
N2    N     N_R   0.086939 0.203209 0.406343 0.226759
O27   O     O_R   0.033553 0.118907 0.408987 -0.457172
O28   O     O_R   0.065285 0.269037 0.458792 -0.356972
N3    N     N_3   0.245341 0.076480 0.294034 -0.114598
H45   H     H_    0.332882 0.104934 0.332756 0.191753
H46   H     H_    0.181001 0.024266 0.313280 0.216389
N4    N     N_R   0.603538 0.643971 0.705302 0.232896
O29   O     O_R   0.613120 0.640963 0.771972 -0.356678
O30   O     O_R   0.648513 0.573751 0.661094 -0.375426
N5    N     N_R   0.641803 0.854977 0.772864 0.272255
O31   O     O_R   0.738491 0.814875 0.812060 -0.304723
O32   O     O_R   0.658860 0.944410 0.775301 -0.449154
N6    N     N_R   0.558110 0.931185 0.260656 0.230647
O33   O     O_R   0.515977 0.974258 0.209653 -0.333952
O34   O     O_R   0.526558 0.966657 0.324489 -0.458714
N7    N     N_R   0.624278 0.285682 0.203130 0.243683
O35   O     O_R   0.513151 0.343234 0.192430 -0.456741
O36   O     O_R   0.757481 0.284675 0.170028 -0.409416
N8    N     N_3   0.126720 0.286842 0.869862 -0.215921
H47   H     H_    0.149132 0.256224 0.914140 0.157095
H48   H     H_    0.190925 0.351063 0.879419 0.133076
N9    N     N_3   0.567305 0.132331 0.682717 -0.179059
H49   H     H_    0.647528 0.078500 0.679837 0.085895
H50   H     H_    0.461825 0.108095 0.702537 0.225276
N10   N     N_3   0.836235 0.148109 0.807530 -0.199904
H51   H     H_    0.853648 0.128228 0.856573 0.193255
H52   H     H_    0.839631 0.087730 0.769953 0.187103
N11   N     N_3   0.524405 0.361130 0.949322 -0.213895
H53   H     H_    0.454634 0.333213 0.984956 0.122726
H54   H     H_    0.454916 0.409807 0.929369 0.126993
N12   N     N_R   0.568015 0.685466 0.922818 0.266891
O37   O     O_R   0.724223 0.691044 0.935285 -0.359528
O38   O     O_R   0.499753 0.749109 0.893664 -0.337918
N13   N     N_3   0.280039 0.684717 0.486963 -0.139892
H55   H     H_    0.337681 0.632622 0.454519 0.141308
H56   H     H_    0.281442 0.676799 0.539415 0.178490
N14   N     N_3   0.789216 0.900959 0.594446 -0.161313
H57   H     H_    0.905103 0.893849 0.575881 0.187256
H58   H     H_    0.795555 0.940097 0.645066 0.123556
N15   N     N_3   0.975197 0.728171 0.173663 -0.150863
H59   H     H_    0.963488 0.724132 0.119232 0.137379
H60   H     H_    0.988833 0.660091 0.182476 0.131244
N16   N     N_R   0.109249 0.878707 0.186114 0.269823
O39   O     O_R   0.992484 0.929438 0.211024 -0.399476
O40   O     O_R   0.204470 0.909864 0.143023 -0.310636

loop_
_geom_bond_atom_site_label_1
_geom_bond_atom_site_label_2
_geom_bond_distance
_ccdc_geom_bond_type
C43   N14   1.425129 S    
P8    O24   1.749281 S    
C37   C42   1.422132 A    
C52   C53   1.391778 A    
C6    N2    1.458304 S    
P2    Ba1   3.454358 S    
C16   N10   1.458326 S    
C28   H34   1.082561 S    
C15   C16   1.543737 S    
C54   C55   1.385522 A    
C29   C30   1.386278 A    
C24   C28   1.379096 A    
C21   H31   1.073786 S    
C10   H16   1.103639 S    
N13   H56   1.042205 S    
C5    H8    1.111024 S    
N11   H53   1.045692 S    
C15   N9    1.462464 S    
O19   C13   1.401563 S    
P3    O11   1.751712 S    
O1    Ba1   2.857753 S    
C40   H39   1.083242 S    
N8    H47   1.045567 S    
C8    C9    1.537978 S    
C16   H28   1.108762 S    
O6    C10   1.403735 S    
O11   C2    1.402489 S    
N3    H46   1.043968 S    
C6    H10   1.108723 S    
Ba1   O13   2.792437 S    
P4    Ba2   3.446479 S    
Ba1   O20   2.961365 S    
P5    C54   1.832440 S    
C12   H20   1.112846 S    
C40   C41   1.380491 A    
P7    O22   1.740614 S    
P1    O1    1.523129 D    
C4    C5    1.532785 S    
O2    Ba1   2.962813 S    
N14   H57   1.042821 S    
C26   H33   1.081782 S    
C5    N1    1.464062 S    
C44   C45   1.410091 A    
C18   C26   1.388445 A    
N5    O31   1.300020 A    
C12   N7    1.449488 S    
C14   H24   1.108117 S    
C13   H23   1.105981 S    
C11   O22   1.390519 S    
P2    O10   1.754856 S    
C4    H6    1.097586 S    
N9    H50   1.044516 S    
P7    C52   1.846454 S    
N7    O36   1.300822 A    
C1    H2    1.104399 S    
H1    C10   1.114674 S    
C17   C25   1.436966 A    
C29   C34   1.414781 A    
C8    N4    1.454266 S    
C55   H42   1.079435 S    
C19   C25   1.428924 A    
N12   O38   1.299573 A    
N11   H54   1.042995 S    
C25   C38   1.571382 S    
C56   H44   1.078859 S    
C1    C10   1.522273 S    
C47   H41   1.081872 S    
C15   O24   1.408901 S    
C36   C37   1.447856 A    
O2    Ba2   2.793177 S    
N16   O40   1.300666 A    
O8    Ba1   2.832162 S    
O17   Ba2   2.832652 S    
N10   H52   1.043857 S    
Ba1   Ba2   4.599789 S    
P5    O17   1.741004 S    
C23   C27   1.445290 A    
C1    N6    1.453794 S    
C2    H5    1.110967 S    
O3    P6    1.732532 S    
P1    O5    1.750783 S    
C33   C34   1.447770 A    
C53   H43   1.081962 S    
N1    O25   1.299456 A    
C2    C3    1.543799 S    
C16   H27   1.112831 S    
C3    N16   1.462387 S    
P6    C22   1.837055 S    
C17   C18   1.423641 A    
N4    O29   1.299191 A    
O16   P7    1.777246 S    
N15   H60   1.045235 S    
C12   H19   1.109925 S    
C4    O15   1.394918 S    
C22   C28   1.376934 A    
P1    O2    1.561559 S    
C8    H13   1.097666 S    
C7    H12   1.110916 S    
C39   H38   1.074443 S    
C9    H14   1.108847 S    
C41   N12   1.429946 S    
C21   C27   1.425655 A    
P4    O13   1.561753 S    
N9    H49   1.042497 S    
P5    O19   1.748221 S    
C39   C40   1.380674 A    
C13   C14   1.532202 S    
C11   H17   1.112255 S    
P1    Ba1   3.445883 S    
C7    N3    1.462146 S    
C50   C56   1.402889 A    
Ba2   O20   2.815338 S    
C9    N5    1.460261 S    
C1    H3    1.112360 S    
N13   H55   1.044131 S    
C47   C48   1.405574 A    
N2    O28   1.296423 A    
O13   Ba2   2.963675 S    
P2    C44   1.871616 S    
N4    O30   1.294954 A    
N12   O37   1.301680 A    
O5    C6    1.393082 S    
C23   C24   1.430232 A    
C27   C35   1.580354 S    
C19   H30   1.074712 S    
C19   C20   1.398887 A    
P3    O8    1.757970 S    
Ba2   O21   2.876499 S    
N6    O34   1.298442 A    
P3    O9    1.543962 D    
C13   H22   1.112359 S    
O7    Ba1   2.876368 S    
C53   C54   1.391743 A    
P1    C24   1.862922 S    
C42   H40   1.061910 S    
O12   Ba2   2.858240 S    
P3    C46   1.849035 S    
C46   C47   1.389704 A    
C50   C52   1.425324 A    
P8    C20   1.864030 S    
P5    O18   1.542668 D    
N1    O26   1.301802 A    
P4    O12   1.523404 D    
O14   P8    1.744870 S    
N5    O32   1.299404 A    
P4    C18   1.863507 S    
C32   H37   1.064229 S    
O3    Ba1   2.820782 S    
P2    O7    1.523817 D    
C15   H26   1.109649 S    
C14   N8    1.456457 S    
P8    O23   1.550132 D    
C45   C46   1.393960 A    
O14   Ba2   2.819987 S    
N10   H51   1.045635 S    
O10   C8    1.390266 S    
C37   C38   1.438597 A    
O16   Ba2   2.960555 S    
C5    H9    1.106518 S    
C31   C32   1.390513 A    
Ba1   O16   2.815757 S    
C7    H11   1.113424 S    
C2    H4    1.110511 S    
C11   H18   1.099059 S    
C43   C49   1.430135 A    
O6    P6    1.745105 S    
C9    H15   1.107000 S    
C41   C42   1.398157 A    
C6    C7    1.544460 S    
C29   H35   1.078380 S    
C31   H36   1.074479 S    
N8    H48   1.043742 S    
C32   C33   1.409877 A    
C34   C38   1.439173 A    
C44   C49   1.446369 A    
C4    H7    1.112590 S    
P7    O21   1.565593 D    
N14   H58   1.044662 S    
C30   N11   1.436786 S    
N2    O27   1.301673 A    
N15   H59   1.046096 S    
C3    H21   1.108961 S    
C17   H29   1.077788 S    
C51   C55   1.414450 A    
C21   C22   1.397803 A    
P4    O15   1.746264 S    
C23   H32   1.077289 S    
C33   C35   1.433320 A    
C30   C31   1.384725 A    
C11   C12   1.520082 S    
C35   C36   1.440056 A    
C14   H25   1.110334 S    
N6    O33   1.300297 A    
O4    P6    1.543212 D    
C20   C26   1.382192 A    
C3    N15   1.462266 S    
C48   C49   1.425526 A    
N3    H45   1.039774 S    
C43   C51   1.418444 A    
C48   C56   1.405775 A    
C36   C39   1.408596 A    
P2    O20   1.576155 S    
N16   O39   1.299044 A    
C45   N13   1.429358 S    
C50   C51   1.415411 A    
N7    O35   1.300807 A    
