data_mof_unit_12358.cif
_audit_creation_date              2012-12-10T17:50:32-0500
_audit_creation_method            fapswitch 2.2
_symmetry_space_group_name_H-M    P1
_symmetry_Int_Tables_number       1
_space_group_crystal_system       triclinic
_cell_length_a                    15.697306
_cell_length_b                    10.594829
_cell_length_c                    9.958233
_cell_angle_alpha                 91.163898
_cell_angle_beta                  90.09572
_cell_angle_gamma                 93.21895
_cell_volume                      1653.19572795

loop_
_atom_site_label
_atom_site_type_symbol
_atom_type_description
_atom_site_fract_x
_atom_site_fract_y
_atom_site_fract_z
_atom_type_partial_charge
C1    C     C_R   0.516792 0.264943 0.499008 0.898842
C2    C     C_3   0.083032 0.504224 0.500973 0.127590
C3    C     C_3   0.975721 0.606824 0.562008 0.442357
C4    C     C_3   0.917304 0.501226 0.500327 0.108438
C5    C     C_3   0.031692 0.605330 0.435217 -0.203752
C6    C     C_3   0.971936 0.498263 0.372939 -0.216070
C7    C     C_1   0.173955 0.504738 0.500936 -0.030537
C8    C     C_1   0.826299 0.500260 0.500221 0.001603
C9    C     C_R   0.598568 0.142813 0.730653 -0.142936
C10   C     C_R   0.602523 0.085264 0.854597 -0.116036
C11   C     C_R   0.562147 0.966616 0.871418 -0.166807
C12   C     C_R   0.338202 0.501669 0.500007 0.965672
C13   C     C_R   0.524539 0.901238 0.761509 -0.172420
C14   C     C_R   0.532164 0.949857 0.629924 0.117547
C15   C     C_R   0.559456 0.077597 0.619698 0.079168
C16   C     C_R   0.546178 0.137307 0.497781 -0.190022
C17   C     C_R   0.546401 0.066716 0.377658 0.209143
C18   C     C_R   0.527696 0.938054 0.383426 -0.284705
C19   C     C_R   0.514993 0.879179 0.507671 -0.148299
C20   C     C_R   0.420062 0.291925 0.133604 0.307313
C21   C     C_R   0.414904 0.175584 0.065202 -0.347484
C22   C     C_R   0.417724 0.173190 0.927158 -0.236882
C23   C     C_R   0.501310 0.742088 0.502357 0.877608
C24   C     C_R   0.423707 0.286849 0.859718 0.444300
C25   C     C_R   0.460576 0.397950 0.925767 0.030610
C26   C     C_R   0.460245 0.398798 0.070138 0.080208
C27   C     C_R   0.539110 0.595086 0.073472 -0.106695
C28   C     C_R   0.539607 0.594527 0.930924 -0.125022
C29   C     C_R   0.661928 0.500665 0.500121 0.860540
C30   C     C_3   0.968936 0.400336 0.565932 -0.206386
C31   C     C_3   0.025217 0.397266 0.438476 -0.131522
C32   C     C_1   0.249301 0.503903 0.500517 -0.150158
C33   C     C_1   0.750911 0.500216 0.500237 -0.154377
C34   C     C_3   0.028681 0.507195 0.628631 -0.184456
H1    H     H_    0.047964 0.311240 0.387658 0.153251
H2    H     H_    0.558791 0.925636 0.970081 0.123936
H3    H     H_    0.487228 0.816596 0.784866 0.171081
H4    H     H_    0.523887 0.884357 0.289638 0.162027
H5    H     H_    0.571609 0.672801 0.128314 0.140912
H6    H     H_    0.390542 0.091244 0.115332 0.170624
H7    H     H_    0.395469 0.086716 0.875020 0.202960
H8    H     H_    0.573917 0.670436 0.879767 0.148100
H9    H     H_    0.941222 0.316524 0.618914 0.167896
H10   H     H_    0.946674 0.494197 0.268649 0.163858
H11   H     H_    0.059277 0.689498 0.382700 0.165500
H12   H     H_    0.053834 0.511804 0.732989 0.168943
H13   H     H_    0.627345 0.237510 0.721045 0.146221
H14   H     H_    0.632705 0.135509 0.939008 0.138352
N1    N     N_R   0.499210 0.498800 0.142780 -0.104265
N2    N     N_R   0.499180 0.498720 0.857170 -0.107218
O1    O     O_R   0.500000 0.316780 0.614690 -0.598058
O2    O     O_R   0.499990 0.316750 0.385360 -0.592275
O3    O     O_R   0.376780 0.500000 0.614650 -0.548677
O4    O     O_R   0.376770 0.499980 0.385310 -0.597278
O5    O     O_R   0.500010 0.683250 0.614640 -0.638503
O6    O     O_R   0.500000 0.683220 0.385310 -0.623134
O7    O     O_R   0.623230 0.500020 0.614690 -0.620231
O8    O     O_R   0.623220 0.500000 0.385350 -0.618322
Zn1   Zn    Zn3+2 0.500010 0.500020 0.653130 0.980336
Zn2   Zn    Zn3+2 0.499990 0.499980 0.346870 0.965999
N3    N     N_2   0.359892 0.305886 0.237852 -0.237883
H15   H     H_    0.354149 0.229106 0.300090 0.228843
C35   C     C_3   0.277141 0.339892 0.189722 -0.737938
H16   H     H_    0.232156 0.345475 0.275051 0.229346
H17   H     H_    0.250242 0.267290 0.116844 0.242123
H18   H     H_    0.282672 0.433404 0.140964 0.251232
Cl1   Cl    Cl    0.340469 0.287321 0.742490 -0.614905
Cl2   Cl    Cl    0.940838 0.745665 0.643853 -0.613775
N4    N     N_2   0.565795 0.123852 0.252123 -0.289440
H19   H     H_    0.551872 0.066473 0.169295 0.214193
C36   C     C_3   0.650175 0.185864 0.243599 -0.725278
H20   H     H_    0.655098 0.241276 0.150330 0.226313
H21   H     H_    0.699251 0.114246 0.241782 0.229585
H22   H     H_    0.663029 0.252349 0.329701 0.239177

loop_
_geom_bond_atom_site_label_1
_geom_bond_atom_site_label_2
_ccdc_geom_bond_type
C35   H17   S    
C17   N4    S    
O5    Zn1   S    
C3    Cl2   S    
C4    C8    S    
O3    Zn1   S    
C23   O6    A    
O4    Zn2   S    
N1    Zn2   S    
N2    Zn1   S    
C11   H2    S    
C5    C6    S    
O7    Zn1   S    
C22   H7    S    
O8    Zn2   S    
C15   C16   A    
C29   C33   S    
N3    C35   S    
C18   C19   A    
C20   N3    S    
N4    C36   S    
C25   N2    A    
O2    Zn2   S    
C24   Cl1   S    
C28   N2    A    
C2    C7    S    
C27   H5    S    
C16   C17   A    
C34   H12   S    
C9    C10   A    
C13   H3    S    
C12   O3    A    
C2    C34   S    
C6    C31   S    
C35   H18   S    
C6    H10   S    
C13   C14   A    
C12   C32   S    
N4    H19   S    
C30   C34   S    
C24   C25   A    
C4    C6    S    
C26   N1    A    
C36   H21   S    
C3    C34   S    
C25   C26   A    
C5    H11   S    
O6    Zn2   S    
C2    C31   S    
C19   C23   S    
C17   C18   A    
C1    C16   S    
C29   O8    A    
C1    O1    A    
C29   O7    A    
C9    H13   S    
C10   H14   S    
C22   C24   A    
C30   H9    S    
C2    C5    S    
O1    Zn1   S    
C3    C4    S    
C7    C32   T    
C14   C19   A    
C3    C5    S    
C36   H22   S    
C23   O5    A    
C18   H4    S    
C36   H20   S    
C11   C13   A    
C30   C31   S    
C21   H6    S    
C20   C26   A    
C28   H8    S    
C31   H1    S    
C8    C33   T    
C9    C15   A    
N3    H15   S    
C1    O2    A    
C4    C30   S    
C10   C11   A    
C35   H16   S    
C20   C21   A    
C27   C28   A    
C14   C15   A    
C21   C22   A    
C12   O4    A    
C27   N1    A    
