data_mof_unit_27898.cif
_audit_creation_date              2012-12-10T16:47:57-0500
_audit_creation_method            fapswitch 2.2
_symmetry_space_group_name_H-M    P1
_symmetry_Int_Tables_number       1
_space_group_crystal_system       triclinic
_cell_length_a                    7.783305
_cell_length_b                    8.597605
_cell_length_c                    10.654234
_cell_angle_alpha                 91.081805
_cell_angle_beta                  85.931821
_cell_angle_gamma                 93.403384
_cell_volume                      709.830002672

loop_
_atom_site_label
_atom_site_type_symbol
_atom_type_description
_atom_site_fract_x
_atom_site_fract_y
_atom_site_fract_z
_atom_type_partial_charge
C1    C     C_R   0.545959 0.794300 0.503631 0.830457
C2    C     C_2   0.571018 0.957350 0.522360 0.262197
C3    C     C_3   0.264333 0.255565 0.114119 -0.311627
C4    C     C_2   0.434117 0.042084 0.508725 -0.433174
C5    C     C_R   0.503612 0.506064 0.737299 0.752660
C6    C     C_R   0.455177 0.205594 0.506886 0.963917
C7    C     C_R   0.495305 0.485962 0.263175 0.792238
C8    C     C_2   0.625923 0.432291 0.058558 -0.272357
C9    C     C_2   0.481611 0.440511 0.134037 0.459291
C10   C     C_2   0.615989 0.427114 0.924325 -0.165711
C11   C     C_2   0.515192 0.522762 0.869826 0.390429
H1    H     H_    0.753612 0.440031 0.094133 0.159817
H2    H     H_    0.064197 0.696323 0.656771 0.339914
H3    H     H_    0.693388 0.345092 0.869803 0.140471
H4    H     H_    0.307308 0.991209 0.489135 0.152000
H5    H     H_    0.013305 0.382204 0.405986 0.152597
H6    H     H_    0.251549 0.232829 0.216982 0.145342
H7    H     H_    0.353364 0.173845 0.065024 0.165031
H8    H     H_    0.135207 0.232052 0.077611 0.201768
H9    H     H_    0.372363 0.701621 0.878203 0.326146
H10   H     H_    0.806863 0.940700 0.573155 0.357294
N1    N     N_2   0.950320 0.457950 0.466680 -0.051160
N2    N     N_2   0.049680 0.542050 0.533320 0.104296
O1    O     O_R   0.389250 0.738570 0.508180 -0.644770
O2    O     O_3   0.432942 0.639841 0.937200 -0.724173
O3    O     O_3   0.727747 0.023465 0.558262 -0.737160
O4    O     O_3   0.969962 0.641005 0.612996 -0.638773
O5    O     O_R   0.678390 0.711630 0.486820 -0.566885
O6    O     O_R   0.355470 0.513470 0.691600 -0.619927
O7    O     O_R   0.644610 0.486520 0.670240 -0.572515
O8    O     O_R   0.321610 0.288370 0.513180 -0.650481
O9    O     O_R   0.610750 0.261430 0.491820 -0.542217
O10   O     O_R   0.355390 0.513480 0.329760 -0.597900
O11   O     O_R   0.644530 0.486530 0.308400 -0.655515
O12   O     O_3   0.319145 0.411914 0.089467 -0.548380
Zn1   Zn    Zn3+2 0.306940 0.517990 0.514260 0.991163
Zn2   Zn    Zn3+2 0.693060 0.482010 0.485740 1.045696

loop_
_geom_bond_atom_site_label_1
_geom_bond_atom_site_label_2
_ccdc_geom_bond_type
C1    O5    A    
C2    C4    D    
H10   O3    S    
C3    H8    S    
N2    O4    S    
O11   Zn2   S    
C6    O9    A    
C3    O12   S    
C8    H1    S    
C4    H4    S    
C6    O8    A    
C2    O3    S    
O9    Zn2   S    
C7    O10   A    
O6    Zn1   S    
O1    Zn1   S    
O5    Zn2   S    
C3    H7    S    
C1    C2    S    
C8    C10   S    
C3    H6    S    
C5    O6    A    
C5    C11   S    
C10   H3    S    
C7    O11   A    
C9    O12   S    
H9    O2    S    
C11   O2    S    
O10   Zn1   S    
O7    Zn2   S    
C1    O1    A    
C4    C6    S    
N2    Zn1   S    
C10   C11   D    
C7    C9    S    
N1    N2    D    
H2    O4    S    
H5    N1    S    
O8    Zn1   S    
N1    Zn2   S    
C5    O7    A    
C8    C9    D    
