data_mof_unit_27431.cif
_audit_creation_date              2013-03-05T16:44:40-0500
_audit_creation_method            fapswitch 2.2
_symmetry_space_group_name_H-M    P1
_symmetry_Int_Tables_number       1
_space_group_crystal_system       triclinic
_cell_length_a                    27.636448
_cell_length_b                    10.673783
_cell_length_c                    9.891493
_cell_angle_alpha                 89.583772
_cell_angle_beta                  89.605104
_cell_angle_gamma                 90.503792
_cell_volume                      2917.58612073

loop_
_atom_site_label
_atom_site_type_symbol
_atom_site_description
_atom_site_fract_x
_atom_site_fract_y
_atom_site_fract_z
_atom_type_partial_charge
O1    O     O_R   0.500010 0.316790 0.614690 -0.620953
O2    O     O_R   0.500000 0.316760 0.385350 -0.600655
C1    C     C_R   0.501832 0.259997 0.500324 0.908203
O3    O     O_R   0.428760 0.500040 0.614660 -0.570949
O4    O     O_R   0.428750 0.500000 0.385310 -0.633457
C2    C     C_R   0.406132 0.499133 0.500078 0.945265
Zn1   Zn    Zn3+2 0.500000 0.500020 0.653130 1.004042
Zn2   Zn    Zn3+2 0.500000 0.499980 0.346870 1.017261
O5    O     O_R   0.500000 0.683240 0.614650 -0.639365
O6    O     O_R   0.499990 0.683210 0.385310 -0.589516
O7    O     O_R   0.571250 0.500000 0.614690 -0.617741
O8    O     O_R   0.571240 0.499960 0.385340 -0.600682
C3    C     C_R   0.501623 0.739955 0.499585 0.899460
C4    C     C_R   0.593908 0.503871 0.499434 0.947175
C5    C     C_R   0.176766 0.423499 0.428318 0.636531
O9    O     O_2   0.201020 0.321068 0.387438 -0.478972
N1    N     N_R   0.201509 0.524570 0.476588 -0.344413
C6    C     C_R   0.178472 0.631112 0.515931 0.600744
C7    C     C_R   0.281529 0.591861 0.401610 -0.098802
C8    C     C_R   0.331417 0.584313 0.406370 -0.259797
C9    C     C_R   0.325476 0.426376 0.585242 0.340293
C10   C     C_R   0.274423 0.434739 0.581102 0.254673
C11   C     C_R   0.252963 0.518115 0.488245 0.135679
C12   C     C_R   0.101635 0.536053 0.454507 -0.089193
C13   C     C_R   0.126372 0.425365 0.422196 -0.063887
C14   C     C_R   0.100455 0.316174 0.393665 -0.178562
C15   C     C_R   0.127858 0.641219 0.502358 -0.134232
C16   C     C_R   0.353480 0.503088 0.498281 -0.126855
H1    H     H_    0.119351 0.228463 0.380854 0.217923
C17   C     C_R   0.646611 0.516103 0.497642 -0.191601
C18   C     C_R   0.974046 0.438412 0.380436 -0.054723
C19   C     C_R   0.974440 0.654872 0.464568 -0.004121
C20   C     C_R   0.949060 0.543693 0.429574 0.015147
C21   C     C_R   0.947279 0.346101 0.308945 0.267397
C22   C     C_R   0.896870 0.336466 0.328756 0.232928
C23   C     C_R   0.872339 0.430275 0.401911 -0.173869
C24   C     C_R   0.898199 0.538343 0.441979 -0.084781
C25   C     C_R   0.873257 0.641423 0.495090 -0.069683
C26   C     C_R   0.823516 0.631695 0.518219 0.641374
N2    N     N_R   0.799156 0.524928 0.484119 -0.339963
C27   C     C_R   0.822108 0.424872 0.427987 0.616971
C28   C     C_R   0.723526 0.451057 0.588154 -0.140042
C29   C     C_R   0.673309 0.447982 0.592478 -0.198219
C30   C     C_R   0.670597 0.592793 0.400312 0.175267
C31   C     C_R   0.721610 0.597209 0.398166 0.434877
C32   C     C_R   0.747510 0.524134 0.490666 0.194284
O10   O     O_2   0.796071 0.321637 0.397094 -0.464453
C33   C     C_R   0.024799 0.431381 0.399732 0.052905
C34   C     C_R   0.050607 0.540057 0.441622 0.028865
C35   C     C_R   0.025580 0.650567 0.477012 0.041511
C36   C     C_R   0.049913 0.315991 0.392632 0.475648
H2    H     H_    0.655221 0.389454 0.667551 0.200985
H3    H     H_    0.743934 0.396067 0.659977 0.195853
O11   O     O_2   0.204665 0.724774 0.570760 -0.455679
C37   C     C_R   0.102246 0.748617 0.543146 0.329280
H4    H     H_    0.352963 0.642814 0.338680 0.198999
H5    H     H_    0.264817 0.654566 0.329495 0.192129
C38   C     C_R   0.947033 0.765720 0.485680 0.254150
C39   C     C_R   0.897584 0.755253 0.512829 -0.126922
O12   O     O_2   0.799353 0.728631 0.572828 -0.496432
C40   C     C_R   0.051987 0.748777 0.537080 -0.185961
H6    H     H_    0.877429 0.838931 0.536768 0.239210
H7    H     H_    0.034241 0.827224 0.583278 0.205539
C41   C     C_R   0.510964 0.062720 0.622622 0.096289
C42   C     C_R   0.510324 0.128741 0.500786 -0.115095
C43   C     C_R   0.519279 0.066035 0.379006 -0.160217
H8    H     H_    0.523061 0.115858 0.283755 0.203045
C44   C     C_R   0.518816 0.936447 0.378294 -0.083196
H9    H     H_    0.522055 0.888432 0.282569 0.220362
C45   C     C_R   0.509862 0.871349 0.499632 -0.153527
C46   C     C_R   0.510888 0.934654 0.622063 0.092470
C47   C     C_3   0.476809 0.926485 0.740319 0.142917
C48   C     C_3   0.477408 0.068492 0.741523 -0.524407
H10   H     H_    0.440897 0.884671 0.715840 0.126727
H11   H     H_    0.441792 0.109585 0.715463 0.207554
H12   H     H_    0.495542 0.109347 0.831164 0.231036
C49   C     C_R   0.458815 0.471182 0.072243 0.108124
N3    N     N_R   0.499670 0.499140 0.142800 -0.177403
C50   C     C_R   0.538762 0.542442 0.071697 -0.061160
H13   H     H_    0.569880 0.576536 0.125653 0.232140
C51   C     C_R   0.538511 0.546400 0.928487 0.509701
N4    N     N_R   0.499670 0.499180 0.857150 -0.167802
C52   C     C_R   0.458722 0.472260 0.929887 0.044833
C53   C     C_3   0.428893 0.356149 0.921852 -0.441078
C54   C     C_3   0.430343 0.350842 0.075530 0.759928
H14   H     H_    0.392387 0.376415 0.882527 0.254954
H15   H     H_    0.448097 0.279608 0.870576 0.177516
O13   O     O_3   0.349056 0.343010 0.668802 -0.763885
H16   H     H_    0.326392 0.310075 0.738406 0.377183
N5    N     N_R   0.126151 0.859584 0.590380 0.253265
O14   O     O_R   0.113788 0.906926 0.706295 -0.297472
O15   O     O_R   0.151566 0.927608 0.505872 -0.285078
N6    N     N_R   0.966566 0.888831 0.458813 0.210205
O16   O     O_R   0.950547 0.985254 0.524741 -0.301805
O17   O     O_R   0.994998 0.907339 0.354989 -0.311532
N7    N     N_R   0.643614 0.666138 0.305240 0.195367
O18   O     O_R   0.611432 0.745063 0.347882 -0.395126
O19   O     O_R   0.653600 0.660926 0.176638 -0.340790
O20   O     O_3   0.747603 0.671723 0.308246 -0.693616
H17   H     H_    0.727292 0.742501 0.278611 0.394050
N8    N     N_R   0.244324 0.357954 0.667546 0.205412
O21   O     O_R   0.247229 0.236453 0.662546 -0.282160
O22   O     O_R   0.210258 0.408489 0.739767 -0.335652
N9    N     N_R   0.499063 0.871398 0.860438 0.237069
O23   O     O_R   0.543158 0.900571 0.894491 -0.347030
O24   O     O_R   0.473842 0.795691 0.937303 -0.395398
O25   O     O_3   0.577254 0.602627 0.864608 -0.686431
H18   H     H_    0.564138 0.649136 0.786557 0.387377
O26   O     O_3   0.384225 0.364119 0.133682 -0.709045
H19   H     H_    0.387200 0.342663 0.230925 0.375653
O27   O     O_3   0.455505 0.246835 0.127460 -0.746282
H20   H     H_    0.487907 0.244490 0.083478 0.304149
N10   N     N_R   0.870523 0.238529 0.262909 0.277429
O28   O     O_R   0.848077 0.261340 0.150333 -0.285540
O29   O     O_R   0.868984 0.126494 0.315538 -0.243810
N11   N     N_R   0.969710 0.277841 0.200121 0.251495
O30   O     O_R   0.958564 0.161166 0.177657 -0.216190
O31   O     O_R   0.001038 0.333723 0.120896 -0.338424
O32   O     O_3   0.024732 0.203529 0.398481 -0.667328
H21   H     H_    0.047746 0.132785 0.396320 0.384137

loop_
_geom_bond_atom_site_label_1
_geom_bond_atom_site_label_2
_geom_bond_distance
_ccdc_geom_bond_type
C43   C44   1.383212 A    
C51   O25   1.371044 S    
N6    O16   1.301636 A    
C7    C8    1.382881 A    
C53   H15   1.102877 S    
C19   C38   1.426325 A    
C8    H4    1.083838 S    
N9    O24   1.300304 A    
C51   N4    1.382134 A    
C49   N3    1.363419 A    
C7    H5    1.083113 S    
Zn1   O7    2.002899 S    
N8    O21   1.301336 A    
C10   N8    1.436257 S    
C23   C24   1.412258 A    
C38   N6    1.438492 S    
C53   H14   1.106334 S    
C37   N5    1.433937 S    
C54   O26   1.403431 S    
C28   H3    1.082878 S    
O4    C2    1.292102 A    
O7    C4    1.297128 A    
C15   C37   1.412433 A    
C29   H2    1.083611 S    
C5    C13   1.394741 A    
C3    C45   1.418852 S    
C49   C52   1.408094 A    
C21   N11   1.443600 S    
C5    O9    1.350457 S    
N11   O30   1.301314 A    
C5    N1    1.363236 A    
C21   C22   1.408261 A    
C28   C32   1.395997 A    
C41   C46   1.366990 A    
C40   H7    1.077108 S    
O5    C3    1.285579 A    
C33   C36   1.421004 A    
C2    C16   1.456325 S    
O20   H17   0.989059 S    
C44   H9    1.083480 S    
N7    O19   1.301488 A    
C36   O32   1.382884 S    
C41   C48   1.494686 S    
C12   C15   1.416838 A    
C45   C46   1.391396 A    
C43   H8    1.082504 S    
C9    O13   1.380790 S    
C49   C54   1.500473 S    
N6    O17   1.301672 A    
C9    C10   1.415372 A    
Zn2   N3    2.018725 S    
C48   H11   1.112246 S    
C17   C30   1.416533 A    
C23   C27   1.410799 A    
C1    C42   1.422534 S    
C4    C17   1.461202 S    
O3    Zn1   2.007832 S    
N9    O23   1.302282 A    
C12   C13   1.407850 A    
C47   H10   1.113519 S    
C31   O20   1.382243 S    
C26   N2    1.364163 A    
C50   C51   1.416953 A    
N3    C50   1.360685 A    
C47   N9    1.463559 S    
C38   C39   1.394255 A    
C31   C32   1.402262 A    
C20   C24   1.410740 A    
C50   H13   1.077260 S    
O1    C1    1.288198 A    
C22   C23   1.414758 A    
C7    C11   1.395416 A    
C24   C25   1.406570 A    
C30   N7    1.436166 S    
N5    O15   1.301300 A    
C52   C53   1.485351 S    
Zn2   O8    2.007832 S    
N7    O18   1.300674 A    
C18   C20   1.411670 A    
N1    C6    1.365920 A    
C27   O10   1.348833 S    
C18   C21   1.422190 A    
N1    C11   1.429688 S    
C53   C54   1.521573 S    
C19   C35   1.420622 A    
O3    C2    1.298292 A    
N2    C27   1.366344 A    
C9    C16   1.406684 A    
O8    C4    1.295302 A    
C34   C35   1.417511 A    
C18   C33   1.419418 A    
C48   H12   1.111502 S    
C17   C29   1.400759 A    
C28   C29   1.388287 A    
N2    C32   1.428280 S    
O25   H18   0.987590 S    
C30   C31   1.410197 A    
N10   O28   1.300884 A    
N8    O22   1.301106 A    
C12   C34   1.417846 A    
Zn1   O5    1.989629 S    
C33   C34   1.422145 A    
C39   H6    1.083551 S    
O27   H20   0.993450 S    
O1    Zn1   1.995088 S    
Zn2   O6    1.995087 S    
O2    Zn2   1.989630 S    
C6    C15   1.411138 A    
C47   C48   1.515831 S    
C54   O27   1.410696 S    
O6    C3    1.287152 A    
O4    Zn2   2.002902 S    
O32   H21   0.991809 S    
C8    C16   1.398372 A    
C41   C42   1.391922 A    
O2    C1    1.286208 A    
C13   C14   1.394237 A    
C46   C47   1.498250 S    
O26   H19   0.991285 S    
C19   C20   1.419411 A    
N5    O14   1.301071 A    
C25   C26   1.394853 A    
C26   O12   1.350391 S    
C37   C40   1.390710 A    
N11   O31   1.301644 A    
C22   N10   1.431859 S    
C42   C43   1.403844 A    
C6    O11   1.348389 S    
C25   C39   1.396206 A    
Zn1   N4    2.017975 S    
O13   H16   0.988223 S    
C14   H1    1.083820 S    
C44   C45   1.401899 A    
N4    C52   1.364157 A    
C35   C40   1.409281 A    
C10   C11   1.411491 A    
C14   C36   1.396899 A    
N10   O29   1.300995 A    
