data_mof_unit_22498.cif
_audit_creation_date              2012-12-11T16:12:55-0500
_audit_creation_method            fapswitch 2.2
_symmetry_space_group_name_H-M    P1
_symmetry_Int_Tables_number       1
_space_group_crystal_system       triclinic
_cell_length_a                    7.28444
_cell_length_b                    20.709929
_cell_length_c                    23.880029
_cell_angle_alpha                 90.0
_cell_angle_beta                  90.000013
_cell_angle_gamma                 90.00002
_cell_volume                      3602.54679164

loop_
_atom_site_label
_atom_site_type_symbol
_atom_type_description
_atom_site_fract_x
_atom_site_fract_y
_atom_site_fract_z
_atom_type_partial_charge
O1    O     O_R   0.615270 0.806540 0.192260 -0.531361
O2    O     O_R   0.384730 0.193460 0.807740 -0.534025
O3    O     O_R   0.384730 0.193460 0.692260 -0.531361
O4    O     O_R   0.615270 0.806540 0.307740 -0.534026
O5    O     O_R   0.115270 0.693460 0.307740 -0.531361
O6    O     O_R   0.884730 0.306540 0.692260 -0.534025
O7    O     O_R   0.884730 0.306540 0.807740 -0.531361
O8    O     O_R   0.115270 0.693460 0.192260 -0.534025
O9    O     O_R   0.285500 0.813970 0.307340 -0.532983
O10   O     O_R   0.714500 0.186030 0.692660 -0.537496
O11   O     O_R   0.714500 0.186030 0.807340 -0.532983
O12   O     O_R   0.285500 0.813970 0.192660 -0.537497
O13   O     O_R   0.785500 0.686030 0.192660 -0.532983
O14   O     O_R   0.214500 0.313970 0.807340 -0.537496
O15   O     O_R   0.214500 0.313970 0.692660 -0.532983
O16   O     O_R   0.785500 0.686030 0.307340 -0.537497
C1    C     C_R   0.452905 0.828757 0.325993 0.722149
C2    C     C_R   0.547502 0.171419 0.673786 0.732262
C3    C     C_R   0.547095 0.171243 0.825993 0.722149
C4    C     C_R   0.452498 0.828581 0.173786 0.732262
C5    C     C_R   0.952905 0.671243 0.174007 0.722149
C6    C     C_R   0.047502 0.328580 0.826214 0.732262
C7    C     C_R   0.047095 0.328757 0.674007 0.722149
C8    C     C_R   0.952498 0.671419 0.326213 0.732262
O17   O     O_3   0.448760 0.710460 0.250000 -0.376630
O18   O     O_3   0.551240 0.289540 0.750000 -0.376629
O19   O     O_3   0.948760 0.789540 0.250000 -0.376630
O20   O     O_3   0.051240 0.210460 0.750000 -0.376630
V1    V     V_3+5 0.173900 0.757330 0.250000 1.359686
V2    V     V_3+5 0.826100 0.242670 0.750000 1.359686
V3    V     V_3+5 0.673900 0.742670 0.250000 1.359686
V4    V     V_3+5 0.326100 0.257330 0.750000 1.359686
C9    C     C_3   0.099191 0.533587 0.543394 0.048337
C10   C     C_3   0.908738 0.472477 0.462264 0.049039
C11   C     C_3   0.900809 0.466413 0.043394 0.048337
C12   C     C_3   0.091262 0.527523 0.962264 0.049039
C13   C     C_3   0.599191 0.966413 0.956606 0.048337
C14   C     C_3   0.408738 0.027523 0.037736 0.049040
C15   C     C_3   0.400809 0.033587 0.456606 0.048339
C16   C     C_3   0.591261 0.972477 0.537736 0.049040
C17   C     C_3   0.910194 0.555666 0.520629 0.125455
C18   C     C_3   0.097970 0.451005 0.484985 0.117765
C19   C     C_3   0.089806 0.444333 0.020629 0.125455
C20   C     C_3   0.902030 0.548995 0.984985 0.117766
C21   C     C_3   0.410194 0.944334 0.979371 0.125455
C22   C     C_3   0.597970 0.048995 0.015015 0.117765
C23   C     C_3   0.589806 0.055666 0.479371 0.125454
C24   C     C_3   0.402029 0.951005 0.515015 0.117765
C25   C     C_1   0.953605 0.625830 0.372375 -0.219851
C26   C     C_1   0.044104 0.375637 0.629015 -0.197986
C27   C     C_1   0.046395 0.374170 0.872375 -0.219851
C28   C     C_1   0.955896 0.624363 0.129015 -0.197986
C29   C     C_1   0.453605 0.874170 0.127625 -0.219851
C30   C     C_1   0.544104 0.124362 0.870985 -0.197986
C31   C     C_1   0.546394 0.125830 0.627625 -0.219851
C32   C     C_1   0.455896 0.875637 0.370985 -0.197986
C33   C     C_3   0.169281 0.521731 0.482653 0.060600
C34   C     C_3   0.839111 0.484762 0.522771 0.051781
C35   C     C_3   0.830719 0.478269 0.982653 0.060600
C36   C     C_3   0.160889 0.515238 0.022771 0.051781
C37   C     C_3   0.669281 0.978269 0.017347 0.060600
C38   C     C_3   0.339112 0.015238 0.977229 0.051781
C39   C     C_3   0.330718 0.021731 0.517347 0.060600
C40   C     C_3   0.660888 0.984762 0.477230 0.051781
C41   C     C_3   0.979134 0.543173 0.459737 0.016918
C42   C     C_3   0.028567 0.462981 0.545154 -0.004160
C43   C     C_3   0.020866 0.456827 0.959737 0.016919
C44   C     C_3   0.971433 0.537018 0.045154 -0.004160
C45   C     C_3   0.479134 0.956827 0.040263 0.016919
C46   C     C_3   0.528567 0.037019 0.954846 -0.004160
C47   C     C_3   0.520865 0.043173 0.540263 0.016919
C48   C     C_3   0.471433 0.962981 0.454846 -0.004160
C49   C     C_1   0.955955 0.588105 0.411527 -0.076382
C50   C     C_1   0.043365 0.415063 0.591394 -0.067044
C51   C     C_1   0.044045 0.411895 0.911527 -0.076382
C52   C     C_1   0.956635 0.584937 0.091394 -0.067044
C53   C     C_1   0.455956 0.911895 0.088473 -0.076382
C54   C     C_1   0.543365 0.084937 0.908606 -0.067044
C55   C     C_1   0.544044 0.088105 0.588473 -0.076383
C56   C     C_1   0.456635 0.915063 0.408606 -0.067043
C57   C     C_3   0.812619 0.620348 0.532716 -0.332033
C58   C     C_3   0.800460 0.640747 0.594134 -0.795005
H1    H     H_    0.781550 0.599525 0.622703 0.221225
H2    H     H_    0.924397 0.667519 0.606965 0.232710
H3    H     H_    0.684394 0.674754 0.599537 0.226342
H4    H     H_    0.883798 0.659510 0.509490 0.172378
H5    H     H_    0.673293 0.617645 0.515746 0.165620
C59   C     C_3   0.205002 0.388682 0.472345 -0.343327
C60   C     C_3   0.238048 0.376575 0.410113 -0.789887
H6    H     H_    0.109766 0.363245 0.388472 0.234984
H7    H     H_    0.299135 0.419184 0.389175 0.229159
H8    H     H_    0.331608 0.334745 0.405527 0.228098
H9    H     H_    0.338270 0.390857 0.494461 0.162860
H10   H     H_    0.129794 0.346735 0.489963 0.174937
C61   C     C_3   0.187381 0.379651 0.032716 -0.332033
C62   C     C_3   0.199540 0.359253 0.094134 -0.795006
H11   H     H_    0.218450 0.400475 0.122703 0.221226
H12   H     H_    0.075604 0.332481 0.106965 0.232710
H13   H     H_    0.315607 0.325246 0.099537 0.226342
H14   H     H_    0.116202 0.340490 0.009490 0.172378
H15   H     H_    0.326707 0.382355 0.015746 0.165620
C63   C     C_3   0.794998 0.611318 0.972345 -0.343328
C64   C     C_3   0.761952 0.623425 0.910113 -0.789886
H16   H     H_    0.890234 0.636755 0.888472 0.234983
H17   H     H_    0.700865 0.580816 0.889175 0.229159
H18   H     H_    0.668392 0.665255 0.905527 0.228098
H19   H     H_    0.661730 0.609143 0.994461 0.162860
H20   H     H_    0.870206 0.653265 0.989962 0.174937
C65   C     C_3   0.312619 0.879651 0.967284 -0.332033
C66   C     C_3   0.300460 0.859253 0.905866 -0.795006
H21   H     H_    0.281549 0.900475 0.877297 0.221226
H22   H     H_    0.424397 0.832481 0.893035 0.232710
H23   H     H_    0.184394 0.825246 0.900463 0.226342
H24   H     H_    0.383798 0.840490 0.990510 0.172378
H25   H     H_    0.173293 0.882355 0.984254 0.165620
C67   C     C_3   0.705003 0.111318 0.027655 -0.343328
C68   C     C_3   0.738049 0.123425 0.089887 -0.789886
H26   H     H_    0.609766 0.136755 0.111528 0.234983
H27   H     H_    0.799136 0.080816 0.110825 0.229159
H28   H     H_    0.831608 0.165255 0.094473 0.228098
H29   H     H_    0.838270 0.109143 0.005539 0.162860
H30   H     H_    0.629794 0.153265 0.010038 0.174937
C69   C     C_3   0.687380 0.120348 0.467285 -0.332035
C70   C     C_3   0.699540 0.140747 0.405867 -0.795007
H31   H     H_    0.718456 0.099525 0.377297 0.221226
H32   H     H_    0.575601 0.167517 0.393035 0.232711
H33   H     H_    0.815604 0.174755 0.400464 0.226342
H34   H     H_    0.616201 0.159509 0.490510 0.172379
H35   H     H_    0.826707 0.117645 0.484254 0.165621
C71   C     C_3   0.294997 0.888682 0.527655 -0.343328
C72   C     C_3   0.261951 0.876575 0.589887 -0.789887
H36   H     H_    0.390233 0.863245 0.611528 0.234984
H37   H     H_    0.200864 0.919183 0.610825 0.229159
H38   H     H_    0.168391 0.834745 0.594473 0.228098
H39   H     H_    0.161730 0.890856 0.505539 0.162860
H40   H     H_    0.370206 0.846735 0.510038 0.174937
C73   C     C_3   0.189689 0.562109 0.595686 -0.334844
C74   C     C_3   0.277952 0.628423 0.585937 -0.305457
C75   C     C_3   0.315860 0.662964 0.641270 -0.798883
H41   H     H_    0.187217 0.669828 0.665451 0.228654
H42   H     H_    0.414042 0.634445 0.666883 0.232954
H43   H     H_    0.376365 0.711212 0.632805 0.220605
H44   H     H_    0.409832 0.622350 0.564209 0.193465
H45   H     H_    0.190303 0.659299 0.559015 0.203813
H46   H     H_    0.084803 0.565102 0.629198 0.184176
H47   H     H_    0.291727 0.527606 0.611291 0.172717
C76   C     C_3   0.808291 0.442416 0.412268 -0.334175
C77   C     C_3   0.742603 0.373292 0.423603 -0.314166
C78   C     C_3   0.697169 0.338295 0.369041 -0.791563
H48   H     H_    0.594728 0.366121 0.344469 0.234525
H49   H     H_    0.822822 0.331912 0.343319 0.225219
H50   H     H_    0.639931 0.289855 0.378555 0.220577
H51   H     H_    0.847765 0.344985 0.446331 0.204048
H52   H     H_    0.618696 0.374817 0.450331 0.191922
H53   H     H_    0.689110 0.472672 0.401099 0.160326
H54   H     H_    0.902087 0.443725 0.375654 0.185539
C79   C     C_3   0.810311 0.437891 0.095686 -0.334845
C80   C     C_3   0.722048 0.371576 0.085937 -0.305456
C81   C     C_3   0.684140 0.337036 0.141270 -0.798883
H55   H     H_    0.812783 0.330172 0.165451 0.228655
H56   H     H_    0.585959 0.365555 0.166883 0.232954
H57   H     H_    0.623635 0.288788 0.132805 0.220605
H58   H     H_    0.590168 0.377650 0.064209 0.193465
H59   H     H_    0.809697 0.340700 0.059015 0.203812
H60   H     H_    0.915197 0.434898 0.129198 0.184176
H61   H     H_    0.708273 0.472394 0.111291 0.172717
C82   C     C_3   0.191709 0.557584 0.912268 -0.334176
C83   C     C_3   0.257397 0.626707 0.923603 -0.314165
C84   C     C_3   0.302830 0.661705 0.869041 -0.791563
H62   H     H_    0.405272 0.633879 0.844469 0.234526
H63   H     H_    0.177178 0.668088 0.843319 0.225219
H64   H     H_    0.360069 0.710145 0.878555 0.220577
H65   H     H_    0.152235 0.655015 0.946331 0.204048
H66   H     H_    0.381303 0.625183 0.950331 0.191922
H67   H     H_    0.310890 0.527327 0.901099 0.160326
H68   H     H_    0.097913 0.556275 0.875654 0.185539
C85   C     C_3   0.689689 0.937891 0.904314 -0.334844
C86   C     C_3   0.777952 0.871577 0.914063 -0.305456
C87   C     C_3   0.815860 0.837036 0.858730 -0.798883
H69   H     H_    0.687217 0.830172 0.834549 0.228654
H70   H     H_    0.914041 0.865555 0.833117 0.232954
H71   H     H_    0.876365 0.788789 0.867195 0.220605
H72   H     H_    0.909832 0.877650 0.935791 0.193465
H73   H     H_    0.690303 0.840700 0.940985 0.203812
H74   H     H_    0.584803 0.934898 0.870802 0.184176
H75   H     H_    0.791726 0.972394 0.888709 0.172717
C88   C     C_3   0.308291 0.057583 0.087732 -0.334175
C89   C     C_3   0.242603 0.126707 0.076397 -0.314166
C90   C     C_3   0.197170 0.161705 0.130959 -0.791562
H76   H     H_    0.094728 0.133879 0.155531 0.234525
H77   H     H_    0.322822 0.168088 0.156681 0.225218
H78   H     H_    0.139931 0.210145 0.121445 0.220577
H79   H     H_    0.347765 0.155015 0.053669 0.204048
H80   H     H_    0.118697 0.125183 0.049669 0.191922
H81   H     H_    0.189111 0.027327 0.098901 0.160326
H82   H     H_    0.402088 0.056275 0.124346 0.185539
C91   C     C_3   0.310312 0.062108 0.404314 -0.334845
C92   C     C_3   0.222046 0.128422 0.414062 -0.305459
C93   C     C_3   0.184137 0.162963 0.358729 -0.798883
H83   H     H_    0.312781 0.169827 0.334549 0.228654
H84   H     H_    0.085957 0.134444 0.333116 0.232954
H85   H     H_    0.123632 0.211210 0.367194 0.220605
H86   H     H_    0.090166 0.122348 0.435790 0.193467
H87   H     H_    0.309693 0.159299 0.440984 0.203812
H88   H     H_    0.415200 0.065103 0.370802 0.184176
H89   H     H_    0.208277 0.027605 0.388708 0.172718
C94   C     C_3   0.691708 0.942416 0.587732 -0.334175
C95   C     C_3   0.757396 0.873292 0.576397 -0.314167
C96   C     C_3   0.802830 0.838295 0.630960 -0.791563
H90   H     H_    0.905271 0.866121 0.655532 0.234525
H91   H     H_    0.677178 0.831912 0.656682 0.225219
H92   H     H_    0.860068 0.789855 0.621445 0.220577
H93   H     H_    0.652234 0.844985 0.553669 0.204048
H94   H     H_    0.881303 0.874817 0.549669 0.191922
H95   H     H_    0.810888 0.972673 0.598901 0.160326
H96   H     H_    0.597911 0.943725 0.624346 0.185539
C97   C     C_3   0.669847 0.454373 0.550462 -0.347672
C98   C     C_3   0.647174 0.475208 0.611807 -0.323636
C99   C     C_3   0.532430 0.426739 0.644677 -0.732033
H97   H     H_    0.402133 0.417162 0.622486 0.229323
H98   H     H_    0.608249 0.380558 0.649220 0.245617
H99   H     H_    0.501729 0.446158 0.686991 0.208662
H100  H     H_    0.780380 0.480950 0.633562 0.204276
H101  H     H_    0.580788 0.522928 0.612838 0.194294
H102  H     H_    0.544931 0.466359 0.527119 0.155129
H103  H     H_    0.685629 0.401048 0.548195 0.176776
C100  C     C_3   0.358283 0.541219 0.458821 -0.381327
C101  C     C_3   0.348082 0.593841 0.414048 -0.328314
C102  C     C_3   0.531413 0.616942 0.393148 -0.750644
H104  H     H_    0.610553 0.639714 0.427285 0.222082
H105  H     H_    0.606783 0.576224 0.373804 0.231028
H106  H     H_    0.506631 0.654162 0.360642 0.245212
H107  H     H_    0.278503 0.573385 0.376728 0.217255
H108  H     H_    0.275463 0.636644 0.431314 0.208739
H109  H     H_    0.444566 0.557953 0.493339 0.172272
H110  H     H_    0.424697 0.498269 0.440695 0.179374
C103  C     C_3   0.330153 0.545627 0.050462 -0.347672
C104  C     C_3   0.352826 0.524792 0.111807 -0.323636
C105  C     C_3   0.467570 0.573261 0.144677 -0.732034
H111  H     H_    0.597867 0.582838 0.122486 0.229323
H112  H     H_    0.391751 0.619441 0.149220 0.245617
H113  H     H_    0.498273 0.553842 0.186991 0.208662
H114  H     H_    0.219620 0.519050 0.133562 0.204276
H115  H     H_    0.419212 0.477072 0.112838 0.194294
H116  H     H_    0.455069 0.533641 0.027119 0.155129
H117  H     H_    0.314371 0.598952 0.048195 0.176776
C106  C     C_3   0.641717 0.458781 0.958821 -0.381327
C107  C     C_3   0.651918 0.406159 0.914048 -0.328314
C108  C     C_3   0.468587 0.383057 0.893148 -0.750645
H118  H     H_    0.389447 0.360285 0.927285 0.222082
H119  H     H_    0.393217 0.423775 0.873804 0.231028
H120  H     H_    0.493369 0.345838 0.860642 0.245212
H121  H     H_    0.721497 0.426615 0.876728 0.217255
H122  H     H_    0.724537 0.363355 0.931314 0.208739
H123  H     H_    0.555434 0.442047 0.993339 0.172272
H124  H     H_    0.575303 0.501730 0.940695 0.179374
C109  C     C_3   0.169847 0.045627 0.949539 -0.347673
C110  C     C_3   0.147173 0.024792 0.888194 -0.323636
C111  C     C_3   0.032429 0.073261 0.855324 -0.732035
H125  H     H_    0.902133 0.082839 0.877515 0.229324
H126  H     H_    0.108249 0.119441 0.850779 0.245617
H127  H     H_    0.001723 0.053841 0.813010 0.208661
H128  H     H_    0.280379 0.019050 0.866438 0.204276
H129  H     H_    0.080787 0.977072 0.887162 0.194294
H130  H     H_    0.044931 0.033641 0.972881 0.155129
H131  H     H_    0.185630 0.098952 0.951805 0.176776
C112  C     C_3   0.858283 0.958781 0.041178 -0.381327
C113  C     C_3   0.848082 0.906159 0.085952 -0.328315
C114  C     C_3   0.031413 0.883057 0.106852 -0.750644
H132  H     H_    0.110553 0.860285 0.072715 0.222082
H133  H     H_    0.106783 0.923775 0.126195 0.231028
H134  H     H_    0.006631 0.845838 0.139357 0.245212
H135  H     H_    0.778503 0.926615 0.123272 0.217255
H136  H     H_    0.775463 0.863355 0.068686 0.208739
H137  H     H_    0.944566 0.942047 0.006661 0.172273
H138  H     H_    0.924697 0.001730 0.059305 0.179374
C115  C     C_3   0.830152 0.954372 0.449539 -0.347674
C116  C     C_3   0.852828 0.975208 0.388194 -0.323634
C117  C     C_3   0.967573 0.926738 0.355324 -0.732037
H139  H     H_    0.097865 0.917159 0.377517 0.229325
H140  H     H_    0.891749 0.880560 0.350778 0.245618
H141  H     H_    0.998284 0.946160 0.313012 0.208661
H142  H     H_    0.719623 0.980950 0.366438 0.204276
H143  H     H_    0.919215 0.022927 0.387163 0.194294
H144  H     H_    0.955068 0.966358 0.472882 0.155129
H145  H     H_    0.814369 0.901048 0.451806 0.176777
C118  C     C_3   0.141716 0.041219 0.541179 -0.381328
C119  C     C_3   0.151917 0.093841 0.585952 -0.328315
C120  C     C_3   0.968586 0.116942 0.606852 -0.750644
H146  H     H_    0.889446 0.139715 0.572715 0.222082
H147  H     H_    0.893216 0.076225 0.626196 0.231029
H148  H     H_    0.993370 0.154162 0.639358 0.245212
H149  H     H_    0.221496 0.073385 0.623272 0.217255
H150  H     H_    0.224536 0.136645 0.568686 0.208739
H151  H     H_    0.055433 0.057953 0.506661 0.172273
H152  H     H_    0.075302 0.998269 0.559305 0.179373

loop_
_geom_bond_atom_site_label_1
_geom_bond_atom_site_label_2
_ccdc_geom_bond_type
O17   V3    S    
O19   V3    S    
C100  H109  S    
O18   V4    S    
C95   H93   S    
C16   C47   S    
O12   V1    S    
C46   C54   S    
C110  H128  S    
C84   H62   S    
C91   H88   S    
C61   C62   S    
C10   C18   S    
C111  H127  S    
C120  H148  S    
C47   C55   S    
C57   C58   S    
C98   C99   S    
C12   C43   S    
C85   H74   S    
C69   C70   S    
C72   H37   S    
C118  H152  S    
O16   V3    S    
C83   H66   S    
C100  H110  S    
O11   C3    A    
C108  H118  S    
C79   C80   S    
C67   H30   S    
O8    V1    S    
C11   C35   S    
C105  H111  S    
C27   C51   T    
C17   C34   S    
C102  H106  S    
C74   H44   S    
C68   H27   S    
C20   C44   S    
C88   H82   S    
C75   H43   S    
C21   C65   S    
C6    C27   S    
O19   V1    S    
O6    C7    A    
C20   C35   S    
C14   C88   S    
C42   C50   S    
C62   H13   S    
C104  H115  S    
C21   C38   S    
O1    V3    S    
C96   H92   S    
C41   C49   S    
C67   C68   S    
C38   C46   S    
O3    C2    A    
O2    V4    S    
C109  C110  S    
C117  H141  S    
C90   H77   S    
C66   H21   S    
C37   C112  S    
C64   H16   S    
C76   C77   S    
C96   H91   S    
C104  C105  S    
C45   C53   S    
C34   C42   S    
C100  C101  S    
O11   V2    S    
C9    C73   S    
C95   C96   S    
O1    C4    A    
C62   H12   S    
C113  H135  S    
C93   H85   S    
C19   C61   S    
C15   C48   S    
C81   H56   S    
C63   H20   S    
C92   C93   S    
C119  H150  S    
C60   H7    S    
C33   C41   S    
C76   H53   S    
C101  H108  S    
C86   H72   S    
C116  C117  S    
C80   H59   S    
C17   C57   S    
C87   H71   S    
C35   C43   S    
C106  H124  S    
C72   H38   S    
O15   C7    A    
C15   C91   S    
C14   C45   S    
C89   H80   S    
C93   H83   S    
O16   C8    A    
O7    V2    S    
C116  H143  S    
C115  C116  S    
C69   H35   S    
C84   H63   S    
C78   H49   S    
C24   C71   S    
C91   H89   S    
O3    V4    S    
C77   H52   S    
C24   C48   S    
C10   C41   S    
C101  C102  S    
C48   C56   S    
C9    C33   S    
C9    C42   S    
C86   C87   S    
O5    V1    S    
O17   V1    S    
C83   H65   S    
C71   H40   S    
C112  H138  S    
C108  H119  S    
C14   C22   S    
C67   H29   S    
C22   C37   S    
C21   C45   S    
C94   C95   S    
C114  H132  S    
C73   H47   S    
C98   H100  S    
C109  H130  S    
C77   C78   S    
C64   H17   S    
C65   C66   S    
C68   H28   S    
C79   H60   S    
C99   H97   S    
C20   C63   S    
C61   H14   S    
C7    C26   S    
C17   C41   S    
C111  H126  S    
C97   C98   S    
C15   C23   S    
C115  H144  S    
C104  H114  S    
C58   H1    S    
C12   C82   S    
C18   C33   S    
C85   H75   S    
C24   C39   S    
C89   C90   S    
C90   H78   S    
C29   C53   T    
C82   H68   S    
C11   C79   S    
C102  H104  S    
O8    C5    A    
C103  C104  S    
C99   H98   S    
C31   C55   T    
C10   C76   S    
O10   V2    S    
C23   C69   S    
C81   H55   S    
C38   C109  S    
O20   V4    S    
C40   C115  S    
C112  C113  S    
C112  H137  S    
C62   H11   S    
O12   C4    A    
C94   H95   S    
C96   H90   S    
C81   H57   S    
C103  H116  S    
C63   H19   S    
C105  H112  S    
C119  H149  S    
C113  C114  S    
C60   H8    S    
C10   C34   S    
C76   H54   S    
C1    C32   S    
C23   C47   S    
C101  H107  S    
C57   H5    S    
C19   C36   S    
C70   H33   S    
C113  H136  S    
O4    C1    A    
C80   H58   S    
C3    C30   S    
O9    C1    A    
C83   C84   S    
O6    V2    S    
C71   H39   S    
C39   C47   S    
C89   H79   S    
O18   V2    S    
C58   H2    S    
C116  H142  S    
C114  H133  S    
C118  C119  S    
C92   H87   S    
C80   C81   S    
C102  H105  S    
C84   H64   S    
C25   C49   T    
C78   H50   S    
C43   C51   S    
C77   H51   S    
C13   C21   S    
C111  H125  S    
O7    C6    A    
C2    C31   S    
C93   H84   S    
C82   C83   S    
C11   C19   S    
C107  C108  S    
C70   H32   S    
C115  H145  S    
C37   C45   S    
C90   H76   S    
C16   C24   S    
C16   C94   S    
C59   H9    S    
C91   C92   S    
C108  H120  S    
C95   H94   S    
C88   H81   S    
O2    C3    A    
C107  H121  S    
O13   V3    S    
C110  H129  S    
C109  H131  S    
C57   H4    S    
O14   V4    S    
C4    C29   S    
C12   C36   S    
O15   V4    S    
C79   H61   S    
C13   C37   S    
C75   H41   S    
C23   C40   S    
C98   H101  S    
C61   H15   S    
C39   C118  S    
C44   C52   S    
C58   H3    S    
C15   C39   S    
C73   C74   S    
C97   H103  S    
C68   H26   S    
C32   C56   T    
C22   C67   S    
C28   C52   T    
C9    C17   S    
C119  C120  S    
O14   C6    A    
O20   V2    S    
C71   C72   S    
C117  H139  S    
C88   C89   S    
C73   H46   S    
C74   H45   S    
C78   H48   S    
O13   C5    A    
C99   H99   S    
O9    V1    S    
C75   H42   S    
C26   C50   T    
C69   H34   S    
O5    C8    A    
C11   C44   S    
O10   C2    A    
C65   H24   S    
C16   C40   S    
C8    C25   S    
C94   H96   S    
C34   C97   S    
C118  H151  S    
C103  H117  S    
C110  C111  S    
C64   H18   S    
C107  H122  S    
C40   C48   S    
C63   C64   S    
C66   H22   S    
C22   C46   S    
O4    V3    S    
C12   C20   S    
C74   C75   S    
C65   H25   S    
C87   H69   S    
C33   C100  S    
C105  H113  S    
C117  H140  S    
C82   H67   S    
C18   C59   S    
C59   C60   S    
C36   C44   S    
C19   C43   S    
C85   C86   S    
C114  H134  S    
C66   H23   S    
C92   H86   S    
C18   C42   S    
C59   H10   S    
C120  H146  S    
C120  H147  S    
C35   C106  S    
C36   C103  S    
C14   C38   S    
C60   H6    S    
C13   C46   S    
C87   H70   S    
C13   C85   S    
C5    C28   S    
C86   H73   S    
C72   H36   S    
C106  C107  S    
C97   H102  S    
C70   H31   S    
C30   C54   T    
C106  H123  S    
