data_mof_unit_9049.cif
_audit_creation_date              2013-03-05T16:46:54-0500
_audit_creation_method            fapswitch 2.2
_symmetry_space_group_name_H-M    P1
_symmetry_Int_Tables_number       1
_space_group_crystal_system       triclinic
_cell_length_a                    18.201295
_cell_length_b                    18.2691
_cell_length_c                    18.378796
_cell_angle_alpha                 119.983599
_cell_angle_beta                  89.91304
_cell_angle_gamma                 120.05081
_cell_volume                      4322.3937825

loop_
_atom_site_label
_atom_site_type_symbol
_atom_site_description
_atom_site_fract_x
_atom_site_fract_y
_atom_site_fract_z
_atom_type_partial_charge
Zn1   Zn    Zn3+2 0.456040 0.586770 0.543190 0.963459
Zn2   Zn    Zn3+2 0.456820 0.413240 0.543960 0.965755
Zn3   Zn    Zn3+2 0.631110 0.586750 0.543190 0.966067
Zn4   Zn    Zn3+2 0.456040 0.413240 0.369660 1.002103
O1    O     O_3   0.500000 0.500000 0.500000 -0.483271
O2    O     O_R   0.383400 0.268380 0.323710 -0.648929
O3    O     O_R   0.555060 0.731630 0.615290 -0.646428
O4    O     O_R   0.383950 0.439280 0.616600 -0.641611
O5    O     O_R   0.677590 0.560710 0.444390 -0.650849
O6    O     O_R   0.556370 0.439260 0.616600 -0.650322
O7    O     O_R   0.382640 0.439290 0.322940 -0.594954
O8    O     O_R   0.678360 0.560700 0.616060 -0.636412
O9    O     O_R   0.382640 0.560750 0.444390 -0.651140
O10   O     O_R   0.383400 0.560740 0.616060 -0.634431
O11   O     O_R   0.555060 0.439270 0.322940 -0.624287
O12   O     O_R   0.383950 0.268380 0.445700 -0.634428
O13   O     O_R   0.677590 0.731610 0.615290 -0.640089
C1    C     C_R   0.358047 0.220068 0.361073 0.778933
C2    C     C_R   0.640934 0.780999 0.639984 0.743861
C3    C     C_R   0.359707 0.500959 0.641137 0.786214
C4    C     C_R   0.640804 0.500864 0.359563 0.775768
C5    C     C_R   0.641906 0.500311 0.640263 0.794650
C6    C     C_R   0.358308 0.500438 0.359409 0.765156
C7    C     C_3   0.352456 0.540905 0.247485 0.204246
H1    H     H_    0.409666 0.623547 0.296414 0.074882
C8    C     C_3   0.290513 0.537634 0.186186 -0.458988
H2    H     H_    0.323066 0.616338 0.201568 0.128833
H3    H     H_    0.280946 0.485870 0.114910 0.207667
H4    H     H_    0.226184 0.332498 0.197395 0.221776
H5    H     H_    0.143986 0.336032 0.106321 0.195271
C9    C     C_3   0.212194 0.390702 0.238246 -0.373555
C10   C     C_3   0.273169 0.573987 0.359828 -0.462371
C11   C     C_3   0.300672 0.500801 0.301788 0.081606
H6    H     H_    0.235755 0.548415 0.399639 0.198643
H7    H     H_    0.334008 0.654388 0.407682 0.181265
C12   C     C_3   0.197901 0.500328 0.200483 0.142590
C13   C     C_3   0.153313 0.389906 0.176958 -0.379661
C14   C     C_3   0.213508 0.574013 0.300654 -0.391593
H8    H     H_    0.246448 0.654328 0.319806 0.179326
H9    H     H_    0.147869 0.549162 0.312751 0.200031
H10   H     H_    0.173904 0.366202 0.278188 0.150302
H11   H     H_    0.085500 0.360258 0.184355 0.171043
C15   C     C_3   0.637551 0.936121 0.731795 -0.398338
H12   H     H_    0.598198 0.901083 0.765328 0.176916
H13   H     H_    0.587350 0.908296 0.673259 0.156365
C16   C     C_3   0.694091 0.055717 0.793814 -0.021911
H14   H     H_    0.675060 0.079775 0.756534 0.123686
H15   H     H_    0.731950 0.909105 0.821678 0.146529
H16   H     H_    0.831695 0.088198 0.912947 0.152075
C17   C     C_3   0.767345 0.938525 0.783199 -0.402564
C18   C     C_3   0.749440 0.943824 0.650430 -0.408784
C19   C     C_3   0.697936 0.897392 0.699950 0.178184
H17   H     H_    0.794034 0.918176 0.627465 0.177904
H18   H     H_    0.700978 0.915391 0.590325 0.159484
C20   C     C_3   0.797208 0.102475 0.806852 0.179384
C21   C     C_3   0.828691 0.058376 0.843070 -0.385117
C22   C     C_3   0.806801 0.063796 0.712531 -0.451984
H19   H     H_    0.785458 0.092809 0.682424 0.157231
H20   H     H_    0.878495 0.095110 0.717431 0.180747
H21   H     H_    0.809821 0.909358 0.762329 0.181210
H22   H     H_    0.898826 0.084718 0.843743 0.177607
C23   C     C_3   0.688992 0.397506 0.252053 -0.465913
H23   H     H_    0.617777 0.332284 0.209019 0.154489
H24   H     H_    0.705625 0.384166 0.300570 0.196236
C24   C     C_3   0.750179 0.397791 0.193163 0.197893
H25   H     H_    0.705866 0.333969 0.122621 0.087628
H26   H     H_    0.598206 0.453355 0.191832 0.219419
H27   H     H_    0.684276 0.446636 0.101879 0.188047
C25   C     C_3   0.670332 0.515655 0.233230 -0.355682
C26   C     C_3   0.798967 0.591179 0.359517 -0.375509
C27   C     C_3   0.698569 0.501426 0.302364 0.128739
H28   H     H_    0.807338 0.666589 0.399705 0.167020
H29   H     H_    0.822242 0.579979 0.406684 0.201766
C28   C     C_3   0.800192 0.501440 0.200985 0.079499
C29   C     C_3   0.728486 0.512694 0.171865 -0.494652
C30   C     C_3   0.857709 0.595081 0.299754 -0.360205
H30   H     H_    0.914866 0.597035 0.324198 0.224612
H31   H     H_    0.887857 0.668658 0.305430 0.159667
H32   H     H_    0.678305 0.590832 0.268230 0.185527
H33   H     H_    0.761736 0.584680 0.174429 0.178687
H34   H     H_    0.249350 0.214245 0.676507 0.138214
C31   C     C_R   0.300693 0.140626 0.581735 -0.138704
H35   H     H_    0.337630 0.140817 0.628022 0.130849
C32   C     C_R   0.302352 0.098286 0.494476 -0.136689
H36   H     H_    0.340582 0.065613 0.473723 0.120784
C33   C     C_R   0.254916 0.098372 0.434360 0.156159
C34   C     C_R   0.205315 0.140523 0.462264 -0.123060
H37   H     H_    0.167915 0.140457 0.416414 0.104137
C35   C     C_R   0.203280 0.182085 0.549421 -0.131762
H38   H     H_    0.164650 0.214096 0.570658 0.125077
C36   C     C_R   0.250936 0.182123 0.609088 -0.118805
C37   C     C_R   0.204227 0.943679 0.285868 -0.260931
H39   H     H_    0.168062 0.900346 0.312903 0.170263
C38   C     C_R   0.197731 0.892310 0.196203 -0.049485
C39   C     C_R   0.243939 0.949359 0.161079 -0.013517
C40   C     C_R   0.294173 0.056353 0.216517 -0.254939
H40   H     H_    0.330394 0.099725 0.189529 0.175320
C41   C     C_R   0.300521 0.107701 0.306125 -0.050534
C42   C     C_R   0.254575 0.050667 0.341327 -0.012016
C43   C     C_R   0.292319 0.857851 0.040176 -0.116244
H41   H     H_    0.328193 0.856305 0.085768 0.104160
C44   C     C_R   0.295035 0.816680 0.953256 -0.131387
H42   H     H_    0.332635 0.783327 0.931932 0.125478
C45   C     C_R   0.249376 0.818764 0.893948 -0.123162
H43   H     H_    0.251340 0.786851 0.826688 0.139550
C46   C     C_R   0.201071 0.862126 0.921436 -0.133498
H44   H     H_    0.165784 0.863678 0.875441 0.132532
C47   C     C_R   0.198749 0.904076 0.008449 -0.132334
H45   H     H_    0.161702 0.938257 0.029327 0.123943
C48   C     C_R   0.244037 0.901730 0.068186 0.153088
H46   H     H_    0.979150 0.844059 0.649620 0.117894
C49   C     C_R   0.916988 0.687487 0.608715 -0.131707
H47   H     H_    0.935779 0.664527 0.549274 0.130258
C50   C     C_R   0.868481 0.615951 0.628976 -0.113308
H48   H     H_    0.849670 0.537634 0.584669 0.123058
C51   C     C_R   0.844129 0.645585 0.706113 0.152312
C52   C     C_R   0.869544 0.747567 0.763150 -0.134009
H49   H     H_    0.851565 0.771533 0.823102 0.114750
C53   C     C_R   0.918144 0.818879 0.742673 -0.142742
H50   H     H_    0.937868 0.897544 0.786812 0.114391
C54   C     C_R   0.941593 0.788782 0.665386 -0.111591
C55   C     C_R   0.842368 0.567775 0.782401 -0.257051
H51   H     H_    0.915135 0.621052 0.806592 0.177654
C56   C     C_R   0.799382 0.498102 0.805514 -0.049936
C57   C     C_R   0.704522 0.428799 0.773533 -0.020892
C58   C     C_R   0.655275 0.431724 0.719476 -0.267311
H52   H     H_    0.582514 0.378459 0.695306 0.176946
C59   C     C_R   0.698290 0.501350 0.696288 -0.046460
C60   C     C_R   0.793154 0.570157 0.727841 -0.020003
C61   C     C_R   0.628185 0.249015 0.737809 0.153478
C62   C     C_R   0.579678 0.180244 0.761904 -0.149875
H53   H     H_    0.558309 0.100836 0.721405 0.108674
C63   C     C_R   0.557442 0.213071 0.839655 -0.166338
H54   H     H_    0.520537 0.159592 0.857378 0.128895
C64   C     C_R   0.582219 0.314272 0.894354 -0.128387
H55   H     H_    0.564304 0.339085 0.954227 0.135305
C65   C     C_R   0.629762 0.383438 0.871820 -0.137227
H56   H     H_    0.648684 0.461933 0.915025 0.125401
C66   C     C_R   0.653518 0.352105 0.794396 0.107427
H57   H     H_    0.341090 0.817518 0.623389 0.114678
C67   C     C_R   0.387639 0.799604 0.717100 -0.137908
H58   H     H_    0.448928 0.877057 0.755034 0.112445
C68   C     C_R   0.369227 0.733315 0.742505 -0.125279
H59   H     H_    0.416863 0.760062 0.800126 0.107987
C69   C     C_R   0.289372 0.632846 0.693548 0.150162
C70   C     C_R   0.227952 0.599876 0.619660 -0.146068
H60   H     H_    0.165869 0.522814 0.581691 0.121664
C71   C     C_R   0.246754 0.666427 0.594450 -0.141073
H61   H     H_    0.199308 0.640848 0.537437 0.127788
C72   C     C_R   0.326641 0.766098 0.642976 -0.110194
C73   C     C_R   0.213692 0.557873 0.772353 -0.275354
H62   H     H_    0.186618 0.603033 0.788451 0.178122
C74   C     C_R   0.193144 0.496269 0.803402 -0.049641
C75   C     C_R   0.227173 0.435563 0.780077 -0.010302
C76   C     C_R   0.283128 0.441116 0.728986 -0.274670
H63   H     H_    0.310142 0.395909 0.712869 0.178019
C77   C     C_R   0.303825 0.502901 0.698059 -0.049620
C78   C     C_R   0.269218 0.562984 0.720834 -0.012925
C79   C     C_R   0.265723 0.394683 0.879040 -0.160972
H64   H     H_    0.329190 0.470459 0.916620 0.127469
C80   C     C_R   0.243845 0.327744 0.904475 -0.127506
H65   H     H_    0.290430 0.351698 0.961134 0.178239
C81   C     C_R   0.161783 0.230038 0.856933 -0.105347
H66   H     H_    0.144867 0.178487 0.876912 0.126829
C82   C     C_R   0.101620 0.198826 0.783522 -0.136669
H67   H     H_    0.038163 0.123128 0.746730 0.113096
C83   C     C_R   0.123286 0.265448 0.757761 -0.122193
H68   H     H_    0.076115 0.240813 0.701043 0.105847
C84   C     C_R   0.205223 0.364101 0.805915 0.147371
Zn5   Zn    Zn3+2 0.041710 0.413240 0.959030 0.975867
Zn6   Zn    Zn3+2 0.866640 0.413270 0.959030 0.970948
Zn7   Zn    Zn3+2 0.040930 0.586780 0.958260 0.965634
Zn8   Zn    Zn3+2 0.041710 0.586770 0.132560 0.972792
O14   O     O_3   0.997750 0.500010 0.002220 -0.477525
O15   O     O_R   0.942690 0.560750 0.179280 -0.636994
O16   O     O_R   0.114340 0.439270 0.886160 -0.633950
O17   O     O_R   0.820160 0.268410 0.886930 -0.651545
O18   O     O_R   0.113800 0.731630 0.056520 -0.633760
O19   O     O_R   0.819390 0.439310 0.886160 -0.641571
O20   O     O_R   0.115110 0.560720 0.179280 -0.642311
O21   O     O_R   0.941380 0.560750 0.885620 -0.649413
O22   O     O_R   0.115110 0.439270 0.057830 -0.642221
O23   O     O_R   0.942690 0.268390 0.886930 -0.640712
O24   O     O_R   0.114340 0.731630 0.178520 -0.655285
O25   O     O_R   0.820160 0.439310 0.057830 -0.650378
O26   O     O_R   0.113800 0.560730 0.885620 -0.642333
C85   C     C_R   0.857181 0.500902 0.142896 0.803619
C86   C     C_R   0.137823 0.498830 0.860877 0.785686
C87   C     C_R   0.856374 0.219022 0.864394 0.748723
C88   C     C_R   0.139822 0.779938 0.141165 0.780775
C89   C     C_R   0.855830 0.499520 0.861812 0.788016
C90   C     C_R   0.139503 0.499764 0.142885 0.780828
N1    N     N_R   0.390053 0.484398 0.195968 0.219334
O27   O     O_R   0.476875 0.532375 0.216010 -0.436252
O28   O     O_R   0.338085 0.388258 0.127514 -0.433736
C91   C     C_3   0.663012 0.093221 0.876472 -0.423276
C92   C     C_3   0.684747 0.076854 0.945613 -0.317931
C93   C     C_3   0.622935 0.077064 0.001909 -0.837097
H69   H     H_    0.626422 0.149243 0.033562 0.264661
H70   H     H_    0.552281 0.009508 0.959752 0.238863
H71   H     H_    0.643953 0.071976 0.054958 0.263043
H72   H     H_    0.676836 0.002251 0.913390 0.214069
H73   H     H_    0.755107 0.140783 0.990695 0.253343
H74   H     H_    0.688850 0.175614 0.911199 0.239141
H75   H     H_    0.588806 0.050911 0.850353 0.186602
N2    N     N_R   0.812959 0.378148 0.215439 0.206169
O29   O     O_R   0.818519 0.306048 0.152681 -0.444904
O30   O     O_R   0.861397 0.429432 0.297506 -0.430049
C94   C     C_3   0.654528 0.216439 0.654051 -0.431052
C95   C     C_3   0.622784 0.102957 0.595712 -0.377679
C96   C     C_3   0.652864 0.079272 0.513985 -0.877249
H76   H     H_    0.624062 0.092779 0.472555 0.263603
H77   H     H_    0.727451 0.128918 0.534544 0.259091
H78   H     H_    0.629116 0.996965 0.473275 0.246491
H79   H     H_    0.651633 0.086945 0.634431 0.212151
H80   H     H_    0.548118 0.050886 0.572954 0.219718
H81   H     H_    0.626414 0.230586 0.612702 0.206583
H82   H     H_    0.729134 0.266856 0.674407 0.203361

loop_
_geom_bond_atom_site_label_1
_geom_bond_atom_site_label_2
_geom_bond_distance
_ccdc_geom_bond_type
C32   C33   1.404336 A    
C34   H37   1.083231 S    
C43   C48   1.404143 A    
C77   C78   1.417499 A    
Zn5   O23   1.932006 S    
H46   C54   1.082377 S    
C47   H45   1.083189 S    
C39   C40   1.384616 A    
C20   C21   1.555649 S    
C59   C60   1.413639 A    
C45   C46   1.397146 A    
C50   H48   1.083111 S    
C92   H73   1.108427 S    
C64   H55   1.082157 S    
C83   C84   1.404789 A    
Zn5   O16   1.941370 S    
Zn8   O14   1.957424 S    
C57   C66   1.484985 S    
H27   C29   1.112393 S    
C65   C66   1.404045 A    
C8    H2    1.113269 S    
C82   H67   1.082467 S    
C28   C30   1.557548 S    
C4    C27   1.485689 S    
Zn1   O1    1.947791 S    
C94   H82   1.112095 S    
C20   C87   1.505995 S    
C37   H39   1.084958 S    
C12   C13   1.550727 S    
C81   C82   1.398129 A    
C7    C8    1.553394 S    
C70   H60   1.083058 S    
C52   C53   1.398681 A    
Zn5   O14   1.947791 S    
C14   H8    1.113388 S    
O18   C88   1.278544 A    
N2    O30   1.301670 A    
C15   C19   1.553764 S    
C22   H20   1.113297 S    
C76   C77   1.397783 A    
C46   H44   1.082471 S    
C95   H79   1.109369 S    
O8    C5    1.269550 A    
C91   H75   1.112500 S    
C51   C52   1.403663 A    
O9    C6    1.281742 A    
C64   C65   1.394217 A    
O7    C6    1.280458 A    
C13   H11   1.113039 S    
C25   C27   1.553095 S    
C49   H47   1.082101 S    
C23   H24   1.112697 S    
Zn3   O8    1.951971 S    
C62   C63   1.396509 A    
C61   C62   1.413518 A    
C2    C19   1.504720 S    
C51   C60   1.479052 S    
C81   H66   1.082354 S    
Zn8   O24   1.931324 S    
Zn7   O26   1.939001 S    
C6    C11   1.496456 S    
C40   C41   1.397655 A    
C16   C20   1.581387 S    
C17   C19   1.551614 S    
C73   H62   1.083409 S    
C9    C11   1.554593 S    
C25   C29   1.545319 S    
C93   H69   1.109434 S    
C18   C22   1.551779 S    
C10   C14   1.538361 S    
C35   C36   1.398727 A    
Zn2   O12   1.933678 S    
C29   H33   1.113115 S    
C55   C60   1.376648 A    
N1    O27   1.301173 A    
H15   C17   1.111661 S    
C82   C83   1.398485 A    
Zn1   O3    1.932108 S    
Zn5   O22   1.953509 S    
Zn6   O19   1.951826 S    
C92   C93   1.527444 S    
O22   C90   1.282989 A    
C26   H29   1.112660 S    
C61   C66   1.419595 A    
Zn7   O21   1.949716 S    
C49   C50   1.398532 A    
C45   H43   1.081505 S    
C80   C81   1.398377 A    
Zn7   O14   1.952878 S    
C67   C72   1.397744 A    
C69   C70   1.403322 A    
C70   C71   1.398521 A    
C30   H30   1.110655 S    
Zn8   O15   1.938227 S    
C93   H70   1.111291 S    
O2    C1    1.288555 A    
Zn6   O14   1.948618 S    
O17   C87   1.281178 A    
C28   C29   1.553366 S    
Zn6   O25   1.942746 S    
C30   H31   1.113618 S    
C18   C19   1.548984 S    
C10   H7    1.113547 S    
O10   C3    1.273573 A    
C32   H36   1.083312 S    
Zn4   O2    1.931368 S    
O20   C90   1.278455 A    
C83   H68   1.083106 S    
N2    O29   1.300102 A    
C91   C92   1.536383 S    
C24   N2    1.470050 S    
Zn8   O20   1.948668 S    
N1    O28   1.301355 A    
C31   H35   1.082653 S    
O6    C5    1.278707 A    
C31   C36   1.397500 A    
C9    C13   1.545710 S    
H5    C13   1.113160 S    
H26   C25   1.112992 S    
C10   H6    1.113047 S    
C15   H12   1.111932 S    
C73   C78   1.384782 A    
C96   H76   1.110881 S    
C23   H23   1.113447 S    
Zn3   O5    1.942746 S    
C5    C59   1.441518 S    
C79   H64   1.083064 S    
C40   H40   1.084980 S    
C93   H71   1.110369 S    
C37   C38   1.397891 A    
C94   C95   1.536894 S    
O19   C89   1.269044 A    
C92   H72   1.107234 S    
O4    C3    1.287339 A    
C7    H1    1.115216 S    
Zn4   O7    1.948672 S    
C44   C45   1.398627 A    
C33   C42   1.479299 S    
C15   H13   1.114388 S    
C75   C76   1.384943 A    
C26   C27   1.553913 S    
C53   C54   1.398108 A    
O23   C87   1.289448 A    
C8    C12   1.549840 S    
C96   H77   1.110960 S    
C43   C44   1.398623 A    
C95   C96   1.525872 S    
C38   C39   1.415339 A    
O3    C2    1.282027 A    
C3    C77   1.458105 S    
C20   C22   1.559846 S    
C26   C30   1.533944 S    
C57   C58   1.377361 A    
O24   C88   1.288413 A    
C25   H32   1.112998 S    
Zn2   O1    1.952730 S    
C91   H74   1.107241 S    
C24   H25   1.114125 S    
O26   C86   1.287419 A    
C62   H53   1.079980 S    
Zn2   O6    1.949818 S    
H57   C72   1.082360 S    
C33   C34   1.404011 A    
C28   C85   1.487328 S    
C38   C88   1.452307 S    
Zn7   O18   1.933576 S    
C68   C69   1.404455 A    
C16   H14   1.112117 S    
O16   C86   1.273412 A    
C58   C59   1.398559 A    
C9    H10   1.113257 S    
C23   C24   1.551748 S    
C12   C90   1.494001 S    
C8    H3    1.112761 S    
Zn2   O4    1.938955 S    
C71   C72   1.397986 A    
Zn4   O1    1.957424 S    
Zn3   O1    1.948617 S    
C39   C48   1.479397 S    
C50   C51   1.403822 A    
C53   H50   1.082228 S    
C16   C91   1.562846 S    
C74   C86   1.458220 S    
H16   C21   1.104612 S    
C65   H56   1.083343 S    
C31   C32   1.398036 A    
C7    C11   1.567670 S    
C18   H18   1.112958 S    
C94   H81   1.111806 S    
C10   C11   1.555416 S    
Zn4   O11   1.938230 S    
C67   C68   1.398269 A    
C79   C80   1.398486 A    
C35   H38   1.082396 S    
C17   H21   1.111825 S    
C49   C54   1.398172 A    
H4    C9    1.109905 S    
C80   H65   1.081846 S    
C67   H58   1.080806 S    
C14   H9    1.113447 S    
C69   C78   1.478269 S    
O21   C89   1.278966 A    
O5    C4    1.280830 A    
C22   H19   1.112684 S    
C63   H54   1.082588 S    
C46   C47   1.397793 A    
C7    N1    1.469380 S    
C58   H52   1.084983 S    
C95   H80   1.111779 S    
C12   C14   1.556822 S    
C43   H41   1.083088 S    
O13   C2    1.287620 A    
C47   C48   1.404217 A    
C23   C27   1.550529 S    
Zn3   O13   1.931666 S    
C71   H61   1.082250 S    
C73   C74   1.397089 A    
C44   H42   1.082316 S    
C15   C16   1.547419 S    
C17   C21   1.548806 S    
O25   C85   1.284507 A    
C24   C28   1.561061 S    
O15   C85   1.277882 A    
H34   C36   1.081949 S    
O11   C4    1.281496 A    
C96   H78   1.110498 S    
Zn1   O9    1.953611 S    
C75   C84   1.478590 S    
O12   C1    1.278191 A    
C41   C42   1.415289 A    
C76   H63   1.083216 S    
C63   C64   1.393142 A    
C34   C35   1.398604 A    
C21   H22   1.113625 S    
Zn6   O17   1.931666 S    
C61   C94   1.523678 S    
C26   H28   1.113462 S    
Zn1   O10   1.941472 S    
C1    C41   1.452143 S    
C18   H17   1.112964 S    
C55   H51   1.085070 S    
C52   H49   1.083078 S    
C55   C56   1.398138 A    
C56   C89   1.441048 S    
C79   C84   1.403117 A    
C68   H59   1.083164 S    
C37   C42   1.384457 A    
C56   C57   1.414017 A    
C74   C75   1.417520 A    
