data_mof_unit_50351.cif
_audit_creation_date              2012-12-10T19:02:42-0500
_audit_creation_method            fapswitch 2.2
_symmetry_space_group_name_H-M    P1
_symmetry_Int_Tables_number       1
_space_group_crystal_system       triclinic
_cell_length_a                    9.560902
_cell_length_b                    10.833731
_cell_length_c                    13.875598
_cell_angle_alpha                 89.980872
_cell_angle_beta                  84.746504
_cell_angle_gamma                 89.953185
_cell_volume                      1431.19990665

loop_
_atom_site_label
_atom_site_type_symbol
_atom_type_description
_atom_site_fract_x
_atom_site_fract_y
_atom_site_fract_z
_atom_type_partial_charge
C1    C     C_R   0.501129 0.738010 0.495778 0.788901
C2    C     C_1   0.463192 0.500167 0.786205 -0.171716
C3    C     C_R   0.375945 0.935558 0.517188 -0.034111
C4    C     C_R   0.503327 0.872534 0.499260 -0.267414
C5    C     C_R   0.631104 0.940164 0.499609 -0.019192
C6    C     C_R   0.624089 0.063386 0.532884 -0.019016
C7    C     C_R   0.499034 0.129857 0.522407 -0.227035
C8    C     C_R   0.374988 0.062863 0.520502 0.092904
C9    C     C_3   0.254682 0.076666 0.459621 -0.283965
C10   C     C_3   0.250684 0.935358 0.457743 0.308072
C11   C     C_R   0.936613 0.449589 0.424490 0.168431
C12   C     C_R   0.477162 0.500112 0.682970 0.813414
C13   C     C_R   0.915419 0.540982 0.577742 -0.042879
C14   C     C_R   0.063866 0.540507 0.577883 0.001360
C15   C     C_R   0.083856 0.448356 0.425011 0.168335
C16   C     C_3   0.105200 0.487145 0.321715 -0.535345
C17   C     C_3   0.946458 0.490624 0.321051 0.308085
C18   C     C_R   0.499376 0.262839 0.507524 0.801605
C19   C     C_R   0.522766 0.499905 0.317053 0.815620
C20   C     C_1   0.536322 0.499714 0.213869 -0.187841
C21   C     C_2   0.557551 0.499702 0.023281 -0.161604
C22   C     C_2   0.441472 0.500230 0.976848 -0.155697
C23   C     C_1   0.452230 0.500209 0.873125 0.004599
C24   C     C_1   0.546885 0.499651 0.126971 -0.018677
Cu1   Cu    Cu3+1 0.359330 0.500020 0.500000 0.975865
Cu2   Cu    Cu3+1 0.640670 0.499980 0.500000 0.965729
H1    H     H_    0.337972 0.500641 0.016421 0.150758
H2    H     H_    0.110534 0.576116 0.640205 0.113581
H3    H     H_    0.156013 0.579278 0.312538 0.239286
H4    H     H_    0.155099 0.413236 0.274799 0.151318
H5    H     H_    0.902055 0.420527 0.273524 0.070744
H6    H     H_    0.661058 0.499326 0.983733 0.151707
H7    H     H_    0.287774 0.117634 0.387617 0.085360
H8    H     H_    0.278216 0.897916 0.383785 0.095528
H9    H     H_    0.852262 0.577836 0.639694 0.131596
N1    N     N_R   0.852140 0.499070 0.499400 -0.168624
N2    N     N_R   0.148050 0.499110 0.499400 -0.156348
O1    O     O_R   0.381190 0.680360 0.500000 -0.565361
O2    O     O_R   0.618770 0.680320 0.499990 -0.583562
O3    O     O_R   0.364410 0.500000 0.637850 -0.575743
O4    O     O_R   0.602000 0.499960 0.637840 -0.591262
O5    O     O_R   0.381230 0.319680 0.500010 -0.542261
O6    O     O_R   0.618810 0.319640 0.500000 -0.615024
O7    O     O_R   0.398000 0.500040 0.362160 -0.584929
O8    O     O_R   0.635590 0.500000 0.362150 -0.546775
O9    O     O_3   0.894792 0.612101 0.312863 -0.528722
C25   C     C_3   0.898175 0.644310 0.214255 -0.304167
H10   H     H_    0.830543 0.582097 0.174921 0.158142
H11   H     H_    0.007437 0.643671 0.178970 0.157208
H12   H     H_    0.856522 0.739418 0.208927 0.182725
C26   C     C_2   0.764003 0.895890 0.445042 0.441358
H13   H     H_    0.771631 0.806373 0.410891 0.140714
O10   O     O_2   0.864815 0.964270 0.429237 -0.525085
C27   C     C_2   0.737788 0.114913 0.587925 0.421755
H14   H     H_    0.734815 0.209313 0.613459 0.089395
O11   O     O_2   0.831306 0.048774 0.613064 -0.525236
C28   C     C_2   0.127375 0.139988 0.509471 0.535232
H15   H     H_    0.032190 0.145470 0.472910 0.109930
O12   O     O_2   0.130326 0.187949 0.588932 -0.541828
O13   O     O_3   0.121912 0.883047 0.499689 -0.518625
C29   C     C_3   0.116930 0.861995 0.600540 -0.139234
H16   H     H_    0.010634 0.827773 0.626050 0.178314
H17   H     H_    0.134988 0.948089 0.640911 0.184275
H18   H     H_    0.193484 0.790033 0.617597 0.135435

loop_
_geom_bond_atom_site_label_1
_geom_bond_atom_site_label_2
_ccdc_geom_bond_type
Cu1   O5    S    
C12   O3    A    
C29   H18   S    
C10   O13   S    
C19   O8    A    
C12   O4    A    
C13   C14   A    
Cu1   O1    S    
C9    C10   S    
C6    C7    A    
C19   C20   S    
C1    C4    S    
C2    C12   S    
C7    C18   S    
C16   H3    S    
C7    C8    A    
C10   H8    S    
C3    C10   S    
C15   N2    A    
C18   O6    A    
C19   O7    A    
C14   N2    A    
C9    H7    S    
C28   H15   S    
C5    C6    A    
C1    O1    A    
C6    C27   S    
Cu1   O7    S    
Cu2   N1    S    
C11   N1    A    
Cu2   O6    S    
C13   H9    S    
C25   H12   S    
C9    C28   S    
C22   H1    S    
C18   O5    A    
Cu1   O3    S    
C29   H16   S    
C17   H5    S    
C21   H6    S    
C27   O11   D    
Cu2   O2    S    
C28   O12   D    
C16   C17   S    
C1    O2    A    
C16   H4    S    
C15   C16   S    
C25   H10   S    
C20   C24   T    
C4    C5    A    
C26   H13   S    
C17   O9    S    
C13   N1    A    
C25   H11   S    
C3    C8    A    
O9    C25   S    
C21   C24   S    
C2    C23   T    
C29   H17   S    
C27   H14   S    
O13   C29   S    
Cu2   O8    S    
C14   H2    S    
Cu1   Cu2   S    
C21   C22   D    
C11   C15   A    
C22   C23   S    
C5    C26   S    
C3    C4    A    
Cu2   O4    S    
Cu1   N2    S    
C8    C9    S    
C26   O10   D    
C11   C17   S    
