data_mof_unit_53775.cif
_audit_creation_date              2012-12-10T17:16:34-0500
_audit_creation_method            fapswitch 2.2
_symmetry_space_group_name_H-M    P1
_symmetry_Int_Tables_number       1
_space_group_crystal_system       triclinic
_cell_length_a                    10.153572
_cell_length_b                    10.675766
_cell_length_c                    10.953488
_cell_angle_alpha                 90.401193
_cell_angle_beta                  95.99666
_cell_angle_gamma                 77.839265
_cell_volume                      1154.19516543

loop_
_atom_site_label
_atom_site_type_symbol
_atom_type_description
_atom_site_fract_x
_atom_site_fract_y
_atom_site_fract_z
_atom_type_partial_charge
C1    C     C_R   0.444014 0.498294 0.268211 0.939218
C2    C     C_R   0.494833 0.741096 0.499187 0.878217
C3    C     C_R   0.592761 0.100764 0.294644 -0.272892
C4    C     C_R   0.407238 0.899236 0.705356 -0.272892
C5    C     C_R   0.607558 0.029605 0.187921 -0.210975
C6    C     C_R   0.392440 0.970396 0.812078 -0.210976
C7    C     C_R   0.555320 0.918010 0.173755 0.556110
C8    C     C_R   0.444679 0.081990 0.826244 0.556114
C9    C     C_R   0.492285 0.878935 0.270377 -0.102304
C10   C     C_R   0.507715 0.121066 0.729622 -0.102303
C11   C     C_R   0.506752 0.934117 0.387719 -0.047240
C12   C     C_R   0.555986 0.501706 0.731789 0.939219
C13   C     C_R   0.493248 0.065883 0.612281 -0.047240
C14   C     C_R   0.541660 0.053523 0.396194 0.055906
C15   C     C_R   0.458340 0.946477 0.603805 0.055905
C16   C     C_R   0.478767 0.877280 0.494936 -0.129671
C17   C     C_R   0.521233 0.122720 0.505064 -0.129672
C18   C     C_3   0.324949 0.176634 0.981972 -0.305930
C19   C     C_3   0.675049 0.823364 0.018029 -0.305926
C20   C     C_1   0.380726 0.816303 0.239407 0.218515
C21   C     C_1   0.619274 0.183697 0.760593 0.218516
C22   C     C_1   0.362794 0.618358 0.899231 0.242472
C23   C     C_2   0.411092 0.501136 0.136668 -0.431974
C24   C     C_1   0.637206 0.381642 0.100769 0.242471
C25   C     C_2   0.588908 0.498864 0.863332 -0.431975
C26   C     C_2   0.510135 0.471351 0.061873 0.029720
C27   C     C_2   0.489865 0.528649 0.938126 0.029720
C28   C     C_2   0.074043 0.490376 0.489748 -0.121407
C29   C     C_2   0.925957 0.509624 0.510252 -0.121408
C30   C     C_R   0.505167 0.258904 0.500813 0.878216
H1    H     H_    0.625121 0.190603 0.296950 0.196844
H2    H     H_    0.117198 0.614768 0.615747 0.174034
H3    H     H_    0.299342 0.092537 0.025668 0.176876
H4    H     H_    0.243857 0.219738 0.908655 0.160712
H5    H     H_    0.329090 0.249594 0.054069 0.193447
H6    H     H_    0.670905 0.750407 0.945928 0.193447
H7    H     H_    0.700663 0.907461 0.974338 0.176872
H8    H     H_    0.756138 0.780252 0.091346 0.160712
H9    H     H_    0.374878 0.809398 0.703050 0.196844
H10   H     H_    0.650366 0.067142 0.113382 0.201105
H11   H     H_    0.349631 0.932860 0.886616 0.201104
H12   H     H_    0.691398 0.451748 0.897506 0.168083
H13   H     H_    0.308602 0.548252 0.102494 0.168083
H14   H     H_    0.887363 0.577270 0.579026 0.166565
H15   H     H_    0.112637 0.422730 0.420974 0.166565
H16   H     H_    0.882802 0.385232 0.384253 0.174034
N1    N     N_2   0.157300 0.551390 0.551120 -0.190058
N2    N     N_2   0.842700 0.448610 0.448880 -0.190057
N3    N     N_1   0.287403 0.771579 0.214082 -0.204086
N4    N     N_1   0.712596 0.228421 0.785918 -0.204086
N5    N     N_1   0.261554 0.689009 0.869226 -0.245476
N6    N     N_1   0.738445 0.310991 0.130774 -0.245476
O1    O     O_R   0.568940 0.489660 0.307530 -0.603668
O2    O     O_3   0.546659 0.856642 0.061988 -0.619396
O3    O     O_R   0.431060 0.510340 0.692470 -0.603668
O4    O     O_R   0.348880 0.522640 0.340350 -0.602550
O5    O     O_R   0.651120 0.477360 0.659650 -0.602550
O6    O     O_R   0.610030 0.300280 0.483580 -0.622499
O7    O     O_R   0.389970 0.699720 0.516420 -0.622499
O8    O     O_R   0.389970 0.333270 0.516400 -0.609226
O9    O     O_R   0.610030 0.666730 0.483600 -0.609227
O10   O     O_3   0.453338 0.143359 0.938012 -0.619395
Zn1   Zn    Zn3+2 0.646940 0.477980 0.478080 0.961528
Zn2   Zn    Zn3+2 0.353060 0.522020 0.521920 0.961528

loop_
_geom_bond_atom_site_label_1
_geom_bond_atom_site_label_2
_ccdc_geom_bond_type
C25   H12   S    
C24   N6    T    
C4    H9    S    
C28   N1    D    
C1    C23   S    
C20   N3    T    
C19   H8    S    
C2    C16   S    
C25   C27   D    
C9    C11   A    
C18   H5    S    
C9    C20   S    
C2    O9    A    
C13   C17   A    
C12   C25   S    
O8    Zn2   S    
O3    Zn2   S    
C4    C15   A    
O4    Zn2   S    
C26   C27   S    
C29   H14   S    
C3    H1    S    
C17   C30   S    
O1    Zn1   S    
C14   C17   A    
O7    Zn2   S    
C3    C14   A    
C18   H4    S    
C12   O5    A    
C30   O6    A    
C19   O2    S    
C8    C10   A    
C28   C29   S    
C11   C14   A    
C1    O4    A    
C24   C26   S    
O5    Zn1   S    
C5    C7    A    
C19   H6    S    
C13   C15   A    
C10   C21   S    
C22   C27   S    
C18   H3    S    
H16   N2    S    
C28   H15   S    
C5    H10   S    
C12   O3    A    
C29   N2    D    
C15   C16   A    
H2    N1    S    
C23   H13   S    
C4    C6    A    
C11   C16   A    
C23   C26   D    
N1    Zn2   S    
C7    C9    A    
C1    O1    A    
C2    O7    A    
C21   N4    T    
N2    Zn1   S    
C6    C8    A    
C19   H7    S    
C7    O2    S    
C10   C13   A    
O9    Zn1   S    
C18   O10   S    
O6    Zn1   S    
C8    O10   S    
C22   N5    T    
C3    C5    A    
C6    H11   S    
C30   O8    A    
