data_mof_unit_33003.cif
_audit_creation_date              2012-12-10T18:54:28-0500
_audit_creation_method            fapswitch 2.2
_symmetry_space_group_name_H-M    P1
_symmetry_Int_Tables_number       1
_space_group_crystal_system       triclinic
_cell_length_a                    10.772651
_cell_length_b                    9.806518
_cell_length_c                    23.398564
_cell_angle_alpha                 89.493377
_cell_angle_beta                  90.766405
_cell_angle_gamma                 89.957115
_cell_volume                      2471.55699431

loop_
_atom_site_label
_atom_site_type_symbol
_atom_type_description
_atom_site_fract_x
_atom_site_fract_y
_atom_site_fract_z
_atom_type_partial_charge
C1    C     C_R   0.259677 0.500031 0.499934 0.873924
C2    C     C_R   0.512085 0.373530 0.703270 -0.214963
C3    C     C_R   0.468242 0.385337 0.237056 -0.112920
C4    C     C_R   0.518239 0.372754 0.762603 -0.106507
C5    C     C_R   0.476063 0.510250 0.208177 0.320503
C6    C     C_R   0.521433 0.496118 0.791910 0.315841
C7    C     C_R   0.063778 0.375732 0.499671 -0.187833
C8    C     C_R   0.936222 0.624268 0.500323 -0.188104
C9    C     C_R   0.936384 0.375697 0.499759 -0.187929
C10   C     C_R   0.063616 0.624303 0.500236 -0.188157
C11   C     C_R   0.872744 0.499964 0.500067 -0.016405
C12   C     C_R   0.740322 0.499969 0.500064 0.873805
C13   C     C_R   0.127256 0.500036 0.499928 -0.016420
C14   C     C_R   0.578106 0.071266 0.535603 -0.077326
C15   C     C_R   0.421894 0.928734 0.464397 -0.077938
C16   C     C_R   0.421886 0.072881 0.464400 -0.074536
C17   C     C_R   0.578113 0.927119 0.535601 -0.075518
C18   C     C_R   0.498250 0.500699 0.389178 0.876123
C19   C     C_R   0.501778 0.499413 0.610827 0.876356
C20   C     C_R   0.622535 0.509637 0.883759 0.542408
C21   C     C_R   0.373077 0.517556 0.116473 0.541615
C22   C     C_R   0.402219 0.489052 0.877242 0.526646
C23   C     C_R   0.489692 0.631712 0.238215 -0.121749
C24   C     C_R   0.594244 0.513167 0.122593 0.520330
C25   C     C_R   0.391117 0.506748 0.936409 -0.176195
C26   C     C_R   0.603372 0.526305 0.063149 -0.187064
C27   C     C_R   0.500777 0.514235 0.969915 -0.134395
C28   C     C_R   0.493387 0.518756 0.029837 -0.130010
C29   C     C_R   0.618115 0.512303 0.943639 -0.186808
C30   C     C_R   0.376418 0.513373 0.056477 -0.180409
C31   C     C_R   0.274080 0.514265 0.962966 0.381422
C32   C     C_R   0.719468 0.541621 0.036112 0.389623
C33   C     C_R   0.266990 0.504148 0.022589 0.390362
C34   C     C_R   0.520157 0.620295 0.762262 -0.126294
C35   C     C_R   0.727477 0.513920 0.977740 0.402565
C36   C     C_3   0.152326 0.654504 0.906116 0.216052
C37   C     C_3   0.082300 0.749364 0.945554 -0.360953
C38   C     C_3   0.058246 0.888182 0.917538 -1.000800
C39   C     C_3   0.815897 0.708347 0.090286 0.202469
C40   C     C_3   0.879641 0.815398 0.053227 -0.394461
C41   C     C_3   0.863006 0.958747 0.076843 -0.985625
C42   C     C_3   0.137177 0.343247 0.058554 0.174684
C43   C     C_3   0.032337 0.321683 0.100626 -0.690090
C44   C     C_3   0.847457 0.336797 0.949353 0.165338
C45   C     C_R   0.496782 0.628520 0.297426 -0.211848
C46   C     C_3   0.946462 0.297902 0.906630 -0.696664
C47   C     C_R   0.513973 0.621516 0.703005 -0.213812
C48   C     C_R   0.490931 0.503304 0.326885 -0.040358
C49   C     C_R   0.508770 0.498078 0.673136 -0.040738
C50   C     C_R   0.475711 0.381654 0.296383 -0.214570
H1    H     H_    0.497025 0.728023 0.215504 0.123213
H2    H     H_    0.887894 0.721197 0.500591 0.156205
H3    H     H_    0.888182 0.278761 0.499567 0.156376
H4    H     H_    0.111818 0.721239 0.500429 0.156351
H5    H     H_    0.640423 0.125503 0.564015 0.124837
H6    H     H_    0.359576 0.874497 0.435986 0.125795
H7    H     H_    0.359550 0.128403 0.435991 0.124543
H8    H     H_    0.640448 0.871597 0.564009 0.125399
H9    H     H_    0.097554 0.643143 0.865862 0.195254
H10   H     H_    0.242366 0.702213 0.894097 0.102299
H11   H     H_    0.992381 0.701113 0.956158 0.287497
H12   H     H_    0.521469 0.715583 0.785312 0.126223
H13   H     H_    0.137732 0.763956 0.985398 0.216122
H14   H     H_    0.147377 0.938052 0.906422 0.270608
H15   H     H_    0.008104 0.954687 0.947687 0.269612
H16   H     H_    0.000413 0.876569 0.878227 0.280789
H17   H     H_    0.862996 0.705918 0.132823 0.191953
H18   H     H_    0.718537 0.741614 0.097806 0.105232
H19   H     H_    0.980240 0.791980 0.052216 0.252592
H20   H     H_    0.839630 0.812545 0.009250 0.226480
H21   H     H_    0.762978 0.986095 0.077831 0.267594
H22   H     H_    0.911334 0.033319 0.048939 0.261188
H23   H     H_    0.508142 0.723754 0.319992 0.159670
H24   H     H_    0.903178 0.965095 0.120708 0.274323
H25   H     H_    0.222172 0.295851 0.077984 0.108814
H26   H     H_    0.114303 0.288568 0.018434 0.116831
H27   H     H_    0.942873 0.355307 0.081518 0.280969
H28   H     H_    0.025257 0.211789 0.111865 0.171763
H29   H     H_    0.050447 0.380076 0.140291 0.290807
H30   H     H_    0.758539 0.291768 0.933413 0.108042
H31   H     H_    0.870241 0.288379 0.991263 0.113822
H32   H     H_    0.040165 0.314841 0.924906 0.273461
H33   H     H_    0.937987 0.187990 0.896258 0.175188
H34   H     H_    0.512186 0.718796 0.680726 0.158920
H35   H     H_    0.935309 0.358528 0.866602 0.293415
H36   H     H_    0.470180 0.284066 0.318235 0.156672
H37   H     H_    0.508802 0.277043 0.681133 0.158360
H38   H     H_    0.458915 0.291371 0.213420 0.124723
H39   H     H_    0.518183 0.276830 0.785890 0.127915
H40   H     H_    0.112106 0.278804 0.499403 0.156230
N1    N     N_R   0.515795 0.496193 0.852538 -0.360013
N2    N     N_R   0.480824 0.513092 0.147539 -0.359170
N3    N     N_R   0.500000 0.857200 0.500000 -0.079377
N4    N     N_R   0.500000 0.142800 0.500000 -0.079061
O1    O     O_R   0.316770 0.614620 0.500000 -0.626572
O2    O     O_2   0.264090 0.526837 0.143874 -0.530026
O3    O     O_2   0.301169 0.463625 0.844322 -0.543303
O4    O     O_2   0.697307 0.497497 0.155463 -0.544884
O5    O     O_3   0.164534 0.523126 0.931481 -0.592641
O6    O     O_3   0.827117 0.576381 0.065914 -0.586306
O7    O     O_3   0.152029 0.484468 0.047160 -0.528352
O8    O     O_3   0.841809 0.480829 0.955141 -0.540661
O9    O     O_R   0.683230 0.385380 0.500000 -0.626541
O10   O     O_R   0.683230 0.614620 0.500000 -0.627246
O11   O     O_R   0.316770 0.385380 0.500000 -0.627161
O12   O     O_R   0.499970 0.614690 0.416160 -0.622498
O13   O     O_R   0.500030 0.385310 0.583840 -0.621724
O14   O     O_R   0.500030 0.614690 0.583840 -0.622020
O15   O     O_R   0.499970 0.385310 0.416160 -0.620996
O16   O     O_2   0.731700 0.522387 0.856635 -0.532764
Zn1   Zn    Zn3+2 0.500000 0.653120 0.500000 0.950895
Zn2   Zn    Zn3+2 0.500000 0.346880 0.500000 0.951666

loop_
_geom_bond_atom_site_label_1
_geom_bond_atom_site_label_2
_ccdc_geom_bond_type
C25   C31   A    
C26   C32   A    
C23   C45   A    
C16   N4    A    
C27   C29   A    
C39   H18   S    
C18   O15   A    
C36   H9    S    
C42   H26   S    
C47   C49   A    
C43   H28   S    
C42   H25   S    
C40   H20   S    
C24   O4    S    
C36   C37   S    
C24   C26   A    
C12   O10   A    
C43   H27   S    
C43   H29   S    
C15   C16   A    
C34   H12   S    
C45   H23   S    
O13   Zn2   S    
C41   H24   S    
C46   H32   S    
C38   H16   S    
C22   C25   A    
C22   N1    A    
C31   C33   A    
C31   O5    S    
C8    H2    S    
C17   H8    S    
C41   H21   S    
C46   H35   S    
C19   O14   A    
C35   O8    S    
C48   C50   A    
C14   H5    S    
C22   O3    S    
C14   C17   A    
C24   N2    A    
C37   H13   S    
C3    C50   A    
C44   C46   S    
C38   H14   S    
C20   C29   A    
C20   N1    A    
C40   H19   S    
C32   C35   A    
C44   H30   S    
C12   O9    A    
C4    C6    A    
C44   H31   S    
O15   Zn2   S    
C39   C40   S    
C44   O8    S    
C36   H10   S    
C7    H40   S    
C32   O6    S    
O9    Zn2   S    
C1    C13   S    
C2    C4    A    
C18   O12   A    
C37   C38   S    
C2    C49   A    
C19   C49   S    
C23   H1    S    
C5    C23   A    
C38   H15   S    
C1    O1    A    
C2    H37   S    
C47   H34   S    
C9    C11   A    
N3    Zn1   S    
C41   H22   S    
C20   O16   S    
C40   C41   S    
O11   Zn2   S    
C33   O7    S    
C17   N3    A    
C42   C43   S    
O12   Zn1   S    
C42   O7    S    
C4    H39   S    
C45   C48   A    
C7    C9    A    
C30   C33   A    
C3    H38   S    
C39   H17   S    
C3    C5    A    
C10   C13   A    
C18   C48   S    
C15   N3    A    
O10   Zn1   S    
C37   H11   S    
C11   C12   S    
C21   O2    S    
C25   C27   A    
C21   C30   A    
C29   C35   A    
C26   C28   A    
O14   Zn1   S    
C15   H6    S    
C28   C30   A    
O1    Zn1   S    
C39   O6    S    
C8    C11   A    
N4    Zn2   S    
C36   O5    S    
C16   H7    S    
C10   H4    S    
C5    N2    S    
C50   H36   S    
C46   H33   S    
C6    C34   A    
C7    C13   A    
C9    H3    S    
C8    C10   A    
C27   C28   A    
C34   C47   A    
C14   N4    A    
C6    N1    S    
C1    O11   A    
C21   N2    A    
C19   O13   A    
