data_mof_unit_40914.cif
_audit_creation_date              2013-03-05T16:10:28-0500
_audit_creation_method            fapswitch 2.2
_symmetry_space_group_name_H-M    P1
_symmetry_Int_Tables_number       1
_space_group_crystal_system       triclinic
_cell_length_a                    10.932323
_cell_length_b                    9.798996
_cell_length_c                    14.923997
_cell_angle_alpha                 90.086147
_cell_angle_beta                  89.63325
_cell_angle_gamma                 90.293749
_cell_volume                      1598.68946633

loop_
_atom_site_label
_atom_site_type_symbol
_atom_site_description
_atom_site_fract_x
_atom_site_fract_y
_atom_site_fract_z
_atom_type_partial_charge
O1    O     O_R   0.316770 0.614620 0.499990 -0.603245
O2    O     O_R   0.683230 0.385380 0.500010 -0.588096
O3    O     O_R   0.683230 0.614620 0.500010 -0.597911
O4    O     O_R   0.316770 0.385380 0.499990 -0.579495
C1    C     C_R   0.259726 0.499475 0.502901 1.043859
C2    C     C_R   0.740456 0.500266 0.499668 1.055206
O5    O     O_R   0.499980 0.614680 0.367850 -0.619572
O6    O     O_R   0.500020 0.385320 0.632150 -0.606926
O7    O     O_R   0.500020 0.614680 0.632150 -0.614780
O8    O     O_R   0.499980 0.385320 0.367850 -0.604539
C3    C     C_R   0.500718 0.499799 0.326852 1.005690
C4    C     C_R   0.498271 0.499704 0.673155 1.000816
Zn1   Zn    Zn3+2 0.500000 0.653120 0.500000 1.082803
Zn2   Zn    Zn3+2 0.500000 0.346880 0.500000 1.095938
C5    C     C_R   0.609623 0.496687 0.813526 0.244023
C6    C     C_R   0.387457 0.486797 0.187496 0.247088
C7    C     C_R   0.497551 0.495086 0.768899 -0.282408
C8    C     C_R   0.500068 0.496306 0.231119 -0.286039
C9    C     C_R   0.386410 0.471789 0.813677 0.237694
C10   C     C_R   0.611435 0.487675 0.184995 0.235870
C11   C     C_R   0.387093 0.451572 0.906557 -0.081232
C12   C     C_R   0.610104 0.463335 0.092840 -0.083508
C13   C     C_R   0.498686 0.462760 0.952998 -0.033731
C14   C     C_R   0.497977 0.463879 0.046858 -0.034320
C15   C     C_R   0.611401 0.472022 0.906060 -0.097922
C16   C     C_R   0.385515 0.465125 0.094298 -0.097182
C17   C     C_R   0.280928 0.414739 0.954666 0.151952
C18   C     C_R   0.717085 0.430019 0.045624 0.156261
C19   C     C_R   0.276977 0.433869 0.047412 0.241459
C20   C     C_R   0.720914 0.446076 0.952813 0.244763
C21   C     C_R   0.062750 0.374866 0.492527 0.251469
C22   C     C_R   0.937617 0.622375 0.519094 0.237142
C23   C     C_R   0.936615 0.376206 0.488114 0.239359
C24   C     C_R   0.063913 0.620508 0.524915 0.224107
C25   C     C_R   0.873131 0.500231 0.500600 -0.311219
C26   C     C_R   0.127309 0.497841 0.508159 -0.313712
C27   C     C_R   0.567987 0.072623 0.560762 0.026859
C28   C     C_R   0.431766 0.927383 0.439376 0.020414
C29   C     C_R   0.431891 0.071570 0.439310 0.029479
C30   C     C_R   0.567935 0.928447 0.560785 0.034299
H1    H     H_    0.622246 0.127961 0.609233 0.177910
H2    H     H_    0.377199 0.872049 0.391082 0.174076
H3    H     H_    0.377672 0.126083 0.390844 0.183627
H4    H     H_    0.621983 0.873962 0.609352 0.183793
N1    N     N_R   0.500000 0.857200 0.500000 -0.116423
N2    N     N_R   0.500000 0.142800 0.500000 -0.116614
N3    N     N_R   0.719083 0.533398 0.765401 0.224764
O9    O     O_R   0.759959 0.456203 0.701007 -0.369322
O10   O     O_R   0.776054 0.646516 0.784514 -0.270664
N4    N     N_R   0.277115 0.509123 0.237909 0.221608
O11   O     O_R   0.241582 0.420845 0.297769 -0.351009
O12   O     O_R   0.221966 0.626154 0.232705 -0.298229
N5    N     N_R   0.273298 0.487120 0.766304 0.212075
O13   O     O_R   0.194293 0.578112 0.792252 -0.258627
O14   O     O_R   0.247148 0.407395 0.699289 -0.363567
N6    N     N_R   0.723960 0.521569 0.229461 0.218243
O15   O     O_R   0.796184 0.614916 0.196305 -0.276711
O16   O     O_R   0.756328 0.457225 0.301487 -0.368728
I1    I     I_    0.146733 0.281413 0.897669 0.106911
I2    I     I_    0.848006 0.298361 0.105634 0.110712
N7    N     N_R   0.164509 0.408931 0.093525 0.238848
O17   O     O_R   0.077739 0.499003 0.090027 -0.241674
O18   O     O_R   0.148224 0.295843 0.137702 -0.288201
N8    N     N_R   0.833194 0.420092 0.906578 0.242282
O19   O     O_R   0.926841 0.499984 0.919348 -0.243481
O20   O     O_R   0.844201 0.312040 0.856455 -0.295828
N9    N     N_R   0.123615 0.246560 0.480572 0.254215
O21   O     O_R   0.159439 0.178608 0.550423 -0.259278
O22   O     O_R   0.122991 0.187082 0.402577 -0.265287
N10   N     N_R   0.876119 0.749035 0.535511 0.247428
O23   O     O_R   0.846499 0.826379 0.468330 -0.270464
O24   O     O_R   0.870205 0.797740 0.616541 -0.267618
N11   N     N_R   0.874602 0.249073 0.471905 0.257083
O25   O     O_R   0.837470 0.218876 0.391615 -0.256725
O26   O     O_R   0.871935 0.155798 0.533859 -0.272725
N12   N     N_R   0.126289 0.744087 0.550037 0.256729
O27   O     O_R   0.180837 0.752319 0.627091 -0.270319
O28   O     O_R   0.120702 0.851528 0.499125 -0.259521

loop_
_geom_bond_atom_site_label_1
_geom_bond_atom_site_label_2
_geom_bond_distance
_ccdc_geom_bond_type
C3    C8    1.429135 S    
C20   N8    1.428112 S    
C17   C19   1.396926 A    
N11   O25   1.300798 A    
C5    N3    1.436165 S    
C10   N6    1.438601 S    
O3    C2    1.286155 A    
N3    O10   1.300829 A    
N5    O13   1.301356 A    
C2    C25   1.450605 S    
O5    C3    1.280479 A    
O1    C1    1.287033 A    
N12   O28   1.301203 A    
C9    C11   1.400599 A    
C6    N4    1.435156 S    
C28   H2    1.081822 S    
C27   C30   1.412774 A    
C28   C29   1.412882 A    
C5    C15   1.402594 A    
C1    C26   1.449251 S    
N6    O15   1.301511 A    
N7    O18   1.301166 A    
O7    Zn1   2.008411 S    
C28   N1    1.365198 A    
C7    C9    1.400800 A    
C4    C7    1.429635 S    
N4    O12   1.301003 A    
C13   C14   1.400774 A    
C21   C23   1.381076 A    
N10   O23   1.301323 A    
C8    C10   1.397659 A    
O3    Zn1   2.040246 S    
C9    N5    1.436995 S    
C18   I2    2.133968 S    
C11   C17   1.406635 A    
C12   C18   1.401304 A    
C27   H1    1.081763 S    
N11   O26   1.301178 A    
O2    C2    1.285120 A    
N5    O14   1.300504 A    
C6    C16   1.406961 A    
C30   N1    1.365041 A    
C19   N7    1.425360 S    
N9    O21   1.301324 A    
C22   C25   1.413698 A    
N12   O27   1.300967 A    
Zn2   N2    1.999779 S    
O8    Zn2   2.008412 S    
C29   H3    1.081552 S    
N9    O22   1.301016 A    
N8    O20   1.301094 A    
C21   N9    1.435867 S    
N3    O9    1.300473 A    
O5    Zn1   2.007299 S    
O6    C4    1.276388 A    
N4    O11   1.300643 A    
C29   N2    1.365048 A    
C23   N11   1.436184 S    
C10   C12   1.395650 A    
C11   C13   1.410644 A    
C12   C14   1.408685 A    
O1    Zn1   2.036446 S    
C15   C20   1.413933 A    
C5    C7    1.398275 A    
O6    Zn2   2.007298 S    
C14   C16   1.414919 A    
O4    C1    1.283514 A    
C22   N10   1.434576 S    
N8    O19   1.300446 A    
C18   C20   1.394591 A    
C17   I1    2.139084 S    
Zn1   N1    1.999779 S    
C23   C25   1.414113 A    
N6    O16   1.299002 A    
C24   C26   1.411793 A    
C13   C15   1.416097 A    
O4    Zn2   2.040248 S    
N7    O17   1.300364 A    
O2    Zn2   2.036444 S    
O7    C4    1.282926 A    
O8    C3    1.278564 A    
C30   H4    1.081391 S    
C16   C19   1.413378 A    
C6    C8    1.398939 A    
C24   N12   1.437150 S    
C21   C26   1.413216 A    
N10   O24   1.300743 A    
C27   N2    1.365050 A    
C22   C24   1.384209 A    
