data_mof_unit_21643.cif
_audit_creation_date              2013-03-05T16:14:47-0500
_audit_creation_method            fapswitch 2.2
_symmetry_space_group_name_H-M    P1
_symmetry_Int_Tables_number       1
_space_group_crystal_system       triclinic
_cell_length_a                    9.397257
_cell_length_b                    10.627471
_cell_length_c                    17.427999
_cell_angle_alpha                 89.327545
_cell_angle_beta                  88.052405
_cell_angle_gamma                 89.16403
_cell_volume                      1739.2175301

loop_
_atom_site_label
_atom_site_type_symbol
_atom_site_description
_atom_site_fract_x
_atom_site_fract_y
_atom_site_fract_z
_atom_type_partial_charge
O1    O     O_R   0.379130 0.683150 0.499960 -0.556787
O2    O     O_R   0.620870 0.316850 0.500040 -0.556789
O3    O     O_R   0.620910 0.683140 0.500000 -0.607347
O4    O     O_R   0.379090 0.316860 0.500000 -0.607344
C1    C     C_R   0.499122 0.740508 0.497996 0.822393
C2    C     C_R   0.500878 0.259491 0.502003 0.822385
O5    O     O_R   0.365090 0.500030 0.613580 -0.602965
O6    O     O_R   0.634910 0.499970 0.386420 -0.602971
O7    O     O_R   0.606870 0.500020 0.613610 -0.534901
O8    O     O_R   0.393130 0.499980 0.386390 -0.534899
C3    C     C_R   0.483675 0.499419 0.649882 0.841005
C4    C     C_R   0.516325 0.500582 0.350118 0.841011
Cu1   Cu    Cu3+1 0.356850 0.500010 0.499980 0.962811
Cu2   Cu    Cu3+1 0.643150 0.499990 0.500020 0.962805
C5    C     C_R   0.477633 0.503136 0.734287 -0.177510
C6    C     C_R   0.522371 0.496873 0.265712 -0.177471
C7    C     C_R   0.601664 0.488538 0.777154 0.442474
C8    C     C_R   0.398342 0.511462 0.222842 0.442516
C9    C     C_R   0.591910 0.507216 0.856238 -0.294682
C10   C     C_R   0.408113 0.492801 0.143756 -0.294753
C11   C     C_R   0.459962 0.522886 0.894617 -0.015969
C12   C     C_R   0.540069 0.477155 0.105381 -0.015943
C13   C     C_R   0.334184 0.529964 0.852749 0.362926
C14   C     C_R   0.665840 0.470086 0.147253 0.362932
C15   C     C_R   0.345187 0.522934 0.772650 -0.336167
C16   C     C_R   0.654825 0.477100 0.227352 -0.336182
C17   C     C_2   0.457420 0.535686 0.978207 -0.109495
C18   C     C_2   0.542622 0.464364 0.021790 -0.109483
H1    H     H_    0.750961 0.469151 0.259746 0.206031
H2    H     H_    0.249048 0.530890 0.740259 0.206031
H3    H     H_    0.615857 0.395896 0.995793 0.174709
H4    H     H_    0.384186 0.604154 0.004206 0.174720
H5    H     H_    0.311417 0.489811 0.111881 0.200308
H6    H     H_    0.688616 0.510193 0.888106 0.200340
C19   C     C_3   0.380960 0.965542 0.468824 0.547947
C20   C     C_3   0.619040 0.034456 0.531173 0.547944
C21   C     C_3   0.494711 0.046879 0.427584 -0.301340
C22   C     C_3   0.505288 0.953120 0.572413 -0.301343
H7    H     H_    0.488800 0.087911 0.368878 0.154101
H8    H     H_    0.511199 0.912088 0.631119 0.154103
C23   C     C_3   0.502477 0.122831 0.502146 -0.090108
C24   C     C_3   0.497523 0.877168 0.497851 -0.090099
C25   C     C_3   0.386506 0.042549 0.542910 -0.305926
C26   C     C_3   0.613493 0.957450 0.457087 -0.305925
H9    H     H_    0.294473 0.079925 0.577654 0.148891
H10   H     H_    0.705525 0.920073 0.422343 0.148889
C27   C     C_3   0.952630 0.391065 0.480813 -0.040632
C28   C     C_3   0.047370 0.608935 0.519187 -0.040619
C29   C     C_3   0.049372 0.417212 0.548007 -0.045494
C30   C     C_3   0.950628 0.582789 0.451993 -0.045491
H11   H     H_    0.097888 0.346465 0.586856 0.117440
H12   H     H_    0.902114 0.653540 0.413146 0.117439
H13   H     H_    0.908172 0.299218 0.464664 0.141732
H14   H     H_    0.091828 0.700781 0.535336 0.141731
N1    N     N_3   0.141720 0.500030 0.499940 -0.157821
N2    N     N_3   0.858280 0.499970 0.500060 -0.157823
C31   C     C_3   0.054980 0.473869 0.432659 -0.037881
C32   C     C_3   0.945020 0.526131 0.567342 -0.037877
H15   H     H_    0.105902 0.449420 0.376394 0.182201
H16   H     H_    0.894099 0.550577 0.623607 0.182201
O9    O     O_3   0.732751 0.463474 0.741047 -0.570246
C33   C     C_3   0.794850 0.353527 0.773183 0.102471
H17   H     H_    0.717717 0.274657 0.776782 0.138956
H18   H     H_    0.835202 0.372052 0.831134 0.183662
C34   C     C_3   0.921496 0.312034 0.723124 -0.777920
H19   H     H_    0.000488 0.388691 0.718471 0.248323
H20   H     H_    0.973346 0.228103 0.749152 0.208791
H21   H     H_    0.884962 0.287975 0.665270 0.262685
O10   O     O_3   0.267247 0.536504 0.258949 -0.570259
C35   C     C_3   0.205055 0.646381 0.226774 0.102484
H22   H     H_    0.164602 0.627734 0.168857 0.183803
H23   H     H_    0.282156 0.725276 0.223080 0.138926
C36   C     C_3   0.078479 0.687923 0.276870 -0.777951
H24   H     H_    0.115091 0.712027 0.334703 0.262732
H25   H     H_    0.026602 0.771838 0.250836 0.208802
H26   H     H_    0.999483 0.611273 0.281576 0.248271
N3    N     N_R   0.195490 0.542115 0.890049 0.122026
O11   O     O_R   0.167844 0.486029 0.955532 -0.329091
O12   O     O_R   0.091014 0.595340 0.854070 -0.353084
N4    N     N_R   0.804542 0.457960 0.109958 0.122016
O13   O     O_R   0.832183 0.514050 0.044475 -0.329078
O14   O     O_R   0.909025 0.404753 0.145938 -0.353139
O15   O     O_3   0.257235 0.922849 0.434162 -0.581213
C37   C     C_3   0.163480 0.026010 0.422785 0.062399
H27   H     H_    0.218250 0.107090 0.394107 0.152044
H28   H     H_    0.115681 0.057119 0.478644 0.147630
C38   C     C_3   0.043974 0.986811 0.371973 -0.806546
H29   H     H_    0.991805 0.901154 0.395843 0.231239
H30   H     H_    0.963290 0.063922 0.368569 0.212939
H31   H     H_    0.087614 0.967259 0.313287 0.254931
O16   O     O_3   0.742768 0.077143 0.565836 -0.581215
C39   C     C_3   0.836523 0.973979 0.577203 0.062393
H32   H     H_    0.884319 0.942883 0.521340 0.147632
H33   H     H_    0.781755 0.892892 0.605875 0.152046
C40   C     C_3   0.956033 0.013164 0.628016 -0.806543
H34   H     H_    0.912397 0.032698 0.686705 0.254927
H35   H     H_    0.036718 0.936052 0.631411 0.212939
H36   H     H_    0.008199 0.098827 0.604153 0.231241

loop_
_geom_bond_atom_site_label_1
_geom_bond_atom_site_label_2
_geom_bond_distance
_ccdc_geom_bond_type
C28   N1    1.482267 S    
Cu2   N2    2.021653 S    
C38   H29   1.110110 S    
C36   H25   1.109808 S    
C36   H24   1.109989 S    
C40   H34   1.109690 S    
C37   C38   1.519495 S    
C1    C24   1.452177 S    
C40   H36   1.110111 S    
C27   C29   1.537015 S    
N3    O11   1.301380 A    
C28   H14   1.110344 S    
O1    C1    1.288863 A    
C9    C11   1.397435 A    
C14   C16   1.399066 A    
C22   C24   1.542160 S    
O10   C35   1.416536 S    
C5    C15   1.406939 A    
C32   H16   1.108376 S    
O4    Cu1   1.954573 S    
C19   C24   1.527850 S    
C33   H18   1.111508 S    
C7    O9    1.387834 S    
C3    C5    1.471148 S    
C14   N4    1.441335 S    
C4    C6    1.471154 S    
C29   H11   1.109327 S    
C2    C23   1.452180 S    
C30   H12   1.109327 S    
C35   H22   1.111565 S    
C19   C25   1.539550 S    
C27   H13   1.110343 S    
C8    O10   1.387860 S    
C28   C30   1.537015 S    
C11   C17   1.464087 S    
C12   C18   1.464085 S    
Cu1   Cu2   2.690454 S    
C23   C25   1.542927 S    
C20   C23   1.527853 S    
O2    C2    1.288864 A    
C24   C26   1.542921 S    
C26   H10   1.110152 S    
N3    O12   1.301669 A    
C11   C13   1.410624 A    
C6    C16   1.406946 A    
C37   H27   1.114696 S    
O4    C2    1.290196 A    
O16   C39   1.412829 S    
C19   O15   1.411451 S    
C34   H20   1.109800 S    
C29   N1    1.478203 S    
C9    H6    1.082080 S    
C39   C40   1.519490 S    
C30   N2    1.478206 S    
C29   C32   1.539040 S    
O5    C3    1.299906 A    
O7    Cu2   1.997341 S    
C33   H17   1.115918 S    
C27   C31   1.535024 S    
O7    C3    1.300111 A    
O15   C37   1.412825 S    
O6    C4    1.299906 A    
C34   H21   1.109953 S    
C35   C36   1.514968 S    
C39   H33   1.114696 S    
C13   N3    1.441331 S    
C25   H9    1.110153 S    
O3    Cu2   1.954572 S    
O8    C4    1.300114 A    
C10   H5    1.082071 S    
C20   O16   1.411453 S    
N4    O14   1.301659 A    
C10   C12   1.397436 A    
N1    C31   1.481853 S    
C36   H26   1.110550 S    
C12   C14   1.410613 A    
C20   C26   1.539551 S    
O1    Cu1   1.960574 S    
C15   H2    1.083216 S    
C5    C7    1.411346 A    
O6    Cu2   1.983965 S    
C33   C34   1.514966 S    
C19   C21   1.538368 S    
C17   H4    1.086419 S    
C30   C31   1.539042 S    
C18   H3    1.086417 S    
C37   H28   1.110087 S    
N4    O13   1.301382 A    
O3    C1    1.290197 A    
O8    Cu1   1.997339 S    
C40   H35   1.110749 S    
C28   C32   1.535023 S    
C21   C26   1.552476 S    
C38   H30   1.110750 S    
C22   C25   1.552477 S    
C21   H7    1.110283 S    
C22   H8    1.110281 S    
C20   C22   1.538368 S    
C39   H32   1.110086 S    
C7    C9    1.394542 A    
N2    C32   1.481856 S    
C8    C10   1.394556 A    
C13   C15   1.399071 A    
C21   C23   1.542165 S    
O9    C33   1.416502 S    
O2    Cu2   1.960573 S    
C31   H15   1.108374 S    
O5    Cu1   1.983965 S    
C16   H1    1.083212 S    
C6    C8    1.411358 A    
C34   H19   1.110533 S    
C38   H31   1.109692 S    
C17   C18   1.342628 D    
C35   H23   1.115973 S    
C27   N2    1.482269 S    
Cu1   N1    2.021653 S    
