data_mof_unit_13949.cif
_audit_creation_date              2012-12-10T16:51:16-0500
_audit_creation_method            fapswitch 2.2
_symmetry_space_group_name_H-M    P1
_symmetry_Int_Tables_number       1
_space_group_crystal_system       triclinic
_cell_length_a                    27.764898
_cell_length_b                    8.604991
_cell_length_c                    7.452444
_cell_angle_alpha                 102.948181
_cell_angle_beta                  95.052907
_cell_angle_gamma                 92.904434
_cell_volume                      1723.94518606

loop_
_atom_site_label
_atom_site_type_symbol
_atom_type_description
_atom_site_fract_x
_atom_site_fract_y
_atom_site_fract_z
_atom_type_partial_charge
C1    C     C_R   0.492006 0.199590 0.453678 0.864239
C2    C     C_R   0.493921 0.797527 0.546329 0.828769
C3    C     C_R   0.101946 0.488483 0.504813 -0.045290
C4    C     C_R   0.898135 0.505832 0.494808 -0.045079
C5    C     C_R   0.123130 0.340855 0.464019 -0.019884
C6    C     C_R   0.876961 0.653480 0.535522 -0.020411
C7    C     C_R   0.093823 0.199350 0.436476 -0.103850
C8    C     C_R   0.906271 0.794966 0.562978 -0.103558
C9    C     C_R   0.132124 0.630654 0.551476 -0.050953
C10   C     C_R   0.867948 0.363677 0.448229 -0.051743
C11   C     C_R   0.354429 0.489754 0.501393 -0.032492
C12   C     C_R   0.645635 0.507634 0.498412 -0.045205
C13   C     C_R   0.969685 0.350933 0.440656 0.006832
C14   C     C_R   0.030392 0.643345 0.558963 0.006862
C15   C     C_R   0.979064 0.646307 0.544267 0.065723
C16   C     C_R   0.021017 0.347972 0.455297 0.065741
C17   C     C_R   0.949256 0.500631 0.495939 0.050038
C18   C     C_R   0.050824 0.493656 0.503665 0.049902
C19   C     C_R   0.937175 0.212437 0.365955 0.108909
C20   C     C_R   0.062893 0.781849 0.633724 0.108943
C21   C     C_R   0.887835 0.218733 0.384081 -0.153366
C22   C     C_R   0.112232 0.775580 0.615653 -0.153895
C23   C     C_R   0.407440 0.497339 0.500690 0.766390
C24   C     C_R   0.592569 0.501923 0.499216 0.819311
C25   C     C_R   0.043988 0.203820 0.439316 -0.120739
C26   C     C_R   0.956103 0.790464 0.560152 -0.120715
C27   C     C_2   0.476033 0.030872 0.426819 -0.042991
C28   C     C_2   0.479370 0.961067 0.572002 -0.084506
C29   C     C_R   0.173631 0.338841 0.462137 0.546520
C30   C     C_R   0.826466 0.655539 0.537444 0.547312
C31   C     C_R   0.182362 0.623604 0.546689 0.557274
C32   C     C_R   0.817708 0.370780 0.453046 0.558212
C33   C     C_R   0.274106 0.453740 0.333688 -0.098782
C34   C     C_R   0.725947 0.537933 0.665836 -0.096582
C35   C     C_R   0.324341 0.460644 0.333566 -0.216693
C36   C     C_R   0.675709 0.532356 0.665931 -0.205865
C37   C     C_R   0.333353 0.509770 0.669021 -0.224217
C38   C     C_R   0.666792 0.489922 0.331090 -0.212014
C39   C     C_R   0.283075 0.503320 0.668681 -0.100167
C40   C     C_R   0.717079 0.495011 0.331432 -0.096388
C41   C     C_R   0.253407 0.475976 0.501130 0.359542
C42   C     C_R   0.746690 0.518591 0.498698 0.358108
Cu1   Cu    Cu3+1 0.505380 0.517380 0.684380 0.937729
Cu2   Cu    Cu3+1 0.494620 0.482620 0.315620 0.926438
H1    H     H_    0.355628 0.531617 0.800230 0.155734
H2    H     H_    0.644570 0.471193 0.200095 0.157456
H3    H     H_    0.459238 0.386668 0.950426 0.228337
H4    H     H_    0.539766 0.617766 0.050709 0.227543
H5    H     H_    0.267101 0.521153 0.798556 0.135754
H6    H     H_    0.733093 0.479323 0.201767 0.135460
H7    H     H_    0.109382 0.084571 0.418452 0.193727
H8    H     H_    0.890718 0.909751 0.580937 0.193757
H9    H     H_    0.660490 0.546833 0.797091 0.157973
H10   H     H_    0.339546 0.443845 0.202190 0.155058
H11   H     H_    0.748778 0.555160 0.795268 0.139918
H12   H     H_    0.251235 0.433526 0.204011 0.140434
H13   H     H_    0.864276 0.110700 0.332205 0.211587
H14   H     H_    0.135785 0.883620 0.667580 0.211350
H15   H     H_    0.024293 0.093274 0.439375 0.172750
H16   H     H_    0.975805 0.900986 0.560038 0.172739
N1    N     N_R   0.201954 0.479208 0.501741 -0.474346
N2    N     N_R   0.798134 0.515200 0.497983 -0.474886
N3    N     N_2   0.486510 0.456430 0.038510 -0.230570
N4    N     N_2   0.513490 0.543570 0.961490 -0.221183
O1    O     O_R   0.503500 0.286120 0.619780 -0.584617
O2    O     O_R   0.496500 0.713880 0.380220 -0.598961
O3    O     O_R   0.494410 0.256780 0.308360 -0.579211
O4    O     O_R   0.505590 0.743220 0.691640 -0.583837
O5    O     O_R   0.434810 0.514700 0.655690 -0.597599
O6    O     O_R   0.565190 0.485300 0.344310 -0.581693
O7    O     O_R   0.425720 0.485350 0.344280 -0.600743
O8    O     O_R   0.574280 0.514650 0.655720 -0.576470
O9    O     O_2   0.194297 0.198193 0.422531 -0.511571
O10   O     O_2   0.805812 0.796211 0.577039 -0.508631
O11   O     O_2   0.788542 0.234561 0.412179 -0.509625
O12   O     O_2   0.211508 0.759874 0.587509 -0.514071
I1    I     I_    0.951149 0.001854 0.168438 -0.361113
I2    I     I_    0.048896 0.992428 0.831208 -0.361732
C43   C     C_3   0.449033 0.945552 0.240576 -0.380465
C44   C     C_3   0.402968 0.026302 0.196742 -0.843172
H17   H     H_    0.378591 0.029354 0.307710 0.260434
H18   H     H_    0.411192 0.150031 0.182803 0.265352
H19   H     H_    0.383393 0.956845 0.064438 0.250742
H20   H     H_    0.473881 0.942376 0.131846 0.204529
H21   H     H_    0.435786 0.821197 0.236437 0.242856
C45   C     C_3   0.461049 0.038264 0.755734 -0.383180
C46   C     C_3   0.410521 0.098797 0.728584 -0.811419
H22   H     H_    0.410779 0.192676 0.648252 0.251172
H23   H     H_    0.384279 0.998162 0.654995 0.260302
H24   H     H_    0.397915 0.151462 0.864469 0.230262
H25   H     H_    0.457099 0.948465 0.839631 0.216716
H26   H     H_    0.487338 0.133775 0.839010 0.229744

loop_
_geom_bond_atom_site_label_1
_geom_bond_atom_site_label_2
_ccdc_geom_bond_type
C46   H22   S    
Cu1   O8    S    
C8    C26   A    
C31   N1    A    
Cu2   O2    S    
C34   C42   A    
C41   N1    S    
C32   O11   S    
C24   O6    A    
C39   C41   A    
C3    C18   A    
C19   C21   A    
C27   C43   S    
C45   H25   S    
H3    N3    S    
C43   H20   S    
C30   O10   S    
C9    C22   A    
H4    N4    S    
C29   O9    S    
Cu2   O7    S    
C19   I1    S    
C11   C37   A    
C14   C18   A    
C36   H9    S    
C33   C35   A    
Cu1   O4    S    
C1    O1    A    
Cu2   O6    S    
C12   C36   A    
C42   N2    S    
C33   H12   S    
C40   C42   A    
C34   H11   S    
Cu2   N3    S    
C35   H10   S    
C44   H19   S    
Cu1   N4    S    
C5    C29   A    
C10   C21   A    
C29   N1    A    
C13   C19   A    
C14   C20   A    
C44   H18   S    
C5    C7    A    
C45   C46   S    
C15   C26   A    
C6    C8    A    
C3    C5    A    
C23   O5    A    
C43   C44   S    
Cu1   Cu2   S    
C21   H13   S    
C3    C9    A    
C23   O7    A    
Cu1   O1    S    
C4    C17   A    
C4    C6    A    
C39   H5    S    
C20   C22   A    
C30   N2    A    
C28   C45   S    
C13   C16   A    
C37   H1    S    
C43   H21   S    
C24   O8    A    
C16   C25   A    
C15   C17   A    
C8    H8    S    
C6    C30   A    
C4    C10   A    
C44   H17   S    
C2    O2    A    
C22   H14   S    
C20   I2    S    
C12   C24   S    
C2    O4    A    
C7    C25   A    
C13   C17   A    
C33   C41   A    
C11   C35   A    
C32   N2    A    
C37   C39   A    
C45   H26   S    
C38   C40   A    
C31   O12   S    
C40   H6    S    
C11   C23   S    
C1    O3    A    
C34   C36   A    
C12   C38   A    
C38   H2    S    
C9    C31   A    
C7    H7    S    
N3    N4    D    
C10   C32   A    
C16   C18   A    
C46   H24   S    
C27   C28   D    
C1    C27   S    
C46   H23   S    
C14   C15   A    
Cu2   O3    S    
C2    C28   S    
C25   H15   S    
Cu1   O5    S    
C26   H16   S    
