data_mof_unit_61894.cif
_audit_creation_date              2012-10-26T17:24:40-0400
_audit_creation_method            fapswitch 2.2
_symmetry_space_group_name_H-M    P1
_symmetry_Int_Tables_number       1
_space_group_crystal_system       triclinic
_cell_length_a                    42.630009
_cell_length_b                    29.423839
_cell_length_c                    29.41937
_cell_angle_alpha                 90.001791
_cell_angle_beta                  133.864396
_cell_angle_gamma                 89.900896
_cell_volume                      26605.4890049

loop_
_atom_site_label
_atom_site_type_symbol
_atom_type_description
_atom_site_fract_x
_atom_site_fract_y
_atom_site_fract_z
_atom_type_partial_charge
C1    C     C_R   0.499986 0.585484 0.500005 0.552899
C2    C     C_1   0.835375 0.001686 0.336716 0.026192
C3    C     C_3   0.760159 0.033093 0.234572 0.173779
C4    C     C_1   0.373501 0.501494 0.374245 -0.003811
C5    C     C_1   0.873500 0.001481 0.374234 -0.003784
C6    C     C_1   0.120351 0.499612 0.121002 0.014932
C7    C     C_1   0.620351 0.999616 0.121070 0.014942
C8    C     C_3   0.261685 0.459942 0.247809 0.232031
C9    C     C_3   0.761679 0.959434 0.249237 0.232023
C10   C     C_3   0.289552 0.500749 0.291500 -0.003651
C11   C     C_3   0.789552 0.000750 0.291528 -0.003678
C12   C     C_3   0.234628 0.422236 0.329378 0.018276
C13   C     C_1   0.158507 0.499194 0.159884 0.058543
C14   C     C_3   0.220471 0.376538 0.334764 -0.265752
C15   C     C_3   0.241719 0.367610 0.402131 -0.481362
C16   C     C_3   0.246416 0.479313 0.129992 0.032772
C17   C     C_3   0.227053 0.485442 0.063121 -0.266565
C18   C     C_3   0.260709 0.475820 0.059987 -0.484144
C19   C     C_3   0.734659 0.925442 0.332068 0.018278
C20   C     C_3   0.720496 0.880444 0.339003 -0.265752
C21   C     C_3   0.741760 0.873084 0.406654 -0.481363
C22   C     C_3   0.746383 0.975320 0.130795 0.032759
C23   C     C_3   0.726995 0.979802 0.063727 -0.266572
C24   C     C_1   0.658506 0.999208 0.159990 0.058546
C25   C     C_3   0.760638 0.968928 0.060912 -0.484148
C26   C     C_3   0.244619 0.612991 0.287244 0.025572
C27   C     C_3   0.225036 0.651361 0.296008 -0.266903
C28   C     C_3   0.258061 0.689095 0.337554 -0.481691
C29   C     C_3   0.744636 0.114323 0.283461 0.025560
C30   C     C_3   0.725052 0.153664 0.290866 -0.266906
C31   C     C_3   0.758081 0.191661 0.331107 -0.481682
C32   C     C_3   0.300092 0.393268 0.300033 0.022401
C33   C     C_3   0.333411 0.362789 0.309812 -0.264980
C34   C     C_3   0.358843 0.334133 0.369527 -0.482637
C35   C     C_1   0.499996 0.636532 0.499987 -0.038525
C36   C     C_3   0.800088 0.893253 0.303677 0.022354
C37   C     C_3   0.833347 0.861948 0.314400 -0.264909
C38   C     C_3   0.858797 0.834445 0.375051 -0.482724
C39   C     C_1   0.499663 0.363473 0.499657 -0.046617
C40   C     C_1   0.999995 0.136532 0.499986 -0.038554
C41   C     C_1   0.999665 0.863473 0.499663 -0.046562
C42   C     C_1   0.500012 0.678854 0.499999 -0.033078
C43   C     C_1   0.499545 0.321153 0.499537 -0.041438
C44   C     C_1   0.000011 0.178854 0.499998 -0.033124
C45   C     C_R   0.499854 0.414517 0.499874 0.548072
C46   C     C_1   0.999548 0.821153 0.499547 -0.041431
C47   C     C_1   0.500038 0.729019 0.500030 0.003548
C48   C     C_1   0.499504 0.270990 0.499501 -0.002445
C49   C     C_1   0.000037 0.229019 0.500029 0.003506
C50   C     C_1   0.999507 0.770990 0.499513 -0.002526
C51   C     C_1   0.500060 0.771341 0.500061 0.003080
C52   C     C_1   0.499546 0.228668 0.499551 0.000164
C53   C     C_1   0.000060 0.271341 0.500060 0.003054
C54   C     C_1   0.999549 0.728668 0.499562 0.000132
C55   C     C_1   0.500079 0.821507 0.500090 -0.033966
C56   C     C_R   0.999986 0.085484 0.500005 0.552896
C57   C     C_1   0.499657 0.178500 0.499671 -0.035222
C58   C     C_1   0.000078 0.321507 0.500089 -0.033976
C59   C     C_1   0.999659 0.678500 0.499679 -0.035222
C60   C     C_1   0.500071 0.863830 0.500091 -0.038863
C61   C     C_1   0.499771 0.136176 0.499792 -0.039560
C62   C     C_1   0.000071 0.363830 0.500090 -0.038863
C63   C     C_1   0.999772 0.636175 0.499796 -0.039564
C64   C     C_R   0.418342 0.500767 0.418564 0.563929
C65   C     C_R   0.918342 0.000758 0.418562 0.563918
C66   C     C_1   0.635092 0.500028 0.634701 -0.043731
C67   C     C_R   0.999855 0.914517 0.499875 0.548044
C68   C     C_1   0.135091 0.000028 0.634701 -0.043730
C69   C     C_1   0.676568 0.500053 0.676162 -0.028848
C70   C     C_1   0.176568 0.000053 0.676162 -0.028847
C71   C     C_1   0.726140 0.500083 0.725811 0.003089
C72   C     C_1   0.226140 0.000083 0.725811 0.003089
C73   C     C_1   0.767618 0.500106 0.767380 0.003062
C74   C     C_1   0.267618 0.000106 0.767380 0.003061
C75   C     C_1   0.817191 0.500124 0.817072 -0.028915
C76   C     C_1   0.317191 0.000124 0.817072 -0.028914
C77   C     C_1   0.858668 0.500118 0.858648 -0.043789
C78   C     C_3   0.204399 0.499068 0.206414 0.014405
C79   C     C_1   0.358668 0.000118 0.858648 -0.043789
C80   C     C_R   0.994849 0.500000 0.080455 0.551149
C81   C     C_R   0.494849 1.000000 0.080455 0.551137
C82   C     C_R   0.075459 0.499921 0.075341 0.566629
C83   C     C_R   0.575459 0.999921 0.075357 0.566607
C84   C     C_R   0.993232 0.499999 0.907798 0.551890
C85   C     C_R   0.493232 0.999999 0.907798 0.551869
C86   C     C_R   0.909160 0.500047 0.909245 0.542869
C87   C     C_R   0.409160 0.000047 0.909245 0.542866
C88   C     C_R   0.584601 0.500002 0.584470 0.543931
C89   C     C_3   0.704398 0.999092 0.206528 0.014399
C90   C     C_R   0.084601 0.000002 0.584470 0.543928
C91   C     C_R   0.499101 0.999999 0.414051 0.547703
C92   C     C_R   0.999100 0.499999 0.414051 0.547710
C93   C     C_R   0.500001 0.914878 0.500029 0.547637
C94   C     C_R   0.499905 0.085124 0.499933 0.547439
C95   C     C_R   0.000001 0.414878 0.500029 0.547643
C96   C     C_R   0.999905 0.585124 0.499934 0.547434
C97   C     C_R   0.500746 1.000000 0.585878 0.547388
C98   C     C_R   0.000746 0.500000 0.585878 0.547383
C99   C     C_1   0.995611 0.499999 0.132255 -0.040088
C100  C     C_3   0.232129 0.539612 0.250295 0.221242
C101  C     C_1   0.495612 0.999998 0.132255 -0.040089
C102  C     C_1   0.996255 0.499997 0.175215 -0.034556
C103  C     C_1   0.496256 0.999997 0.175216 -0.034576
C104  C     C_1   0.997010 0.499997 0.226126 0.002647
C105  C     C_1   0.497011 0.999996 0.226127 0.002618
C106  C     C_1   0.497624 0.999996 0.269058 0.002565
C107  C     C_1   0.997624 0.499997 0.269057 0.002593
C108  C     C_1   0.498298 0.999997 0.319888 -0.034243
C109  C     C_1   0.998297 0.499997 0.319888 -0.034219
C110  C     C_1   0.498768 0.999998 0.362678 -0.038984
C111  C     C_3   0.732134 0.040157 0.249017 0.221233
C112  C     C_1   0.998768 0.499998 0.362677 -0.038966
C113  C     C_1   0.994241 0.499996 0.857744 -0.038358
C114  C     C_1   0.494241 0.999996 0.857744 -0.038402
C115  C     C_3   0.233158 0.465390 0.261922 0.219056
C116  C     C_3   0.232787 0.493486 0.192235 0.245381
C117  C     C_3   0.733160 0.966335 0.263159 0.219094
C118  C     C_3   0.732776 0.992059 0.192545 0.245399
C119  C     C_1   0.995402 0.499995 0.816585 -0.033198
C120  C     C_1   0.495402 0.999995 0.816585 -0.033227
C121  C     C_1   0.996931 0.499995 0.767951 0.002988
C122  C     C_1   0.335376 0.501697 0.336727 0.026206
C123  C     C_1   0.496930 0.999995 0.767950 0.002980
C124  C     C_1   0.498216 0.999995 0.726920 0.002479
C125  C     C_1   0.998216 0.499996 0.726921 0.002477
C126  C     C_1   0.499607 0.999997 0.678143 -0.034433
C127  C     C_1   0.999607 0.499997 0.678143 -0.034440
C128  C     C_1   0.500474 0.999998 0.636681 -0.039441
C129  C     C_1   0.000474 0.499998 0.636681 -0.039449
C130  C     C_3   0.261011 0.506089 0.305807 0.149573
C131  C     C_3   0.260164 0.534004 0.235654 0.173802
C132  C     C_3   0.761020 0.007551 0.305647 0.149591
Cu1   Cu    Cu3+1 0.500480 0.500000 0.542990 0.956960
Cu2   Cu    Cu3+1 0.958020 0.500000 0.458050 0.949518
Cu3   Cu    Cu3+1 0.541920 0.000000 0.541950 0.949818
Cu4   Cu    Cu3+1 0.041920 0.500000 0.541950 0.949844
Cu5   Cu    Cu3+1 0.000480 0.000000 0.542990 0.956590
Cu6   Cu    Cu3+1 0.499450 0.500000 0.457010 0.952622
Cu7   Cu    Cu3+1 0.999450 0.000000 0.457010 0.953073
Cu8   Cu    Cu3+1 0.993800 0.542460 0.993900 0.959578
Cu9   Cu    Cu3+1 0.993800 0.457540 0.993900 0.963497
Cu10  Cu    Cu3+1 0.493800 0.042460 0.993900 0.959565
Cu11  Cu    Cu3+1 0.493800 0.957540 0.993900 0.963590
Cu12  Cu    Cu3+1 0.458020 0.000000 0.458050 0.949544
H1    H     H_    0.253888 0.525178 0.360547 0.330734
H2    H     H_    0.230709 0.334261 0.404411 0.153954
H3    H     H_    0.232386 0.394504 0.417430 0.155971
H4    H     H_    0.258078 0.443688 0.145055 0.190315
H5    H     H_    0.274506 0.502926 0.161760 0.169455
H6    H     H_    0.199103 0.461922 0.030709 0.183867
H7    H     H_    0.214975 0.520884 0.047201 0.179724
H8    H     H_    0.288601 0.499555 0.091152 0.157591
H9    H     H_    0.245607 0.480538 0.010857 0.156545
H10   H     H_    0.272724 0.440284 0.074743 0.153734
H11   H     H_    0.724476 0.953596 0.344748 0.162248
H12   H     H_    0.249739 0.582484 0.183142 0.337429
H13   H     H_    0.770763 0.925069 0.364897 0.150765
H14   H     H_    0.684541 0.880304 0.307017 0.183755
H15   H     H_    0.729739 0.851993 0.325341 0.165770
H16   H     H_    0.777743 0.872157 0.439308 0.151743
H17   H     H_    0.730744 0.840214 0.410065 0.153953
H18   H     H_    0.732449 0.900807 0.421048 0.155974
H19   H     H_    0.758066 0.939839 0.147094 0.190344
H20   H     H_    0.774460 0.999058 0.161720 0.169459
H21   H     H_    0.699053 0.956134 0.032153 0.183881
H22   H     H_    0.714900 0.015087 0.046576 0.179711
H23   H     H_    0.753915 0.028739 0.359720 0.330745
H24   H     H_    0.788519 0.992774 0.091225 0.157587
H25   H     H_    0.745517 0.972460 0.011630 0.156537
H26   H     H_    0.772673 0.933514 0.076908 0.153744
H27   H     H_    0.255218 0.627219 0.264694 0.177590
H28   H     H_    0.273452 0.599188 0.334604 0.174077
H29   H     H_    0.196346 0.665802 0.249225 0.181593
H30   H     H_    0.214014 0.637570 0.318173 0.177516
H31   H     H_    0.286692 0.675590 0.385030 0.158095
H32   H     H_    0.242815 0.716391 0.342923 0.155113
H33   H     H_    0.269009 0.703899 0.315760 0.156214
H34   H     H_    0.749726 0.080112 0.180428 0.337413
H35   H     H_    0.755252 0.127391 0.260459 0.177622
H36   H     H_    0.773458 0.101160 0.331287 0.174033
H37   H     H_    0.696370 0.167477 0.243593 0.181593
H38   H     H_    0.714017 0.141040 0.313476 0.177514
H39   H     H_    0.786702 0.178813 0.379043 0.158099
H40   H     H_    0.742833 0.219666 0.335503 0.155107
H41   H     H_    0.769045 0.205311 0.308836 0.156231
H42   H     H_    0.276004 0.371565 0.293733 0.172984
H43   H     H_    0.317691 0.414327 0.343210 0.123144
H44   H     H_    0.316443 0.339925 0.268511 0.178215
H45   H     H_    0.224419 0.449591 0.342968 0.162208
H46   H     H_    0.356599 0.384269 0.313658 0.174375
H47   H     H_    0.377055 0.356404 0.411610 0.152720
H48   H     H_    0.382513 0.312220 0.374975 0.159284
H49   H     H_    0.336379 0.312094 0.366636 0.149331
H50   H     H_    0.776007 0.872199 0.298156 0.172963
H51   H     H_    0.817738 0.915160 0.346141 0.123205
H52   H     H_    0.816324 0.838288 0.273864 0.178278
H53   H     H_    0.856529 0.882726 0.317483 0.174168
H54   H     H_    0.877059 0.857494 0.416384 0.152873
H55   H     H_    0.882425 0.811898 0.381175 0.159298
H56   H     H_    0.270734 0.421995 0.362227 0.150783
H57   H     H_    0.836340 0.813110 0.372937 0.149277
H58   H     H_    0.184515 0.376244 0.302748 0.183758
H59   H     H_    0.229734 0.348890 0.320169 0.165770
H60   H     H_    0.277703 0.366818 0.434776 0.151778
O1    O     O_R   0.500410 0.561970 0.536310 -0.482857
O2    O     O_R   0.963790 0.500000 0.401850 -0.482045
O3    O     O_R   0.534640 1.000000 0.472710 -0.482254
O4    O     O_R   0.034640 0.500000 0.472710 -0.482232
O5    O     O_R   0.464530 0.938000 0.464560 -0.482168
O6    O     O_R   0.464530 0.062000 0.464560 -0.482874
O7    O     O_R   0.964530 0.438000 0.464560 -0.482201
O8    O     O_R   0.964530 0.562000 0.464560 -0.482858
O9    O     O_R   0.535390 0.937990 0.535420 -0.482259
O10   O     O_R   0.535390 0.062010 0.535420 -0.481816
O11   O     O_R   0.035390 0.437990 0.535420 -0.482226
O12   O     O_R   0.500410 0.438030 0.536310 -0.484390
O13   O     O_R   0.035390 0.562010 0.535420 -0.481836
O14   O     O_R   0.465290 0.000000 0.527290 -0.482254
O15   O     O_R   0.965290 0.500000 0.527290 -0.482253
O16   O     O_R   0.536150 0.000000 0.598150 -0.482242
O17   O     O_R   0.036150 0.500000 0.598150 -0.482253
O18   O     O_R   0.499540 0.561910 0.463710 -0.482156
O19   O     O_R   0.499540 0.438090 0.463710 -0.484789
O20   O     O_R   0.999540 0.061910 0.463710 -0.482141
O21   O     O_R   0.999540 0.938090 0.463710 -0.484693
O22   O     O_R   0.439190 0.500000 0.475090 -0.493247
O23   O     O_R   0.000410 0.061970 0.536310 -0.482796
O24   O     O_R   0.939190 0.000000 0.475090 -0.493555
O25   O     O_R   0.438320 0.500000 0.402480 -0.496128
O26   O     O_R   0.938320 1.000000 0.402480 -0.495771
O27   O     O_R   0.561610 0.500000 0.597520 -0.480723
O28   O     O_R   0.061610 0.000000 0.597520 -0.480718
O29   O     O_R   0.560740 0.500000 0.524910 -0.480844
O30   O     O_R   0.060740 0.000000 0.524910 -0.480852
O31   O     O_R   0.994560 0.535840 0.056620 -0.483717
O32   O     O_R   0.994560 0.464160 0.056620 -0.483766
O33   O     O_R   0.494560 0.035840 0.056620 -0.483752
O34   O     O_R   0.000410 0.938030 0.536310 -0.484569
O35   O     O_R   0.494560 0.964160 0.056620 -0.483725
O36   O     O_R   0.055010 0.535850 0.055100 -0.494042
O37   O     O_R   0.055010 0.464150 0.055100 -0.491973
O38   O     O_R   0.555010 0.035850 0.055100 -0.494075
O39   O     O_R   0.555010 0.964150 0.055100 -0.491900
O40   O     O_R   0.993040 0.535870 0.931160 -0.483988
O41   O     O_R   0.993040 0.464130 0.931160 -0.482803
O42   O     O_R   0.493040 0.035870 0.931160 -0.483970
O43   O     O_R   0.493040 0.964130 0.931160 -0.482826
O44   O     O_3   0.278354 0.513408 0.366562 -0.726903
O45   O     O_R   0.932590 0.535860 0.932690 -0.481816
O46   O     O_3   0.275889 0.568899 0.223743 -0.716980
O47   O     O_3   0.778374 0.016338 0.366133 -0.726916
O48   O     O_3   0.775879 0.067023 0.221479 -0.716943
O49   O     O_3   0.214094 0.428689 0.266454 -0.566992
O50   O     O_3   0.213792 0.488005 0.129841 -0.561039
O51   O     O_3   0.714101 0.930463 0.268940 -0.567020
O52   O     O_3   0.713769 0.985110 0.130356 -0.561020
O53   O     O_3   0.212608 0.579456 0.248022 -0.572184
O54   O     O_3   0.712621 0.080570 0.245392 -0.572137
O55   O     O_3   0.278391 0.419633 0.245139 -0.574585
O56   O     O_R   0.932590 0.464140 0.932690 -0.481545
O57   O     O_3   0.778365 0.918488 0.247910 -0.574611
O58   O     O_R   0.432590 0.035860 0.932690 -0.481805
O59   O     O_R   0.432590 0.964140 0.932690 -0.481557
O60   O     O_R   0.463790 0.000000 0.401850 -0.482035

loop_
_geom_bond_atom_site_label_1
_geom_bond_atom_site_label_2
_ccdc_geom_bond_type
C25   H26   S    
Cu7   O20   S    
Cu10  O33   S    
C7    C83   S    
C58   C62   T    
C84   C113  S    
C6    C82   S    
C16   H4    S    
C31   H40   S    
C95   O11   A    
C80   O32   A    
C17   H6    S    
C76   C79   T    
C11   C132  S    
C27   H29   S    
Cu12  O6    S    
C15   H60   S    
C100  C131  S    
C123  C124  T    
C41   C67   S    
C116  O50   S    
C121  C125  T    
C88   O29   A    
Cu5   Cu7   S    
C83   O38   A    
C26   C27   S    
C37   C38   S    
C74   C76   S    
C65   O26   A    
C96   O8    A    
C98   O15   A    
C91   C110  S    
C124  C126  S    
C36   C37   S    
C117  C132  S    
Cu5   O24   S    
Cu2   O15   S    
C97   C128  S    
C66   C88   S    
C64   O25   A    
C8    C10   S    
H12   O46   S    
Cu2   O2    S    
C66   C69   T    
Cu6   O18   S    
Cu1   O1    S    
C7    C24   T    
C98   O17   A    
C83   O39   A    
Cu8   O36   S    
C45   O12   A    
H23   O47   S    
C90   O30   A    
C28   H32   S    
Cu5   O34   S    
C69   C71   S    
C35   C42   T    
C10   C131  S    
C15   H3    S    
C56   O23   A    
C8    C115  S    
C26   O53   S    
C113  C119  T    
C16   O50   S    
C103  C105  S    
Cu10  Cu11  S    
Cu4   O17   S    
C78   C115  S    
C3    C111  S    
C16   C17   S    
Cu10  O42   S    
C38   H57   S    
C9    O57   S    
C99   C102  T    
Cu8   O31   S    
Cu9   O41   S    
C41   C46   T    
C38   H54   S    
C16   H5    S    
C21   H18   S    
C37   H53   S    
Cu7   O26   S    
C1    O1    A    
C28   H33   S    
C111  O54   S    
C22   O52   S    
Cu1   O27   S    
H1    O44   S    
C120  C123  S    
C39   C45   S    
Cu4   O11   S    
C60   C93   S    
C86   O45   A    
C26   H28   S    
Cu1   Cu6   S    
C101  C103  T    
C23   H21   S    
C55   C60   T    
C24   C89   S    
C9    C118  S    
C73   C75   S    
C80   O31   A    
C90   O28   A    
C4    C64   S    
C17   H7    S    
C127  C129  T    
Cu5   O28   S    
C18   H8    S    
C2    C11   S    
C27   H30   S    
C64   O22   A    
Cu12  O5    S    
C33   C34   S    
C107  C109  S    
C54   C59   S    
C119  C121  S    
C25   H24   S    
C39   C43   T    
C33   H46   S    
C94   O10   A    
Cu2   O8    S    
C93   O9    A    
C45   O19   A    
C37   H52   S    
Cu11  O35   S    
C21   H17   S    
Cu8   Cu9   S    
C72   C74   T    
C109  C112  T    
Cu4   O4    S    
C130  O44   S    
C61   C94   S    
C92   C112  S    
C81   C101  S    
Cu4   O13   S    
C51   C55   S    
C40   C56   S    
Cu10  O38   S    
C8    C116  S    
C63   C96   S    
C20   H15   S    
C44   C49   S    
Cu9   O37   S    
C81   O35   A    
C65   O24   A    
C82   O36   A    
C1    O18   A    
Cu8   O40   S    
C29   H36   S    
C19   H13   S    
C42   C47   S    
C10   C130  S    
Cu12  O14   S    
C29   C30   S    
C12   H45   S    
C3    C118  S    
C125  C127  S    
C15   H2    S    
C23   H22   S    
C22   H20   S    
Cu11  O43   S    
C91   O3    A    
C115  O49   S    
C48   C52   T    
C14   H59   S    
C31   H41   S    
Cu7   O30   S    
C14   C15   S    
C17   C18   S    
C12   H56   S    
C97   O16   A    
C4    C122  T    
C84   O40   A    
C50   C54   T    
C3    O48   S    
C102  C104  S    
C75   C77   T    
C87   O58   A    
C86   O56   A    
C12   O49   S    
C79   C87   S    
C18   H9    S    
C118  O52   S    
C34   H49   S    
C5    C65   S    
Cu3   Cu12  S    
C12   C14   S    
C77   C86   S    
C94   O6    A    
C30   H38   S    
C9    C11   S    
C80   C99   S    
C93   O5    A    
C85   O42   A    
C30   H37   S    
Cu11  O39   S    
C2    C5    T    
Cu11  O59   S    
Cu6   O25   S    
Cu12  O60   S    
C20   C21   S    
C87   O59   A    
C1    C35   S    
Cu3   O3    S    
C70   C72   S    
C43   C48   S    
C19   O51   S    
C68   C90   S    
C46   C50   S    
C100  O53   S    
C34   H47   S    
C56   O20   A    
C126  C128  T    
Cu2   O7    S    
C32   H43   S    
C31   H39   S    
Cu2   Cu4   S    
C97   O14   A    
Cu1   O12   S    
C32   O55   S    
C78   C116  S    
Cu8   O45   S    
C89   C117  S    
C10   C122  S    
C18   H10   S    
C26   H27   S    
C85   C114  S    
C47   C51   T    
C53   C58   S    
C108  C110  T    
C28   H31   S    
C57   C61   T    
Cu1   O22   S    
C92   O4    A    
C3    C11   S    
C105  C106  T    
C89   C111  S    
C67   O34   A    
C59   C63   T    
C29   O54   S    
C32   H42   S    
Cu7   O21   S    
C95   O7    A    
C36   O57   S    
C19   C20   S    
C34   H48   S    
C25   H25   S    
C36   H51   S    
C91   O60   A    
Cu5   O23   S    
C32   C33   S    
C6    C13   T    
C78   C100  S    
C22   H19   S    
C117  O51   S    
C22   C23   S    
C30   C31   S    
C116  C131  S    
C106  C108  S    
Cu6   O19   S    
C8    O55   S    
Cu9   O32   S    
C49   C53   T    
Cu3   O16   S    
C14   H58   S    
C98   C129  S    
C21   H16   S    
Cu9   O56   S    
C81   O33   A    
Cu3   O9    S    
C33   H44   S    
C100  C130  S    
C19   H11   S    
C23   C25   S    
C36   H50   S    
C92   O2    A    
C52   C57   S    
C13   C78   S    
Cu3   O10   S    
C111  C132  S    
C40   C44   T    
C88   O27   A    
H34   O48   S    
C89   C118  S    
C82   O37   A    
C68   C70   T    
C29   H35   S    
C71   C73   T    
C27   C28   S    
C85   O43   A    
C67   O21   A    
C38   H55   S    
C84   O41   A    
Cu6   O29   S    
C20   H14   S    
Cu10  O58   S    
C62   C95   S    
C104  C107  T    
C114  C120  T    
C9    C117  S    
C96   O13   A    
C132  O47   S    
C131  O46   S    
C115  C130  S    
