data_mof_unit_11029.cif
_audit_creation_date              2012-10-26T19:57:21-0400
_audit_creation_method            fapswitch 2.2
_symmetry_space_group_name_H-M    P1
_symmetry_Int_Tables_number       1
_space_group_crystal_system       triclinic
_cell_length_a                    13.051174
_cell_length_b                    10.931419
_cell_length_c                    9.73195
_cell_angle_alpha                 89.970057
_cell_angle_beta                  95.489196
_cell_angle_gamma                 90.480951
_cell_volume                      1382.02063355

loop_
_atom_site_label
_atom_site_type_symbol
_atom_type_description
_atom_site_fract_x
_atom_site_fract_y
_atom_site_fract_z
_atom_type_partial_charge
C1    C     C_R   0.500978 0.265499 0.500209 0.558355
C2    C     C_2   0.505657 0.133514 0.503152 -0.112563
C3    C     C_2   0.467810 0.408330 0.921887 0.286917
C4    C     C_R   0.300696 0.502263 0.475402 0.559054
C5    C     C_2   0.495294 0.402328 0.076526 0.021897
C6    C     C_R   0.498650 0.734497 0.499913 0.550144
C7    C     C_R   0.699004 0.499389 0.525053 0.548143
C8    C     C_R   0.811070 0.497638 0.538742 -0.014590
C9    C     C_R   0.188029 0.509355 0.463919 -0.041767
C10   C     C_R   0.027127 0.538127 0.319719 0.239694
C11   C     C_R   0.134261 0.527414 0.333925 -0.173790
C12   C     C_R   0.025915 0.497282 0.566697 0.009841
C13   C     C_R   0.133565 0.501074 0.582406 0.233870
C14   C     C_3   0.354084 0.226862 0.939475 -0.337651
C15   C     C_3   0.672734 0.538348 0.939613 -0.241614
C16   C     C_3   0.994217 0.681294 0.151705 -0.019137
C17   C     C_3   0.929864 0.709331 0.017074 -0.381104
C18   C     C_3   0.190816 0.606491 0.777128 -0.004818
C19   C     C_3   0.219581 0.590905 0.931186 -0.372924
C20   C     C_R   0.972352 0.518152 0.435464 0.013225
C21   C     C_R   0.864880 0.519466 0.423128 -0.109915
C22   C     C_R   0.864664 0.472798 0.666906 -0.159663
C23   C     C_R   0.971085 0.473009 0.681037 -0.129238
C24   C     C_2   0.500854 0.933095 0.387332 -0.161492
C25   C     C_2   0.493145 0.866452 0.501534 -0.121222
C26   C     C_2   0.496272 0.067043 0.386886 -0.162924
Cu1   Cu    Cu3+1 0.500020 0.500020 0.638640 0.958809
Cu2   Cu    Cu3+1 0.499980 0.499980 0.361360 0.918176
H1    H     H_    0.822939 0.537640 0.323763 0.171319
H2    H     H_    0.486584 0.111684 0.286770 0.135614
H3    H     H_    0.359904 0.340129 0.769612 0.317048
H4    H     H_    0.305115 0.163687 0.871606 0.147034
H5    H     H_    0.304117 0.276438 0.006743 0.151986
H6    H     H_    0.410994 0.170282 0.002570 0.130759
H7    H     H_    0.563722 0.667198 0.867201 0.266607
H8    H     H_    0.697978 0.551274 0.050834 0.147198
H9    H     H_    0.725026 0.591940 0.878607 0.125244
H10   H     H_    0.679156 0.439742 0.914156 0.159895
H11   H     H_    0.076542 0.695517 0.134786 0.122199
H12   H     H_    0.519191 0.092646 0.604434 0.107310
H13   H     H_    0.972686 0.747078 0.231439 0.130273
H14   H     H_    0.846991 0.706526 0.033707 0.143304
H15   H     H_    0.949341 0.802180 0.980645 0.098688
H16   H     H_    0.945329 0.641447 0.936889 0.155760
H17   H     H_    0.116299 0.656382 0.764069 0.108568
H18   H     H_    0.250823 0.663616 0.733615 0.153663
H19   H     H_    0.294629 0.544336 0.949795 0.166013
H20   H     H_    0.225560 0.681848 0.982193 0.081032
H21   H     H_    0.159821 0.535318 0.976857 0.161324
H22   H     H_    0.507334 0.314113 0.125547 0.130954
H23   H     H_    0.471691 0.578247 0.106709 0.232674
H24   H     H_    0.824567 0.452100 0.756395 0.125744
H25   H     H_    0.010029 0.453353 0.781831 0.162763
H26   H     H_    0.175426 0.535173 0.242825 0.138424
H27   H     H_    0.509463 0.888614 0.289344 0.146490
H28   H     H_    0.480383 0.907185 0.599651 0.095978
N1    N     N_2   0.498860 0.498660 0.846770 -0.138520
N2    N     N_2   0.498840 0.498630 0.152900 -0.361338
N3    N     N_2   0.405896 0.312579 0.855454 -0.496360
N4    N     N_2   0.568042 0.581638 0.911495 -0.450185
O1    O     O_R   0.500020 0.321960 0.617050 -0.491200
O2    O     O_3   0.184765 0.489936 0.713276 -0.554586
O3    O     O_R   0.499980 0.321920 0.382890 -0.505486
O4    O     O_R   0.349010 0.500000 0.598060 -0.471458
O5    O     O_R   0.348980 0.499950 0.363910 -0.514194
O6    O     O_R   0.500020 0.678080 0.617110 -0.516542
O7    O     O_R   0.499980 0.678040 0.382950 -0.500933
O8    O     O_R   0.651020 0.500050 0.636090 -0.500439
O9    O     O_R   0.650990 0.500000 0.401940 -0.496887
O10   O     O_3   0.975340 0.559301 0.191065 -0.569450

loop_
_geom_bond_atom_site_label_1
_geom_bond_atom_site_label_2
_ccdc_geom_bond_type
C7    O9    A    
C8    C22   A    
C17   H15   S    
C15   H10   S    
C14   H6    S    
Cu2   N2    S    
C3    N3    S    
C15   N4    S    
C19   H21   S    
Cu2   O9    S    
C25   H28   S    
C3    C5    S    
C12   C20   A    
C14   H5    S    
C8    C21   A    
C4    C9    S    
C17   H16   S    
C7    C8    S    
C2    C26   D    
Cu1   O6    S    
C24   C25   D    
C24   H27   S    
C14   N3    S    
C9    C11   A    
C12   C23   A    
C16   C17   S    
C11   H26   S    
C5    N2    D    
C18   H18   S    
C6    O7    A    
C24   C26   S    
C23   H25   S    
C13   O2    S    
C14   H4    S    
Cu1   N1    S    
C4    O5    A    
C19   H19   S    
C5    H22   S    
C6    C25   S    
H23   N2    S    
Cu1   O4    S    
Cu2   O5    S    
C16   H11   S    
Cu2   O3    S    
C1    O3    A    
C15   H8    S    
C6    O6    A    
Cu2   O7    S    
C16   O10   S    
C20   C21   A    
C10   O10   S    
C22   H24   S    
C18   H17   S    
C10   C11   A    
H3    N3    S    
Cu1   Cu2   S    
C1    C2    S    
C4    O4    A    
C17   H14   S    
C18   C19   S    
N1    N4    S    
C9    C13   A    
Cu1   O8    S    
Cu1   O1    S    
C12   C13   A    
C7    O8    A    
C22   C23   A    
C21   H1    S    
C16   H13   S    
C19   H20   S    
C15   H9    S    
C18   O2    S    
C2    H12   S    
C10   C20   A    
H7    N4    S    
C3    N1    D    
C26   H2    S    
C1    O1    A    
