data_mof_unit_33484.cif
_audit_creation_date              2012-12-10T20:38:25-0500
_audit_creation_method            fapswitch 2.2
_symmetry_space_group_name_H-M    P1
_symmetry_Int_Tables_number       1
_space_group_crystal_system       triclinic
_cell_length_a                    9.860815
_cell_length_b                    10.670865
_cell_length_c                    16.593858
_cell_angle_alpha                 90.478517
_cell_angle_beta                  85.488112
_cell_angle_gamma                 90.598382
_cell_volume                      1740.50700705

loop_
_atom_site_label
_atom_site_type_symbol
_atom_type_description
_atom_site_fract_x
_atom_site_fract_y
_atom_site_fract_z
_atom_type_partial_charge
C1    C     C_R   0.501120 0.739980 0.496505 0.891745
C2    C     C_R   0.530496 0.474696 0.259416 -0.060671
C3    C     C_R   0.380034 0.934803 0.500939 0.091060
C4    C     C_R   0.481377 0.492970 0.653241 0.863089
C5    C     C_R   0.501964 0.871704 0.483690 -0.162969
C6    C     C_R   0.618526 0.938103 0.451277 -0.020549
C7    C     C_R   0.615908 0.068117 0.452622 -0.257668
C8    C     C_R   0.498261 0.129072 0.484480 -0.160019
C9    C     C_R   0.377532 0.062504 0.500073 0.116016
C10   C     C_3   0.275574 0.067894 0.572034 0.029107
C11   C     C_3   0.278758 0.925300 0.572910 -0.511498
C12   C     C_R   0.354459 0.471329 0.787394 -0.213230
C13   C     C_R   0.922572 0.571632 0.554487 0.223304
C14   C     C_R   0.933759 0.439947 0.441079 -0.163106
C15   C     C_R   0.078849 0.439259 0.440151 0.265699
C16   C     C_R   0.499607 0.260148 0.497404 0.883400
C17   C     C_R   0.064980 0.571660 0.554477 0.170395
C18   C     C_3   0.059030 0.561232 0.644155 -0.512642
C19   C     C_3   0.905139 0.561074 0.644257 -0.490208
C20   C     C_R   0.518726 0.497650 0.346275 0.871985
C21   C     C_R   0.469967 0.446556 0.735537 -0.045445
C22   C     C_R   0.567306 0.361504 0.758268 -0.257183
C23   C     C_R   0.421060 0.440280 0.136344 -0.213508
C24   C     C_R   0.553755 0.306731 0.834160 0.039518
C25   C     C_R   0.443107 0.340107 0.888703 0.143097
C26   C     C_R   0.341362 0.418471 0.863923 -0.171524
C27   C     C_3   0.800330 0.217047 0.097596 -0.774286
C28   C     C_1   0.742563 0.877582 0.420181 0.193423
C29   C     C_3   0.081000 0.084736 0.482407 -0.735557
C30   C     C_3   0.098018 0.329126 0.306716 -0.894729
C31   C     C_1   0.654913 0.218273 0.855278 0.136373
C32   C     C_R   0.414636 0.479370 0.216241 -0.208382
C33   C     C_R   0.654565 0.434621 0.221015 -0.268773
C34   C     C_R   0.661884 0.393938 0.140655 0.232909
C35   C     C_R   0.543484 0.395019 0.098407 0.161645
C36   C     C_2   0.445494 0.319118 0.975342 -0.259437
C37   C     C_2   0.551808 0.364667 0.012095 -0.187087
H1    H     H_    0.652642 0.335918 0.716328 0.153259
H2    H     H_    0.857462 0.470661 0.664488 0.212992
H3    H     H_    0.857774 0.645964 0.673184 0.204366
H4    H     H_    0.744861 0.430093 0.254092 0.153633
H5    H     H_    0.643845 0.393886 0.976515 0.181282
H6    H     H_    0.256097 0.444848 0.905604 0.137669
H7    H     H_    0.330511 0.448464 0.103967 0.143550
H8    H     H_    0.276485 0.533698 0.769457 0.145329
H9    H     H_    0.351285 0.293254 0.009779 0.155225
H10   H     H_    0.872178 0.393491 0.125659 0.220650
H11   H     H_    0.797552 0.176347 0.159168 0.235426
H12   H     H_    0.706933 0.121032 0.432902 0.164873
H13   H     H_    0.898586 0.192670 0.064133 0.242524
H14   H     H_    0.716859 0.175432 0.064616 0.264049
H15   H     H_    0.077060 0.126095 0.605606 0.227583
H16   H     H_    0.996001 0.149475 0.473801 0.225988
H17   H     H_    0.038273 0.988353 0.487870 0.235097
H18   H     H_    0.153875 0.090944 0.428134 0.245543
H19   H     H_    0.226674 0.310934 0.399793 0.273733
H20   H     H_    0.025390 0.250908 0.321638 0.239148
H21   H     H_    0.178978 0.293933 0.262207 0.258060
H22   H     H_    0.045900 0.407350 0.278432 0.249268
H23   H     H_    0.317561 0.112526 0.625744 0.122068
H24   H     H_    0.324384 0.887609 0.626802 0.171491
H25   H     H_    0.183326 0.877070 0.558467 0.216259
H26   H     H_    0.881085 0.389065 0.396250 0.159891
H27   H     H_    0.099808 0.470894 0.664258 0.220386
H28   H     H_    0.318561 0.512153 0.244414 0.186610
H29   H     H_    0.100645 0.646330 0.672866 0.197831
N1    N     N_R   0.857140 0.500860 0.500530 -0.123867
N2    N     N_R   0.142780 0.500820 0.500530 -0.138806
N3    N     N_2   0.788165 0.351901 0.102872 -0.326739
N4    N     N_1   0.841907 0.829249 0.395272 -0.218906
N5    N     N_2   0.144869 0.120864 0.555154 -0.275715
N6    N     N_2   0.158726 0.372525 0.378720 -0.268902
N7    N     N_1   0.735947 0.147493 0.872204 -0.211900
O1    O     O_R   0.385310 0.683210 0.499990 -0.607023
O2    O     O_R   0.614650 0.683240 0.500000 -0.603950
O3    O     O_R   0.371780 0.500000 0.615800 -0.614435
O4    O     O_R   0.601120 0.500040 0.615800 -0.616670
O5    O     O_R   0.385350 0.316760 0.500000 -0.625130
O6    O     O_R   0.614690 0.316790 0.500010 -0.622270
O7    O     O_R   0.398880 0.499960 0.384200 -0.609059
O8    O     O_R   0.628220 0.500000 0.384200 -0.621472
Zn1   Zn    Zn3+2 0.346870 0.499980 0.499990 0.951725
Zn2   Zn    Zn3+2 0.653130 0.500020 0.500010 0.945043

loop_
_geom_bond_atom_site_label_1
_geom_bond_atom_site_label_2
_ccdc_geom_bond_type
C27   H11   S    
N1    Zn2   S    
C11   H25   S    
O2    Zn2   S    
C7    C8    A    
C15   N6    S    
C1    C5    S    
C1    O1    A    
C36   C37   D    
C35   C37   S    
C34   C35   A    
C5    C6    A    
C31   N7    T    
C29   H17   S    
C15   N2    A    
C22   H1    S    
C30   H20   S    
C2    C32   A    
C18   C19   S    
C37   H5    S    
H10   N3    S    
C6    C28   S    
C8    C9    A    
H19   N6    S    
C14   N1    A    
C36   H9    S    
C9    C10   S    
C27   N3    S    
C27   H13   S    
C10   N5    S    
C8    C16   S    
C20   O8    A    
O1    Zn1   S    
O8    Zn2   S    
C27   H14   S    
C26   H6    S    
C33   C34   A    
C20   O7    A    
C2    C20   S    
C1    O2    A    
C24   C25   A    
C7    H12   S    
O7    Zn1   S    
C10   C11   S    
O3    Zn1   S    
C13   C19   S    
C29   H18   S    
C3    C5    A    
C25   C26   A    
C12   C21   A    
C23   H7    S    
C12   C26   A    
C10   H23   S    
C3    C9    A    
O5    Zn1   S    
C30   H22   S    
C17   C18   S    
C34   N3    S    
C19   H2    S    
C2    C33   A    
C23   C35   A    
C22   C24   A    
C13   N1    A    
C17   N2    A    
C28   N4    T    
C12   H8    S    
C11   H24   S    
C30   N6    S    
C6    C7    A    
C18   H29   S    
C13   C17   A    
C16   O6    A    
N2    Zn1   S    
C23   C32   A    
C24   C31   S    
C33   H4    S    
C4    O4    A    
H15   N5    S    
O6    Zn2   S    
C4    C21   S    
C18   H27   S    
C29   H16   S    
C14   H26   S    
C30   H21   S    
C16   O5    A    
C4    O3    A    
C3    C11   S    
C19   H3    S    
C25   C36   S    
O4    Zn2   S    
C14   C15   A    
C21   C22   A    
C32   H28   S    
C29   N5    S    
