data_mof_unit_28904.cif
_audit_creation_date              2012-12-10T17:18:57-0500
_audit_creation_method            fapswitch 2.2
_symmetry_space_group_name_H-M    P1
_symmetry_Int_Tables_number       1
_space_group_crystal_system       triclinic
_cell_length_a                    9.59856
_cell_length_b                    10.830553
_cell_length_c                    13.465698
_cell_angle_alpha                 92.168513
_cell_angle_beta                  72.699172
_cell_angle_gamma                 90.767929
_cell_volume                      1335.5679294

loop_
_atom_site_label
_atom_site_type_symbol
_atom_type_description
_atom_site_fract_x
_atom_site_fract_y
_atom_site_fract_z
_atom_type_partial_charge
C1    C     C_R   0.497814 0.737297 0.507302 0.803155
C2    C     C_R   0.432205 0.482092 0.979591 0.084639
C3    C     C_R   0.469977 0.454617 0.870979 0.082452
C4    C     C_R   0.540097 0.467649 0.031570 0.076122
C5    C     C_R   0.678319 0.416868 0.976495 0.149612
C6    C     C_R   0.705500 0.375839 0.873520 -0.211447
C7    C     C_R   0.601676 0.391698 0.822286 -0.184253
C8    C     C_R   0.515803 0.503459 0.136390 -0.238904
C9    C     C_R   0.758637 0.438403 0.130608 -0.179881
C10   C     C_R   0.373810 0.489210 0.814486 -0.097569
C11   C     C_R   0.242627 0.872110 0.640393 -0.195253
C12   C     C_R   0.421657 0.494281 0.699798 0.769673
C13   C     C_R   0.109139 0.931472 0.680764 -0.189374
C14   C     C_R   0.097345 0.056841 0.664807 0.045397
C15   C     C_R   0.223777 0.124285 0.618133 -0.224133
C16   C     C_R   0.359223 0.064669 0.570490 0.077302
C17   C     C_R   0.365190 0.934807 0.576934 0.115713
C18   C     C_R   0.494167 0.871271 0.520832 -0.113127
C19   C     C_R   0.620561 0.936495 0.471628 -0.175905
C20   C     C_R   0.618564 0.063621 0.471139 -0.169068
C21   C     C_R   0.489007 0.128828 0.516601 -0.101412
C22   C     C_R   0.911708 0.338497 0.360553 -0.208721
C23   C     C_R   0.496045 0.262703 0.506110 0.775578
C24   C     C_R   0.010684 0.258570 0.292947 0.134619
C25   C     C_R   0.153744 0.257283 0.294081 -0.209574
C26   C     C_R   0.198625 0.335863 0.362432 -0.183512
C27   C     C_R   0.101905 0.419842 0.432003 0.236674
C28   C     C_R   0.952570 0.420491 0.431552 0.201313
C29   C     C_R   0.899784 0.574894 0.565665 -0.044491
C30   C     C_R   0.047546 0.574695 0.565725 -0.037054
C31   C     C_R   0.578074 0.498750 0.300298 0.803375
C32   C     C_R   0.787083 0.404825 0.025763 -0.164644
C33   C     C_R   0.621207 0.484229 0.186870 -0.051843
C34   C     C_R   0.232600 0.530039 0.868891 -0.187799
C35   C     C_R   0.189269 0.542951 0.976625 -0.134569
C36   C     C_R   0.287961 0.521921 0.031631 -0.158484
Cu1   Cu    Cu3+1 0.359340 0.500010 0.500010 0.937730
Cu2   Cu    Cu3+1 0.640660 0.499990 0.499990 0.939241
H1    H     H_    0.841912 0.424185 0.168326 0.168528
H2    H     H_    0.248048 0.776544 0.658941 0.149600
H3    H     H_    0.014538 0.878448 0.722077 0.165864
H4    H     H_    0.211111 0.222749 0.620677 0.203739
H5    H     H_    0.718275 0.110905 0.430668 0.182665
H6    H     H_    0.823113 0.636375 0.619531 0.144413
H7    H     H_    0.804679 0.331693 0.353948 0.210748
H8    H     H_    0.231117 0.194690 0.241820 0.183276
H9    H     H_    0.310327 0.325965 0.357108 0.212184
H10   H     H_    0.807758 0.331253 0.832559 0.177276
H11   H     H_    0.080580 0.635408 0.620085 0.120414
H12   H     H_    0.892993 0.366718 0.983754 0.157120
H13   H     H_    0.414829 0.545809 0.181319 0.154807
H14   H     H_    0.155909 0.554628 0.827986 0.152985
H15   H     H_    0.246633 0.535285 0.114895 0.132472
H16   H     H_    0.079525 0.573338 0.017705 0.150733
H17   H     H_    0.624586 0.351047 0.744907 0.171065
H18   H     H_    0.720670 0.888732 0.430188 0.175750
N1    N     N_R   0.852480 0.498790 0.499000 -0.198343
N2    N     N_R   0.148360 0.498710 0.498970 -0.194271
O1    O     O_R   0.381190 0.680360 0.500010 -0.577866
O2    O     O_R   0.618760 0.680340 0.500000 -0.574315
O3    O     O_R   0.323240 0.499990 0.650990 -0.590311
O4    O     O_R   0.560820 0.499960 0.650980 -0.585090
O5    O     O_R   0.381240 0.319660 0.500000 -0.606971
O6    O     O_R   0.618810 0.319640 0.499990 -0.598704
O7    O     O_R   0.439180 0.500040 0.349020 -0.599542
O8    O     O_R   0.676760 0.500010 0.349010 -0.596843
C37   C     C_2   0.952990 0.117084 0.690609 0.813449
O9    O     O_2   0.845592 0.069631 0.750321 -0.593493
O10   O     O_R   0.938762 0.225707 0.641490 -0.783691
H19   H     H_    0.833524 0.250792 0.654800 0.327890
I1    I     I_    0.942992 0.137929 0.189152 -0.427119

loop_
_geom_bond_atom_site_label_1
_geom_bond_atom_site_label_2
_ccdc_geom_bond_type
C19   H18   S    
C31   O8    A    
C2    C4    A    
C14   C37   S    
C31   C33   S    
C16   C21   A    
Cu1   Cu2   S    
Cu2   N1    S    
C12   O4    A    
Cu1   N2    S    
Cu1   O3    S    
C19   C20   A    
C9    C32   A    
C7    H17   S    
C4    C8    A    
C5    C32   A    
Cu1   O1    S    
C11   H2    S    
C23   O5    A    
C17   C18   A    
C1    C18   S    
C10   C34   A    
C3    C10   A    
C22   C28   A    
C13   C14   A    
C24   C25   A    
C35   H16   S    
C9    C33   A    
C12   O3    A    
C11   C13   A    
C8    H13   S    
C32   H12   S    
C26   C27   A    
C29   C30   A    
C6    H10   S    
C26   H9    S    
Cu2   O2    S    
C10   C12   S    
C13   H3    S    
C23   O6    A    
Cu1   O5    S    
C30   H11   S    
C29   N1    A    
C2    C3    A    
C6    C7    A    
Cu2   O6    S    
C8    C33   A    
C1    O1    A    
C21   C23   S    
C5    C6    A    
C22   C24   A    
C20   H5    S    
C16   C17   A    
C15   C16   A    
C24   I1    S    
C37   O9    D    
Cu2   O8    S    
C9    H1    S    
C22   H7    S    
C20   C21   A    
C25   H8    S    
C34   C35   A    
C1    O2    A    
C2    C36   A    
C27   C28   A    
C31   O7    A    
C14   C15   A    
C18   C19   A    
C30   N2    A    
C36   H15   S    
O10   H19   S    
C3    C7    A    
Cu2   O4    S    
C25   C26   A    
C28   N1    A    
C34   H14   S    
C29   H6    S    
C11   C17   A    
C35   C36   A    
C15   H4    S    
C4    C5    A    
C37   O10   S    
C27   N2    A    
Cu1   O7    S    
