data_mof_unit_50900.cif
_audit_creation_date              2012-10-26T19:48:08-0400
_audit_creation_method            fapswitch 2.2
_symmetry_space_group_name_H-M    P1
_symmetry_Int_Tables_number       1
_space_group_crystal_system       triclinic
_cell_length_a                    10.746678
_cell_length_b                    9.418428
_cell_length_c                    10.630188
_cell_angle_alpha                 90.066738
_cell_angle_beta                  90.590292
_cell_angle_gamma                 89.988976
_cell_volume                      1075.89590179

loop_
_atom_site_label
_atom_site_type_symbol
_atom_type_description
_atom_site_fract_x
_atom_site_fract_y
_atom_site_fract_z
_atom_type_partial_charge
C1    C     C_R   0.259602 0.500063 0.499158 0.586009
C2    C     C_3   0.922256 0.433171 0.375777 -0.224917
C3    C     C_3   0.618841 0.083795 0.553489 -0.104049
C4    C     C_3   0.618867 0.916328 0.553398 -0.103805
C5    C     C_3   0.398853 0.083912 0.581311 -0.107424
C6    C     C_3   0.398860 0.916325 0.581326 -0.104869
C7    C     C_3   0.482998 0.083410 0.374337 -0.105857
C8    C     C_3   0.482822 0.916282 0.374323 -0.104949
C9    C     C_R   0.500223 0.499941 0.259214 0.610336
C10   C     C_R   0.739892 0.500144 0.502047 0.543926
C11   C     C_R   0.501953 0.500107 0.740737 0.548141
C12   C     C_3   0.501284 0.499970 0.122200 0.062183
C13   C     C_3   0.417778 0.594377 0.039695 -0.088154
C14   C     C_3   0.472943 0.369520 0.040285 -0.094659
C15   C     C_3   0.389199 0.463935 0.955878 -0.096640
C16   C     C_3   0.503456 0.500376 0.877499 0.032458
C17   C     C_3   0.532165 0.630709 0.959196 -0.140394
C18   C     C_3   0.587416 0.406149 0.959600 -0.135779
C19   C     C_3   0.615780 0.536467 0.043868 -0.148311
C20   C     C_2   0.100999 0.554341 0.260857 0.567888
C21   C     C_2   0.119817 0.301459 0.324647 0.565135
C22   C     C_3   0.071018 0.653043 0.520896 -0.252923
C23   C     C_3   0.072872 0.407047 0.606306 -0.250417
C24   C     C_3   0.928691 0.654220 0.512142 -0.239323
C25   C     C_3   0.929676 0.411095 0.611384 -0.240918
C26   C     C_3   0.067270 0.446477 0.363547 0.088693
C27   C     C_3   0.121089 0.500058 0.495679 0.008884
C28   C     C_3   0.877471 0.500253 0.500540 0.013000
Cu1   Cu    Cu3+1 0.499860 0.642410 0.500060 0.896871
Cu2   Cu    Cu3+1 0.499860 0.357590 0.500060 0.901976
H1    H     H_    0.296483 0.434319 0.916977 0.117416
H2    H     H_    0.394195 0.122775 0.332749 0.139910
H3    H     H_    0.393805 0.876989 0.332718 0.135316
H4    H     H_    0.558728 0.121203 0.312162 0.113217
H5    H     H_    0.558457 0.878240 0.312058 0.118456
H6    H     H_    0.306975 0.121589 0.546102 0.154825
H7    H     H_    0.306949 0.878618 0.546095 0.124692
H8    H     H_    0.350029 0.674732 0.072504 0.152828
H9    H     H_    0.448526 0.262505 0.076133 0.114728
H10   H     H_    0.556513 0.737708 0.923268 0.108268
H11   H     H_    0.656830 0.329302 0.923493 0.107176
H12   H     H_    0.870497 0.480794 0.295403 0.148769
H13   H     H_    0.708361 0.566112 0.083095 0.128727
H14   H     H_    0.108748 0.731399 0.452978 0.156652
H15   H     H_    0.105201 0.295574 0.598741 0.168505
H16   H     H_    0.100940 0.689540 0.616227 0.114612
H17   H     H_    0.111466 0.447422 0.697174 0.101366
H18   H     H_    0.891008 0.707079 0.597424 0.118770
H19   H     H_    0.899686 0.458039 0.702335 0.116787
H20   H     H_    0.898900 0.717760 0.428846 0.157305
H21   H     H_    0.893007 0.300633 0.607287 0.132281
H22   H     H_    0.045836 0.693370 0.126793 0.330124
H23   H     H_    0.892603 0.319854 0.374302 0.134191
H24   H     H_    0.214780 0.185548 0.197304 0.313244
H25   H     H_    0.635811 0.123822 0.650668 0.110046
H26   H     H_    0.636014 0.876395 0.650495 0.109839
H27   H     H_    0.698305 0.120704 0.495957 0.122413
H28   H     H_    0.698213 0.879448 0.495648 0.118609
H29   H     H_    0.408181 0.123222 0.679622 0.111198
H30   H     H_    0.408229 0.877265 0.679636 0.112393
N1    N     N_3   0.500250 0.143650 0.502780 -0.229967
N2    N     N_3   0.500250 0.856350 0.502780 -0.228787
O1    O     O_R   0.317570 0.620260 0.500070 -0.501062
O2    O     O_R   0.009497 0.625089 0.190280 -0.746129
O3    O     O_2   0.100227 0.196232 0.388796 -0.587667
O4    O     O_R   0.188054 0.287045 0.213757 -0.679815
O5    O     O_R   0.317570 0.379740 0.500070 -0.493099
O6    O     O_R   0.499850 0.620240 0.316900 -0.500877
O7    O     O_R   0.499850 0.379760 0.316900 -0.505680
O8    O     O_R   0.682190 0.620260 0.500030 -0.519596
O9    O     O_R   0.682190 0.379740 0.500030 -0.523173
O10   O     O_R   0.499910 0.620280 0.683200 -0.517332
O11   O     O_R   0.499910 0.379720 0.683200 -0.517814
O12   O     O_2   0.210388 0.580623 0.241221 -0.523778

loop_
_geom_bond_atom_site_label_1
_geom_bond_atom_site_label_2
_ccdc_geom_bond_type
C21   C26   S    
Cu1   O1    S    
C23   H15   S    
C21   O4    S    
C14   C18   S    
Cu2   O9    S    
C7    C8    S    
C25   C28   S    
C26   C27   S    
C9    O7    A    
C5    C6    S    
C15   C16   S    
C5    H6    S    
C4    N2    S    
C18   C19   S    
C7    N1    S    
C17   C19   S    
C14   H9    S    
C3    H25   S    
C22   H14   S    
C16   C17   S    
C23   C27   S    
Cu2   O5    S    
Cu1   O10   S    
C10   O9    A    
C4    H26   S    
C1    O1    A    
C19   H13   S    
C3    N1    S    
C24   H20   S    
C23   H17   S    
C5    H29   S    
C5    N1    S    
C24   H18   S    
C6    H30   S    
C11   O11   A    
C18   H11   S    
Cu2   O11   S    
C11   O10   A    
C8    H5    S    
C20   O2    S    
C25   H21   S    
Cu1   Cu2   S    
Cu1   O6    S    
C11   C16   S    
C6    H7    S    
C20   O12   D    
C2    C26   S    
C13   H8    S    
C10   O8    A    
C22   H16   S    
C12   C14   S    
C22   C27   S    
C13   C15   S    
H22   O2    S    
C7    H4    S    
C22   C24   S    
C3    C4    S    
C3    H27   S    
Cu2   O7    S    
Cu1   O8    S    
C10   C28   S    
Cu1   N2    S    
C7    H2    S    
C21   O3    D    
C24   C28   S    
C2    H23   S    
C15   H1    S    
H24   O4    S    
C13   C17   S    
C6    N2    S    
C9    O6    A    
C20   C26   S    
C2    H12   S    
C12   C19   S    
C1    O5    A    
C8    H3    S    
C23   C25   S    
C9    C12   S    
C25   H19   S    
C12   C13   S    
C16   C18   S    
Cu2   N1    S    
C4    H28   S    
C1    C27   S    
C14   C15   S    
C2    C28   S    
C17   H10   S    
C8    N2    S    
