data_mof_unit_53489.cif
_audit_creation_date              2013-03-05T15:46:03-0500
_audit_creation_method            fapswitch 2.2
_symmetry_space_group_name_H-M    P1
_symmetry_Int_Tables_number       1
_space_group_crystal_system       triclinic
_cell_length_a                    17.363439
_cell_length_b                    24.31327
_cell_length_c                    14.884671
_cell_angle_alpha                 90.26447
_cell_angle_beta                  125.14432
_cell_angle_gamma                 89.748078
_cell_volume                      5138.17908329

loop_
_atom_site_label
_atom_site_type_symbol
_atom_site_description
_atom_site_fract_x
_atom_site_fract_y
_atom_site_fract_z
_atom_type_partial_charge
C1    C     C_R   0.322403 0.138028 0.906629 -0.104936
C2    C     C_R   0.348145 0.849307 0.905786 -0.132680
C3    C     C_R   0.850391 0.651861 0.908309 -0.149249
C4    C     C_R   0.829485 0.357642 0.905530 -0.121603
H1    H     H_    0.276504 0.150948 0.823173 0.130915
H2    H     H_    0.311290 0.837323 0.821129 0.151130
H3    H     H_    0.809664 0.664526 0.823622 0.143328
H4    H     H_    0.785396 0.345614 0.820933 0.154672
N1    N     N_R   0.392140 0.102630 0.941800 -0.048487
N2    N     N_R   0.392140 0.897370 0.941800 -0.045453
N3    N     N_R   0.892140 0.602630 0.941800 -0.044096
N4    N     N_R   0.892140 0.397370 0.941800 -0.047654
C5    C     C_R   0.440862 0.847273 0.088708 -0.145003
C6    C     C_R   0.413502 0.139375 0.090049 -0.145917
C7    C     C_R   0.920555 0.355811 0.089157 -0.154315
C8    C     C_R   0.944887 0.653049 0.091065 -0.141611
H5    H     H_    0.487326 0.832679 0.172032 0.087854
H6    H     H_    0.447278 0.153597 0.173151 0.087331
H7    H     H_    0.956179 0.341384 0.172467 0.089257
H8    H     H_    0.993704 0.667142 0.174557 0.087989
N5    N     N_R   0.450890 0.896450 0.057150 -0.038078
N6    N     N_R   0.450890 0.103550 0.057150 -0.038930
N7    N     N_R   0.950890 0.396450 0.057150 -0.037611
N8    N     N_R   0.950890 0.603550 0.057150 -0.039200
C9    C     C_R   0.486597 0.045200 0.257200 -0.107399
C10   C     C_R   0.481393 0.953810 0.249852 -0.147593
C11   C     C_R   0.980583 0.546251 0.249350 -0.121828
C12   C     C_R   0.983977 0.454710 0.253642 -0.121345
H9    H     H_    0.486203 0.086898 0.280725 0.081071
H10   H     H_    0.470665 0.911019 0.258182 0.096606
H11   H     H_    0.969744 0.589088 0.258206 0.094218
H12   H     H_    0.979921 0.412605 0.271856 0.083757
N9    N     N_R   0.525160 0.027960 0.206160 -0.037319
N10   N     N_R   0.525160 0.972040 0.206160 -0.037272
N11   N     N_R   0.025160 0.527960 0.206160 -0.037618
N12   N     N_R   0.025160 0.472040 0.206160 -0.038110
C13   C     C_R   0.230284 0.953826 0.746150 -0.158246
C14   C     C_R   0.229766 0.046147 0.738282 -0.132460
C15   C     C_R   0.729391 0.454953 0.744408 -0.148536
C16   C     C_R   0.731955 0.547438 0.748947 -0.146198
H13   H     H_    0.208691 0.911364 0.731320 0.095224
H14   H     H_    0.207251 0.087177 0.707529 0.100801
H15   H     H_    0.704376 0.413646 0.719901 0.081739
H16   H     H_    0.712942 0.590338 0.736613 0.103111
N13   N     N_R   0.317870 0.971120 0.792790 -0.039076
N14   N     N_R   0.317870 0.028880 0.792790 -0.042532
N15   N     N_R   0.817870 0.471120 0.792790 -0.038633
N16   N     N_R   0.817870 0.528880 0.792790 -0.039731
C17   C     C_R   0.327792 0.157211 0.997303 0.081348
C18   C     C_R   0.376552 0.816460 0.995588 0.086905
C19   C     C_R   0.883580 0.684893 0.000002 0.086431
C20   C     C_R   0.839217 0.334186 0.995676 0.098808
C21   C     C_R   0.453294 0.999447 0.279850 0.040116
C22   C     C_R   0.951380 0.500590 0.277613 0.039138
C23   C     C_R   0.173726 0.000374 0.713844 0.087213
C24   C     C_R   0.674375 0.501939 0.716203 0.077647
C25   C     C_R   0.452560 0.045582 0.697289 -0.121729
C26   C     C_R   0.451249 0.954383 0.696509 -0.148762
C27   C     C_R   0.951311 0.545368 0.696692 -0.138185
C28   C     C_R   0.952984 0.454176 0.697256 -0.131018
H17   H     H_    0.436512 0.087980 0.671334 0.082905
H18   H     H_    0.432961 0.912227 0.669322 0.091993
H19   H     H_    0.932763 0.587488 0.669678 0.082087
H20   H     H_    0.937198 0.411747 0.671035 0.088747
N17   N     N_R   0.473480 0.027920 0.793480 -0.038873
N18   N     N_R   0.473480 0.972080 0.793480 -0.037930
N19   N     N_R   0.973480 0.527920 0.793480 -0.036974
N20   N     N_R   0.973480 0.472080 0.793480 -0.037456
C29   C     C_R   0.753831 0.954588 0.305542 -0.198777
C30   C     C_R   0.753472 0.046421 0.304456 -0.102349
C31   C     C_R   0.255958 0.454624 0.304229 -0.174891
C32   C     C_R   0.252867 0.546550 0.303744 -0.123366
H21   H     H_    0.767608 0.912239 0.332086 0.084282
H22   H     H_    0.766429 0.089176 0.328818 0.088916
H23   H     H_    0.272634 0.412215 0.330353 0.087525
H24   H     H_    0.262608 0.589038 0.328873 0.094300
N21   N     N_R   0.681610 0.971120 0.207570 -0.031889
N22   N     N_R   0.681610 0.028880 0.207570 -0.041570
N23   N     N_R   0.181610 0.471120 0.207570 -0.033555
N24   N     N_R   0.181610 0.528880 0.207570 -0.042706
C33   C     C_R   0.645303 0.151988 0.092154 -0.134846
C34   C     C_R   0.689007 0.875684 0.092891 -0.126600
C35   C     C_R   0.189800 0.622969 0.092609 -0.137315
C36   C     C_R   0.145668 0.348371 0.093207 -0.125743
H25   H     H_    0.684762 0.164987 0.177071 0.084153
H26   H     H_    0.745955 0.871274 0.178313 0.093178
H27   H     H_    0.247318 0.627715 0.177780 0.085459
H28   H     H_    0.183294 0.335950 0.178155 0.087211
N25   N     N_R   0.605410 0.102620 0.056870 -0.041685
N26   N     N_R   0.605410 0.897380 0.056870 -0.040094
N27   N     N_R   0.105410 0.602620 0.056870 -0.041039
N28   N     N_R   0.105410 0.397380 0.056870 -0.039335
C37   C     C_R   0.598990 0.874514 0.909305 -0.123270
C38   C     C_R   0.553843 0.152571 0.909690 -0.122894
C39   C     C_R   0.054928 0.346743 0.910731 -0.135315
C40   C     C_R   0.099126 0.623896 0.909099 -0.146637
H29   H     H_    0.572684 0.868775 0.824213 0.099208
H30   H     H_    0.507246 0.165013 0.824885 0.082495
H31   H     H_    0.009360 0.333157 0.826336 0.092650
H32   H     H_    0.072071 0.629445 0.823855 0.094275
N29   N     N_R   0.549680 0.896430 0.944180 -0.041231
N30   N     N_R   0.549680 0.103570 0.944180 -0.042768
N31   N     N_R   0.049680 0.396430 0.944180 -0.040647
N32   N     N_R   0.049680 0.603570 0.944180 -0.042563
Ni1   Ni    Ni4+2 0.433410 0.064680 0.868830 0.202717
Ni2   Ni    Ni4+2 0.433410 0.935320 0.868830 0.212973
Ni3   Ni    Ni4+2 0.933410 0.564680 0.868830 0.202543
Ni4   Ni    Ni4+2 0.933410 0.435320 0.868830 0.210592
Ni5   Ni    Ni4+2 0.565650 0.934380 0.131170 0.209695
Ni6   Ni    Ni4+2 0.565650 0.065620 0.131170 0.212758
Ni7   Ni    Ni4+2 0.065650 0.434380 0.131170 0.210922
Ni8   Ni    Ni4+2 0.065650 0.565620 0.131170 0.211848
C41   C     C_R   0.435913 0.999883 0.633064 0.041800
C42   C     C_R   0.936467 0.499748 0.633221 0.041929
C43   C     C_R   0.798776 0.000778 0.368495 0.054191
C44   C     C_R   0.301396 0.501316 0.365616 0.076355
C45   C     C_R   0.611449 0.184809 0.001073 0.086069
C46   C     C_R   0.688174 0.861690 0.001868 0.078615
C47   C     C_R   0.188884 0.635664 0.001293 0.084898
C48   C     C_R   0.112131 0.314939 0.003155 0.078651
C49   C     C_3   0.022617 0.949735 0.637540 -0.495123
C50   C     C_3   0.023473 0.052990 0.635075 -0.506632
C51   C     C_3   0.516437 0.466597 0.656126 -0.491345
C52   C     C_3   0.533195 0.562282 0.607553 -0.542141
H33   H     H_    0.049170 0.911422 0.623336 0.142063
H34   H     H_    0.060113 0.091400 0.640903 0.145447
H35   H     H_    0.546498 0.424609 0.679088 0.110297
H36   H     H_    0.570165 0.589870 0.584556 0.129268
H37   H     H_    0.039518 0.947246 0.721715 0.186566
H38   H     H_    0.023585 0.051044 0.709863 0.212870
H39   H     H_    0.521403 0.483933 0.728644 0.197903
H40   H     H_    0.543798 0.578956 0.683752 0.186973
C53   C     C_3   0.914842 0.953378 0.550241 0.503984
C54   C     C_3   0.921916 0.057246 0.530586 0.524365
C55   C     C_3   0.412260 0.463295 0.555631 0.523627
C56   C     C_3   0.428713 0.562828 0.511735 0.537691
H41   H     H_    0.893061 0.912811 0.507244 -0.032308
H42   H     H_    0.921095 0.089251 0.476376 -0.029698
H43   H     H_    0.400186 0.420181 0.523557 -0.032832
H44   H     H_    0.421458 0.589140 0.445737 -0.039223
H45   H     H_    0.100982 0.963752 0.515213 0.182536
H46   H     H_    0.087886 0.037279 0.506194 0.173735
H47   H     H_    0.587754 0.438336 0.534681 0.169362
H48   H     H_    0.604800 0.506891 0.504997 0.182228
H49   H     H_    0.945755 0.950112 0.389159 0.196489
H50   H     H_    0.939199 0.022100 0.359247 0.199459
H51   H     H_    0.438846 0.441412 0.389466 0.196630
H52   H     H_    0.451576 0.511426 0.362933 0.199530
C57   C     C_3   0.060553 0.998626 0.518035 -0.421240
C58   C     C_3   0.562317 0.481533 0.523605 -0.408098
C59   C     C_3   0.072156 0.000469 0.628972 0.260085
C60   C     C_3   0.573404 0.503056 0.628656 0.272867
C61   C     C_3   0.895128 0.000936 0.468203 0.139278
C62   C     C_3   0.397656 0.502925 0.464749 0.141315
C63   C     C_3   0.957358 0.992093 0.425167 -0.588470
C64   C     C_3   0.459813 0.483252 0.426812 -0.610493
C65   C     C_R   0.282535 0.730457 0.895573 0.560738
C66   C     C_R   0.165366 0.199572 0.898116 0.563224
C67   C     C_R   0.681106 0.288025 0.893310 0.559788
C68   C     C_R   0.806147 0.775012 0.906317 0.573859
C69   C     C_R   0.613931 0.260796 0.898645 -0.334053
C70   C     C_R   0.752958 0.817922 0.906945 -0.307787
C71   C     C_R   0.245167 0.681231 0.902215 -0.333582
C72   C     C_R   0.103446 0.232227 0.905382 -0.321171
H53   H     H_    0.551820 0.246111 0.823215 0.122979
H54   H     H_    0.700793 0.837831 0.830119 0.145917
H55   H     H_    0.195622 0.658780 0.827728 0.131308
H56   H     H_    0.037869 0.244449 0.830577 0.125305
C73   C     C_R   0.637825 0.240970 0.999304 0.091071
C74   C     C_R   0.762954 0.832031 0.004579 0.077828
C75   C     C_R   0.262072 0.665244 0.001883 0.089826
C76   C     C_R   0.135021 0.257472 0.004973 0.084504
C77   C     C_R   0.711864 0.264698 0.096520 -0.166312
C78   C     C_R   0.838018 0.810022 0.104123 -0.164014
C79   C     C_R   0.337817 0.688012 0.099500 -0.166150
C80   C     C_R   0.210624 0.234925 0.102698 -0.163515
H57   H     H_    0.727595 0.253248 0.175626 0.115407
H58   H     H_    0.852838 0.822416 0.182367 0.116286
H59   H     H_    0.357627 0.673981 0.178971 0.113291
H60   H     H_    0.231926 0.250254 0.182200 0.117679
C81   C     C_R   0.381978 0.734105 0.095634 -0.235736
C82   C     C_R   0.269162 0.198346 0.098405 -0.230546
C83   C     C_R   0.774966 0.297272 0.093309 -0.239013
C84   C     C_R   0.886625 0.765309 0.103263 -0.228754
H61   H     H_    0.435461 0.752598 0.173287 0.132176
H62   H     H_    0.330803 0.184467 0.175699 0.130851
H63   H     H_    0.834358 0.313117 0.170502 0.132356
H64   H     H_    0.935122 0.745096 0.180821 0.135110
C85   C     C_R   0.349203 0.758973 0.994328 -0.006468
C86   C     C_R   0.253009 0.185314 0.996729 -0.011394
C87   C     C_R   0.765430 0.304480 0.993533 0.005113
C88   C     C_R   0.862588 0.743252 0.002997 -0.050431
C89   C     C_R   0.393904 0.949587 0.466040 -0.169859
C90   C     C_R   0.391191 0.049253 0.464564 -0.172455
C91   C     C_R   0.892225 0.450420 0.464114 -0.185016
C92   C     C_R   0.894009 0.550088 0.466592 -0.170404
H65   H     H_    0.395729 0.910357 0.500988 0.111981
H66   H     H_    0.390406 0.088555 0.498216 0.107351
H67   H     H_    0.892524 0.411085 0.497832 0.115126
H68   H     H_    0.895615 0.589307 0.501991 0.105396
C93   C     C_R   0.396817 0.949459 0.375303 -0.172716
C94   C     C_R   0.393965 0.049057 0.373643 -0.163446
C95   C     C_R   0.893740 0.450751 0.372293 -0.157959
C96   C     C_R   0.896063 0.550352 0.375250 -0.170899
H69   H     H_    0.400749 0.910191 0.343847 0.111860
H70   H     H_    0.394712 0.088176 0.339913 0.105436
H71   H     H_    0.894601 0.411622 0.338118 0.109867
H72   H     H_    0.899382 0.589645 0.343992 0.109379
C97   C     C_R   0.408604 0.999266 0.337788 0.147652
C98   C     C_R   0.907265 0.500624 0.336270 0.146789
C99   C     C_R   0.401719 0.999573 0.517953 0.139995
C100  C     C_R   0.902514 0.500051 0.518132 0.140620
O1    O     O_3   0.871583 0.964826 0.605417 -0.621092
C101  C     C_3   0.787083 0.935189 0.560084 0.210180
H73   H     H_    0.801701 0.890214 0.570511 0.084120
H74   H     H_    0.736112 0.944664 0.471595 0.103351
C102  C     C_3   0.742385 0.952342 0.619365 -0.226501
H75   H     H_    0.792758 0.944649 0.708911 0.196917
H76   H     H_    0.726509 0.997142 0.607205 0.215223
C103  C     C_3   0.651430 0.920887 0.576106 -1.061363
H77   H     H_    0.600051 0.928375 0.486835 0.277466
H78   H     H_    0.620040 0.935052 0.619467 0.282253
H79   H     H_    0.665733 0.876067 0.590260 0.269785
O2    O     O_3   0.857375 0.070325 0.557127 -0.625927
C104  C     C_3   0.859740 0.127058 0.579461 0.153312
H80   H     H_    0.838485 0.151879 0.505781 0.079721
H81   H     H_    0.931471 0.139388 0.649971 0.127392
C105  C     C_3   0.790784 0.138697 0.609716 -0.230163
H82   H     H_    0.718478 0.126900 0.539882 0.192934
H83   H     H_    0.810445 0.113504 0.682236 0.209011
C106  C     C_3   0.791389 0.199399 0.636819 -1.037588
H84   H     H_    0.862838 0.211886 0.707387 0.268681
H85   H     H_    0.741201 0.206366 0.659263 0.284981
H86   H     H_    0.769800 0.225323 0.564539 0.262425
O3    O     O_3   0.352297 0.478918 0.587675 -0.618412
C107  C     C_3   0.289748 0.436128 0.568689 0.180067
H87   H     H_    0.329974 0.400685 0.623447 0.086563
H88   H     H_    0.248527 0.422406 0.481405 0.087680
C108  C     C_3   0.220623 0.457319 0.593204 -0.202303
H89   H     H_    0.260334 0.471371 0.680072 0.199599
H90   H     H_    0.180880 0.492952 0.539079 0.209224
C109  C     C_3   0.150907 0.412805 0.574160 -1.060340
H91   H     H_    0.108585 0.399150 0.487015 0.270228
H92   H     H_    0.102379 0.429482 0.593516 0.283580
H93   H     H_    0.188877 0.376905 0.628164 0.268286
O4    O     O_3   0.373575 0.583734 0.546946 -0.618230
C110  C     C_3   0.374788 0.642027 0.548544 0.154632
H94   H     H_    0.324851 0.657986 0.463798 0.085699
H95   H     H_    0.446248 0.658725 0.581964 0.092343
C111  C     C_3   0.344702 0.662922 0.620910 -0.194598
H96   H     H_    0.271667 0.649139 0.586324 0.196982
H97   H     H_    0.392370 0.645483 0.704800 0.207660
C112  C     C_3   0.348911 0.725622 0.628583 -1.057873
H98   H     H_    0.421192 0.740306 0.661891 0.269819
H99   H     H_    0.330111 0.739654 0.684577 0.311824
H100  H     H_    0.298549 0.744006 0.546256 0.260032
O5    O     O_3   0.255751 0.749170 0.793619 -0.692984
C113  C     C_3   0.158956 0.763678 0.729146 0.128807
H101  H     H_    0.145429 0.796871 0.770385 0.104484
H102  H     H_    0.113598 0.727761 0.714422 0.112356
C114  C     C_3   0.130804 0.784523 0.617212 -0.241486
H103  H     H_    0.167290 0.823943 0.627860 0.178030
H104  H     H_    0.152687 0.754058 0.580026 0.214786
C115  C     C_3   0.024462 0.793135 0.538791 -1.075633
H105  H     H_    0.987508 0.753000 0.518095 0.270785
H106  H     H_    0.007138 0.812498 0.461764 0.270472
H107  H     H_    0.998776 0.820183 0.576564 0.265777
O6    O     O_3   0.139610 0.182413 0.795336 -0.697902
C116  C     C_3   0.131300 0.228057 0.730667 0.137946
H108  H     H_    0.181589 0.222013 0.708092 0.109737
H109  H     H_    0.149319 0.268679 0.773715 0.095434
C117  C     C_3   0.031738 0.230548 0.624573 -0.279586
H110  H     H_    0.017072 0.191919 0.577100 0.185830
H111  H     H_    0.979408 0.234532 0.644468 0.190303
C118  C     C_3   0.020211 0.279364 0.553565 -1.036838
H112  H     H_    0.031534 0.318612 0.598121 0.272942
H113  H     H_    0.947792 0.279543 0.476756 0.264805
H114  H     H_    0.071315 0.276410 0.531545 0.270227
O7    O     O_3   0.674182 0.286936 0.795524 -0.688867
C119  C     C_3   0.587545 0.308624 0.705678 0.143661
H115  H     H_    0.604359 0.341423 0.668257 0.111042
H116  H     H_    0.542596 0.327844 0.728625 0.081999
C120  C     C_3   0.532651 0.264301 0.617666 -0.232848
H117  H     H_    0.576291 0.248647 0.590333 0.202041
H118  H     H_    0.516657 0.229182 0.651742 0.183241
C121  C     C_3   0.440512 0.287305 0.518465 -1.078985
H119  H     H_    0.394841 0.302313 0.543389 0.263642
H120  H     H_    0.402489 0.254490 0.455683 0.271821
H121  H     H_    0.454846 0.321786 0.481323 0.268190
O8    O     O_3   0.792408 0.761555 0.807596 -0.688689
C122  C     C_3   0.877647 0.767469 0.816246 0.136367
H122  H     H_    0.870235 0.743688 0.747740 0.132477
H123  H     H_    0.939863 0.749876 0.893438 0.097481
C123  C     C_3   0.895409 0.827828 0.804871 -0.280483
H124  H     H_    0.831667 0.844885 0.729435 0.210995
H125  H     H_    0.909263 0.851737 0.876583 0.192065
C124  C     C_3   0.979291 0.833818 0.797981 -1.035466
H126  H     H_    0.043790 0.816175 0.872191 0.267583
H127  H     H_    0.991538 0.878049 0.792848 0.283689
H128  H     H_    0.965092 0.812580 0.723640 0.260005

loop_
_geom_bond_atom_site_label_1
_geom_bond_atom_site_label_2
_geom_bond_distance
_ccdc_geom_bond_type
C53   H41   1.115445 S    
C122  H122  1.111200 S    
C56   H44   1.119277 S    
C55   H43   1.119267 S    
N4    N7    1.404548 A    
C15   N15   1.327511 A    
C9    C21   1.385316 A    
C38   C45   1.376845 A    
C39   H31   1.080446 S    
C89   C99   1.401629 A    
C91   C95   1.382100 A    
C22   C98   1.455672 S    
C111  H97   1.111747 S    
N14   Ni1   1.858900 S    
C33   C45   1.381537 A    
C104  C105  1.527439 S    
C89   C93   1.380309 A    
C35   C47   1.386329 A    
C14   C23   1.384185 A    
N11   N12   1.359600 A    
C117  H110  1.111334 S    
C30   H22   1.080447 S    
C26   C41   1.379882 A    
C109  H92   1.110319 S    
C67   C69   1.385270 A    
C95   C98   1.402313 A    
C4    N4    1.317661 A    
C44   C62   1.460513 S    
C49   H37   1.112118 S    
C111  C112  1.527102 S    
C43   C61   1.463911 S    
C105  H82   1.112184 S    
N2    N5    1.404548 A    
C9    H9    1.072323 S    
C109  H93   1.110852 S    
C11   H11   1.078493 S    
C12   H12   1.073123 S    
C37   N29   1.338499 A    
N4    Ni4   1.858942 S    
C12   C22   1.383925 A    
C11   N11   1.333156 A    
O1    C101  1.411482 S    
C80   C82   1.376383 A    
C15   C24   1.388142 A    
C8    H8    1.079897 S    
N24   Ni8   1.871540 S    
N12   Ni7   1.861968 S    
C5    N5    1.334816 A    
C23   C59   1.463283 S    
C54   O2    1.420721 S    
C116  H109  1.118034 S    
C34   C46   1.387377 A    
C13   N13   1.326270 A    
C112  H99   1.107813 S    
C74   C78   1.399416 A    
C110  C111  1.526984 S    
C16   N16   1.315622 A    
C51   C60   1.551780 S    
C121  H121  1.111275 S    
C36   H28   1.080521 S    
C68   O8    1.384151 S    
C15   H15   1.071647 S    
N17   Ni1   1.850519 S    
N28   Ni7   1.836660 S    
C25   H17   1.080165 S    
C30   C43   1.377572 A    
C35   N27   1.334686 A    
C27   H19   1.079783 S    
C28   H20   1.080400 S    
C57   C63   1.515110 S    
C121  H120  1.110486 S    
C75   C79   1.395083 A    
C117  C118  1.527028 S    
C106  H86   1.111381 S    
C3    N3    1.337379 A    
C92   C100  1.402483 A    
C38   N30   1.318066 A    
C82   C86   1.406117 A    
C24   C60   1.463641 S    
N32   Ni3   1.904703 S    
C69   H53   1.075538 S    
C47   C75   1.458560 S    
C67   O7    1.389905 S    
C29   N21   1.325267 A    
N8    Ni8   1.870992 S    
C8    C19   1.382428 A    
C31   N23   1.326584 A    
H46   C57   1.114111 S    
C122  H123  1.114279 S    
C57   C59   1.544554 S    
C114  H103  1.110583 S    
C101  H74   1.109123 S    
C54   C61   1.565107 S    
N1    Ni1   1.850819 S    
C107  H87   1.113783 S    
C52   H40   1.113835 S    
O5    C113  1.418138 S    
C18   C85   1.474719 S    
C50   C54   1.543224 S    
H48   C58   1.114332 S    
C2    C18   1.383862 A    
C27   N19   1.330183 A    
C65   O5    1.385000 S    
C115  H105  1.110850 S    
C77   H57   1.081943 S    
C79   C81   1.380639 A    
C69   C73   1.392329 A    
C120  C121  1.527316 S    
C124  H127  1.108597 S    
C93   C97   1.400050 A    
C103  H77   1.109365 S    
C39   N31   1.327131 A    
C104  H80   1.114145 S    
C91   H67   1.080711 S    
C96   H72   1.080692 S    
C118  H114  1.110862 S    
C119  H115  1.106706 S    
C25   C41   1.380878 A    
C17   C86   1.460318 S    
C16   C24   1.380079 A    
C102  H75   1.111418 S    
N25   Ni6   1.844617 S    
C49   C59   1.553973 S    
C51   C55   1.549527 S    
C20   C87   1.457721 S    
C68   C70   1.393845 A    
N27   Ni8   1.844617 S    
C49   H33   1.109766 S    
C51   H35   1.106596 S    
C71   H55   1.080616 S    
O7    C119  1.418767 S    
C56   O4    1.421463 S    
C108  H90   1.112203 S    
N21   Ni5   1.874977 S    
C28   N20   1.332772 A    
C21   C97   1.454769 S    
C10   H10   1.077952 S    
C72   C76   1.390566 A    
C92   C96   1.380478 A    
C94   C97   1.400874 A    
C37   H29   1.079441 S    
N29   Ni2   1.901026 S    
O4    C110  1.417441 S    
C29   C43   1.379983 A    
C112  H100  1.110872 S    
N5    Ni5   1.874612 S    
N7    Ni7   1.874612 S    
C107  C108  1.528484 S    
C5    H5    1.079159 S    
C6    N6    1.333049 A    
C113  H101  1.114890 S    
C91   C100  1.400730 A    
C32   N24   1.313220 A    
C90   H66   1.080509 S    
C115  H107  1.109136 S    
C40   H32   1.078703 S    
C104  H81   1.112700 S    
C31   C44   1.383637 A    
C105  C106  1.526693 S    
C13   H13   1.077581 S    
C14   N14   1.320359 A    
N2    Ni2   1.858942 S    
C5    C18   1.394699 A    
C13   C23   1.388530 A    
C45   C73   1.447296 S    
C80   H60   1.081338 S    
C117  H111  1.109693 S    
N15   Ni4   1.855529 S    
C120  H117  1.111527 S    
C73   C77   1.391599 A    
N9    Ni6   1.870058 S    
C36   N28   1.328295 A    
N26   Ni5   1.836660 S    
C103  H79   1.110424 S    
C33   H25   1.080801 S    
N11   Ni8   1.870058 S    
C76   C80   1.393669 A    
C9    N9    1.334707 A    
C26   H18   1.079933 S    
C35   H27   1.077001 S    
C40   C47   1.389966 A    
C108  H89   1.111574 S    
C119  C120  1.531158 S    
O2    C104  1.412573 S    
C105  H83   1.112175 S    
N13   N14   1.404337 A    
C102  C103  1.526099 S    
C7    H7    1.078139 S    
C55   C62   1.561290 S    
C1    H1    1.067043 S    
C3    H3    1.076697 S    
C123  H124  1.107809 S    
C120  H118  1.109810 S    
C38   H30   1.079387 S    
C90   C94   1.381616 A    
N30   Ni1   1.904703 S    
O8    C122  1.417787 S    
C82   H62   1.079730 S    
C70   H54   1.082212 S    
C81   C85   1.407350 A    
H50   C63   1.114823 S    
N6    Ni6   1.870992 S    
O3    C107  1.412681 S    
C84   C88   1.402354 A    
C29   H21   1.079940 S    
C61   C63   1.554885 S    
C71   C75   1.393239 A    
C78   H58   1.079729 S    
C62   C64   1.551469 S    
C92   H68   1.079961 S    
C52   H36   1.112660 S    
C33   N25   1.333801 A    
C116  H108  1.110496 S    
C110  H95   1.115254 S    
C52   C56   1.531871 S    
N19   N20   1.357655 A    
C67   C87   1.419244 A    
C77   C83   1.377773 A    
C1    N1    1.321435 A    
C41   C99   1.454993 S    
C123  C124  1.525471 S    
C3    C19   1.388629 A    
C111  H96   1.111780 S    
C34   H26   1.076468 S    
C83   H63   1.080431 S    
C114  C115  1.527507 S    
C56   C62   1.569854 S    
C70   C74   1.401889 A    
C72   H56   1.079372 S    
C36   C48   1.375483 A    
C109  H91   1.110646 S    
C106  H85   1.110420 S    
C7    C20   1.394460 A    
H51   C64   1.114196 S    
C68   C88   1.416881 A    
C55   O3    1.422103 S    
C78   C84   1.377871 A    
C51   H39   1.113193 S    
C25   N17   1.331113 A    
C39   C48   1.380919 A    
C32   C44   1.369488 A    
C34   N26   1.331376 A    
C66   C86   1.420892 A    
C112  H98   1.111016 S    
C27   C42   1.379022 A    
C107  H88   1.113117 S    
N16   Ni3   1.858900 S    
O6    C116  1.423911 S    
C12   N12   1.332518 A    
C115  H106  1.110533 S    
C116  C117  1.530685 S    
N21   N22   1.404337 A    
H52   C64   1.114587 S    
C31   H23   1.081507 S    
N25   N30   1.371836 A    
C30   N22   1.321317 A    
C124  H126  1.111002 S    
C6    H6    1.075271 S    
N27   N32   1.371836 A    
C4    H4    1.070477 S    
C103  H78   1.110656 S    
C11   C22   1.386154 A    
H45   C57   1.114381 S    
C4    C20   1.378191 A    
C53   C61   1.572777 S    
C118  H113  1.110486 S    
C119  H116  1.116410 S    
C14   H14   1.073453 S    
C121  H119  1.111099 S    
N1    N6    1.404438 A    
C6    C17   1.393978 A    
C46   C74   1.462620 S    
N3    N8    1.404438 A    
C42   C100  1.455880 S    
N28   N31   1.371718 A    
C90   C99   1.401289 A    
C26   N18   1.331070 A    
H47   C58   1.113094 S    
N31   Ni4   1.901026 S    
C28   C42   1.382261 A    
C65   C71   1.394610 A    
C66   C72   1.386913 A    
C7    N7    1.333603 A    
C52   C60   1.550001 S    
C8    N8    1.329646 A    
C58   C64   1.514250 S    
C2    H2    1.073379 S    
N18   Ni2   1.858457 S    
C10   N10   1.330984 A    
C66   O6    1.386575 S    
C122  C123  1.530951 S    
C114  H104  1.111406 S    
C81   H61   1.078724 S    
C101  H73   1.112647 S    
C48   C76   1.447069 S    
C79   H59   1.080826 S    
C95   H71   1.080825 S    
C84   H64   1.079695 S    
C50   H34   1.106948 S    
C113  H102  1.111958 S    
N26   N29   1.371718 A    
N15   N16   1.404337 A    
C16   H16   1.076842 S    
N9    N10   1.359600 A    
C32   H24   1.077399 S    
N22   Ni6   1.871540 S    
C118  H112  1.111193 S    
N3    Ni3   1.850819 S    
C124  H128  1.110679 S    
C58   C60   1.550077 S    
C113  C114  1.529599 S    
C37   C46   1.391710 A    
C2    N2    1.329324 A    
C10   C21   1.382046 A    
N13   Ni2   1.855529 S    
C93   H69   1.080508 S    
C101  C102  1.528730 S    
C83   C87   1.408125 A    
C54   H42   1.117695 S    
C110  H94   1.111711 S    
C102  H76   1.112148 S    
N23   Ni7   1.874977 S    
C53   O1    1.422116 S    
C50   C59   1.559245 S    
C40   N32   1.332766 A    
C123  H125  1.111328 S    
N19   Ni3   1.850519 S    
C89   H65   1.080124 S    
C108  C109  1.526639 S    
C65   C85   1.421294 A    
N23   N24   1.404337 A    
H49   C63   1.114514 S    
N17   N18   1.357655 A    
C94   H70   1.081141 S    
C96   C98   1.399164 A    
C106  H84   1.111167 S    
N10   Ni5   1.861968 S    
N20   Ni4   1.858457 S    
C49   C53   1.548665 S    
C1    C17   1.377312 A    
C50   H38   1.113308 S    
C19   C88   1.470258 S    
