data_mof_unit_60167.cif
_audit_creation_date              2012-12-10T16:55:28-0500
_audit_creation_method            fapswitch 2.2
_symmetry_space_group_name_H-M    P1
_symmetry_Int_Tables_number       1
_space_group_crystal_system       triclinic
_cell_length_a                    11.712099
_cell_length_b                    10.933063
_cell_length_c                    9.69491
_cell_angle_alpha                 90.979868
_cell_angle_beta                  90.021503
_cell_angle_gamma                 90.112028
_cell_volume                      1241.24064216

loop_
_atom_site_label
_atom_site_type_symbol
_atom_type_description
_atom_site_fract_x
_atom_site_fract_y
_atom_site_fract_z
_atom_type_partial_charge
C1    C     C_R   0.496441 0.265201 0.498475 0.906975
C2    C     C_2   0.484825 0.866420 0.506526 -0.394363
C3    C     C_2   0.450629 0.062562 0.394227 0.481422
C4    C     C_2   0.498824 0.132609 0.494953 -0.445556
C5    C     C_2   0.425317 0.440607 0.921060 -0.037388
C6    C     C_2   0.420606 0.448224 0.076528 0.022527
C7    C     C_R   0.284000 0.499914 0.499980 0.845046
C8    C     C_R   0.497121 0.734704 0.501339 0.878690
C9    C     C_R   0.716007 0.499961 0.500004 0.814119
C10   C     C_1   0.162338 0.499732 0.499925 -0.136057
C11   C     C_1   0.059900 0.499658 0.499909 0.023052
C12   C     C_1   0.940140 0.499701 0.499946 0.017301
C13   C     C_1   0.837695 0.499811 0.499991 -0.157395
C14   C     C_2   0.468797 0.929940 0.391513 -0.192102
Cu1   Cu    Cu3+1 0.500020 0.500020 0.638630 0.971174
Cu2   Cu    Cu3+1 0.499980 0.499980 0.361370 1.013151
H1    H     H_    0.463900 0.882919 0.292026 0.215659
H2    H     H_    0.481613 0.909886 0.607879 0.167284
H3    H     H_    0.547979 0.091831 0.576966 0.130913
H4    H     H_    0.361390 0.384726 0.868963 0.165757
H5    H     H_    0.554828 0.557535 0.895280 0.196371
H6    H     H_    0.347949 0.406254 0.126376 0.199982
H7    H     H_    0.570562 0.532519 0.106521 0.194396
N1    N     N_2   0.498780 0.498660 0.846910 -0.284596
N2    N     N_2   0.498750 0.498630 0.153040 -0.285445
O1    O     O_R   0.500020 0.321960 0.617040 -0.578696
O2    O     O_R   0.499980 0.321920 0.382900 -0.502428
O3    O     O_R   0.337220 0.500030 0.617070 -0.584117
O4    O     O_R   0.337180 0.499990 0.382930 -0.558509
O5    O     O_R   0.500020 0.678080 0.617100 -0.577662
O6    O     O_R   0.499980 0.678040 0.382960 -0.576517
O7    O     O_R   0.662820 0.500010 0.617070 -0.571426
O8    O     O_R   0.662780 0.499970 0.382930 -0.576010
S1    S     S_3+6 0.365013 0.120965 0.259564 -0.002926
O9    O     O_2   0.287490 0.219905 0.314244 -0.316460
O10   O     O_2   0.441483 0.171567 0.149879 -0.305300
O11   O     O_3   0.285211 0.007570 0.190184 -0.535896
H8    H     H_    0.243683 0.045645 0.112981 0.375031

loop_
_geom_bond_atom_site_label_1
_geom_bond_atom_site_label_2
_ccdc_geom_bond_type
C7    C10   S    
C11   C12   S    
O11   H8    S    
C7    O4    A    
Cu2   O8    S    
C2    H2    S    
S1    O11   S    
C4    H3    S    
C3    S1    S    
C1    C4    S    
C8    O5    A    
Cu2   O2    S    
Cu1   O7    S    
C5    H4    S    
Cu2   O6    S    
C9    O8    A    
C5    N1    D    
C14   H1    S    
Cu1   O3    S    
C5    C6    S    
C3    C14   S    
Cu1   N1    S    
S1    O10   D    
H7    N2    S    
C1    O1    A    
C2    C14   D    
C6    N2    D    
C10   C11   T    
Cu1   Cu2   S    
C6    H6    S    
C12   C13   T    
Cu1   O5    S    
S1    O9    D    
H5    N1    S    
Cu2   N2    S    
C1    O2    A    
C9    C13   S    
Cu1   O1    S    
C9    O7    A    
Cu2   O4    S    
C8    O6    A    
C2    C8    S    
C7    O3    A    
C3    C4    D    
