data_mof_unit_17094.cif
_audit_creation_date              2012-12-10T19:04:43-0500
_audit_creation_method            fapswitch 2.2
_symmetry_space_group_name_H-M    P1
_symmetry_Int_Tables_number       1
_space_group_crystal_system       triclinic
_cell_length_a                    15.862016
_cell_length_b                    10.822132
_cell_length_c                    9.548507
_cell_angle_alpha                 89.877646
_cell_angle_beta                  90.022056
_cell_angle_gamma                 90.093628
_cell_volume                      1639.09860072

loop_
_atom_site_label
_atom_site_type_symbol
_atom_type_description
_atom_site_fract_x
_atom_site_fract_y
_atom_site_fract_z
_atom_type_partial_charge
C1    C     C_R   0.501305 0.262375 0.500119 0.797198
C2    C     C_3   0.082762 0.500762 0.500025 0.131780
C3    C     C_3   0.972230 0.563258 0.613204 -0.212142
C4    C     C_3   0.917231 0.502157 0.500074 0.135753
C5    C     C_3   0.028635 0.618486 0.495926 -0.123416
C6    C     C_3   0.972123 0.557393 0.382797 -0.211547
C7    C     C_1   0.174458 0.500516 0.499962 -0.059667
C8    C     C_1   0.825507 0.501425 0.500114 -0.021459
C9    C     C_R   0.504467 0.063515 0.626042 0.140567
C10   C     C_R   0.509009 0.129339 0.500481 -0.097431
C11   C     C_R   0.524335 0.064891 0.375483 -0.212975
C12   C     C_R   0.339813 0.499973 0.499959 0.823910
C13   C     C_R   0.523922 0.936159 0.375400 -0.216436
C14   C     C_R   0.508441 0.870973 0.500259 -0.098130
C15   C     C_R   0.504168 0.936261 0.626005 0.119937
C16   C     C_3   0.439661 0.930046 0.739917 -0.467762
C17   C     C_3   0.440246 0.070275 0.740078 -0.474706
C18   C     C_R   0.569899 0.536473 0.073435 0.269553
C19   C     C_R   0.434573 0.451180 0.074446 -0.083071
C20   C     C_R   0.434568 0.451167 0.925669 -0.085434
C21   C     C_R   0.569974 0.536156 0.926224 0.269840
C22   C     C_3   0.612812 0.658601 0.919275 -0.504062
C23   C     C_R   0.501088 0.737719 0.499924 0.796892
C24   C     C_3   0.612183 0.659498 0.078373 -0.509540
C25   C     C_R   0.660180 0.500203 0.500048 0.826267
C26   C     C_3   0.972490 0.386899 0.504087 0.512286
C27   C     C_3   0.027912 0.439755 0.385961 -0.250576
C28   C     C_1   0.250047 0.500234 0.499931 -0.195263
C29   C     C_1   0.749926 0.500810 0.500105 -0.176116
C30   C     C_3   0.028023 0.445663 0.618232 -0.251205
Cu1   Cu    Cu3+1 0.500000 0.499980 0.640670 0.942948
Cu2   Cu    Cu3+1 0.500000 0.500020 0.359330 0.942442
H1    H     H_    0.051869 0.388867 0.293377 0.130967
H2    H     H_    0.465246 0.889595 0.838115 0.195119
H3    H     H_    0.379743 0.111635 0.704505 0.190352
H4    H     H_    0.466650 0.110340 0.837864 0.201083
H5    H     H_    0.381039 0.413159 0.129837 0.143793
H6    H     H_    0.381045 0.413100 0.870395 0.142407
H7    H     H_    0.677248 0.651648 0.874289 0.197645
H8    H     H_    0.572622 0.731515 0.872016 0.213333
H9    H     H_    0.676265 0.654132 0.125110 0.198543
H10   H     H_    0.570958 0.732369 0.122450 0.206604
H11   H     H_    0.947808 0.603791 0.287208 0.144346
H12   H     H_    0.053447 0.714429 0.492554 0.131048
H13   H     H_    0.948006 0.614458 0.705380 0.144332
H14   H     H_    0.052072 0.399578 0.714193 0.130725
H15   H     H_    0.532789 0.113285 0.277060 0.167233
H16   H     H_    0.531901 0.888554 0.276955 0.155990
H17   H     H_    0.378853 0.889712 0.704048 0.197961
N1    N     N_R   0.500530 0.500930 0.147930 -0.186603
N2    N     N_R   0.500530 0.500890 0.852020 -0.186076
O1    O     O_R   0.500000 0.319640 0.618810 -0.577671
O2    O     O_R   0.500010 0.319680 0.381230 -0.585749
O3    O     O_R   0.379070 0.499970 0.618770 -0.583221
O4    O     O_R   0.379080 0.500010 0.381190 -0.579954
O5    O     O_R   0.499990 0.680320 0.618770 -0.579186
O6    O     O_R   0.500000 0.680360 0.381190 -0.583567
O7    O     O_R   0.620920 0.499990 0.618810 -0.575707
O8    O     O_R   0.620930 0.500030 0.381230 -0.576155
O9    O     O_3   0.936874 0.267375 0.508283 -0.578451
C31   C     C_3   0.001806 0.178532 0.511388 0.063005
H18   H     H_    0.041807 0.189832 0.606334 0.134814
H19   H     H_    0.041894 0.185184 0.415995 0.135181
C32   C     C_3   0.962871 0.050018 0.515633 -0.778179
H20   H     H_    0.923254 0.034997 0.421229 0.249864
H21   H     H_    0.013431 0.979164 0.518121 0.187896
H22   H     H_    0.923159 0.039610 0.610726 0.249839

loop_
_geom_bond_atom_site_label_1
_geom_bond_atom_site_label_2
_ccdc_geom_bond_type
C14   C23   S    
C3    C30   S    
C4    C26   S    
C2    C27   S    
C17   H4    S    
Cu1   O5    S    
C13   H16   S    
C18   C21   A    
C24   H10   S    
C9    C10   A    
Cu2   O4    S    
C11   H15   S    
C2    C7    S    
C18   N1    A    
C2    C30   S    
Cu1   O1    S    
C4    C8    S    
C22   H8    S    
C32   H20   S    
C19   C20   A    
C31   H19   S    
C9    C15   A    
C23   O5    A    
C21   C22   S    
C27   H1    S    
C31   C32   S    
C24   H9    S    
C11   C13   A    
C19   N1    A    
Cu2   N1    S    
C26   C27   S    
C5    C6    S    
Cu2   O6    S    
C12   C28   S    
C18   C24   S    
C22   H7    S    
Cu1   O7    S    
C9    C17   S    
C5    H12   S    
C3    H13   S    
C26   C30   S    
C20   N2    A    
C6    H11   S    
Cu1   O3    S    
C25   C29   S    
C31   H18   S    
C1    O1    A    
C22   C24   S    
C12   O4    A    
C19   H5    S    
C25   O7    A    
C8    C29   T    
C15   C16   S    
C2    C5    S    
C32   H22   S    
Cu2   O2    S    
C21   N2    A    
C20   H6    S    
C16   H17   S    
C3    C4    S    
C4    C6    S    
C10   C11   A    
C23   O6    A    
C1    O2    A    
C14   C15   A    
O9    C31   S    
C25   O8    A    
C17   H3    S    
Cu2   O8    S    
C16   H2    S    
C13   C14   A    
C26   O9    S    
C1    C10   S    
C30   H14   S    
Cu1   Cu2   S    
C12   O3    A    
C7    C28   T    
C6    C27   S    
Cu1   N2    S    
C16   C17   S    
C3    C5    S    
C32   H21   S    
