data_mof_unit_29452.cif
_audit_creation_date              2012-10-26T20:17:40-0400
_audit_creation_method            fapswitch 2.2
_symmetry_space_group_name_H-M    P1
_symmetry_Int_Tables_number       1
_space_group_crystal_system       triclinic
_cell_length_a                    27.768494
_cell_length_b                    8.674279
_cell_length_c                    7.44689
_cell_angle_alpha                 102.929611
_cell_angle_beta                  94.825381
_cell_angle_gamma                 93.021079
_cell_volume                      1737.33841579

loop_
_atom_site_label
_atom_site_type_symbol
_atom_type_description
_atom_site_fract_x
_atom_site_fract_y
_atom_site_fract_z
_atom_type_partial_charge
C1    C     C_R   0.498509 0.199632 0.453166 0.554725
C2    C     C_R   0.867938 0.367010 0.447750 0.009227
C3    C     C_R   0.354376 0.491808 0.502491 0.006958
C4    C     C_R   0.645622 0.508187 0.497511 0.006862
C5    C     C_R   0.969702 0.354666 0.441829 0.032005
C6    C     C_R   0.030322 0.645072 0.558760 0.032018
C7    C     C_R   0.979011 0.647803 0.543254 0.038230
C8    C     C_R   0.021012 0.351939 0.457365 0.038226
C9    C     C_R   0.949226 0.503175 0.495613 0.020643
C10   C     C_R   0.050796 0.496565 0.504958 0.020653
C11   C     C_R   0.937279 0.217003 0.367596 0.054516
C12   C     C_R   0.501490 0.800368 0.546834 0.554723
C13   C     C_R   0.062748 0.782735 0.632947 0.054514
C14   C     C_R   0.887893 0.223166 0.384915 -0.080514
C15   C     C_R   0.112128 0.776580 0.615503 -0.080512
C16   C     C_R   0.407427 0.497935 0.501071 0.552768
C17   C     C_R   0.592573 0.502073 0.498930 0.552727
C18   C     C_R   0.043947 0.209140 0.443066 -0.078297
C19   C     C_R   0.956079 0.790610 0.557604 -0.078304
C20   C     C_2   0.497820 0.031694 0.426789 -0.147231
C21   C     C_2   0.502180 0.968306 0.573211 -0.147234
C22   C     C_R   0.173622 0.343323 0.465939 0.407719
C23   C     C_R   0.101921 0.491579 0.506808 -0.030370
C24   C     C_R   0.826396 0.656430 0.534425 0.407630
C25   C     C_R   0.182325 0.625853 0.548221 0.406756
C26   C     C_R   0.817688 0.373895 0.451997 0.406728
C27   C     C_R   0.274146 0.462556 0.335932 -0.051085
C28   C     C_R   0.725866 0.539680 0.664308 -0.051160
C29   C     C_R   0.324367 0.468733 0.335345 -0.135410
C30   C     C_R   0.675645 0.533588 0.664893 -0.135625
C31   C     C_R   0.333167 0.507239 0.669913 -0.139072
C32   C     C_R   0.666814 0.490341 0.329817 -0.139269
C33   C     C_R   0.282887 0.501489 0.670056 -0.051374
C34   C     C_R   0.898099 0.508164 0.493677 -0.030362
C35   C     C_R   0.717094 0.495969 0.329689 -0.051505
C36   C     C_R   0.253349 0.479553 0.503161 0.245713
C37   C     C_R   0.746651 0.520222 0.496846 0.245415
C38   C     C_R   0.123118 0.345186 0.467511 0.031566
C39   C     C_R   0.876902 0.654559 0.532989 0.031592
C40   C     C_R   0.093798 0.204809 0.440920 -0.073886
C41   C     C_R   0.906226 0.794941 0.559696 -0.073901
C42   C     C_R   0.132078 0.632738 0.552618 0.009198
Cu1   Cu    Cu3+1 0.505380 0.517380 0.684380 0.965276
Cu2   Cu    Cu3+1 0.494620 0.482620 0.315620 0.965271
H1    H     H_    0.355341 0.524596 0.800605 0.131239
H2    H     H_    0.339620 0.456056 0.204107 0.131319
H3    H     H_    0.748657 0.557359 0.793646 0.131694
H4    H     H_    0.251364 0.446693 0.206814 0.131215
H5    H     H_    0.864387 0.115808 0.333457 0.194244
H6    H     H_    0.135635 0.883940 0.666907 0.194224
H7    H     H_    0.024177 0.099637 0.443853 0.159864
H8    H     H_    0.975850 0.900124 0.556880 0.159868
H9    H     H_    0.493732 0.959913 0.285766 0.136148
H10   H     H_    0.506267 0.040087 0.714234 0.136132
H11   H     H_    0.644627 0.471090 0.198910 0.131601
H12   H     H_    0.461975 0.376844 0.948117 0.238787
H13   H     H_    0.538025 0.623157 0.051883 0.238830
H14   H     H_    0.266824 0.515443 0.799801 0.125997
H15   H     H_    0.733142 0.480134 0.199773 0.126555
H16   H     H_    0.109346 0.091072 0.424117 0.178152
H17   H     H_    0.890681 0.908685 0.576522 0.178176
H18   H     H_    0.660403 0.548211 0.796332 0.131498
I1    I     I_    0.951595 0.007553 0.171625 -0.368178
I2    I     I_    0.048453 0.992148 0.829024 -0.368097
N1    N     N_R   0.201924 0.482644 0.504399 -0.401779
N2    N     N_R   0.798085 0.517109 0.495792 -0.401726
N3    N     N_2   0.486510 0.456430 0.038510 -0.258172
N4    N     N_2   0.513490 0.543570 0.961490 -0.258159
O1    O     O_R   0.503500 0.286120 0.619780 -0.504107
O2    O     O_2   0.805716 0.795899 0.572841 -0.463841
O3    O     O_2   0.788544 0.238649 0.411823 -0.465743
O4    O     O_2   0.211470 0.761089 0.588333 -0.465554
O5    O     O_R   0.496500 0.713880 0.380220 -0.504101
O6    O     O_R   0.494410 0.256780 0.308360 -0.495037
O7    O     O_R   0.505590 0.743220 0.691640 -0.495042
O8    O     O_R   0.434810 0.514700 0.655690 -0.506902
O9    O     O_R   0.565190 0.485300 0.344310 -0.506946
O10   O     O_R   0.425720 0.485350 0.344280 -0.502535
O11   O     O_R   0.574280 0.514650 0.655720 -0.502535
O12   O     O_2   0.194305 0.203868 0.427484 -0.463639

loop_
_geom_bond_atom_site_label_1
_geom_bond_atom_site_label_2
_ccdc_geom_bond_type
C27   H4    S    
C28   H3    S    
C33   H14   S    
C40   H16   S    
C27   C29   A    
C41   H17   S    
C24   C39   A    
C24   O2    S    
C39   C41   A    
C23   C42   A    
C1    O6    A    
Cu2   O9    S    
C35   C37   A    
C5    C11   A    
C11   I1    S    
C30   H18   S    
C21   H10   S    
C11   C14   A    
C14   H5    S    
Cu1   O11   S    
C22   C38   A    
C17   O11   A    
C33   C36   A    
C35   H15   S    
C15   H6    S    
C3    C29   A    
C18   C40   A    
C19   H8    S    
Cu1   N4    S    
C31   C33   A    
C32   H11   S    
C24   N2    A    
C2    C34   A    
Cu1   O1    S    
C12   O5    A    
C26   O3    S    
C18   H7    S    
Cu1   O7    S    
N3    N4    D    
C26   N2    A    
C32   C35   A    
C25   N1    A    
C36   N1    S    
C12   C21   S    
C1    O1    A    
C34   C39   A    
Cu2   O6    S    
Cu1   Cu2   S    
C22   N1    A    
C5    C9    A    
C37   N2    S    
C17   O9    A    
C2    C26   A    
C25   O4    S    
C3    C31   A    
C4    C32   A    
C4    C17   S    
C7    C19   A    
C13   C15   A    
C9    C34   A    
C10   C23   A    
H13   N4    S    
H12   N3    S    
Cu1   O8    S    
C7    C9    A    
C1    C20   S    
C16   O8    A    
C15   C42   A    
C20   H9    S    
C25   C42   A    
C6    C10   A    
C5    C8    A    
C6    C7    A    
C27   C36   A    
C23   C38   A    
C29   H2    S    
C28   C30   A    
C22   O12   S    
C6    C13   A    
C38   C40   A    
C13   I2    S    
C28   C37   A    
Cu2   O10   S    
C16   O10   A    
Cu2   O5    S    
C2    C14   A    
C8    C18   A    
C20   C21   D    
C8    C10   A    
C31   H1    S    
C12   O7    A    
Cu2   N3    S    
C4    C30   A    
C3    C16   S    
C19   C41   A    
