data_mof_unit_28026.cif
_audit_creation_date              2012-10-26T18:33:35-0400
_audit_creation_method            fapswitch 2.2
_symmetry_space_group_name_H-M    P1
_symmetry_Int_Tables_number       1
_space_group_crystal_system       triclinic
_cell_length_a                    15.103602
_cell_length_b                    13.699884
_cell_length_c                    10.953094
_cell_angle_alpha                 90.136134
_cell_angle_beta                  87.232905
_cell_angle_gamma                 90.492547
_cell_volume                      2263.65731674

loop_
_atom_site_label
_atom_site_type_symbol
_atom_type_description
_atom_site_fract_x
_atom_site_fract_y
_atom_site_fract_z
_atom_type_partial_charge
C1    C     C_R   0.328488 0.499266 0.496029 0.544329
C2    C     C_R   0.038026 0.592180 0.674246 -0.024306
C3    C     C_R   0.087409 0.541652 0.583092 0.011576
C4    C     C_R   0.500362 0.500080 0.260211 0.594907
C5    C     C_R   0.046192 0.510597 0.476865 -0.004142
C6    C     C_R   0.097531 0.470402 0.378025 -0.035023
C7    C     C_R   0.054881 0.442500 0.272095 -0.059173
C8    C     C_R   0.962904 0.446539 0.266444 0.274090
C9    C     C_R   0.177579 0.521959 0.595629 -0.073007
C10   C     C_R   0.230868 0.497346 0.491572 0.011823
C11   C     C_R   0.190884 0.464223 0.385728 0.224524
C12   C     C_3   0.603428 0.512118 0.925866 -0.033855
C13   C     C_R   0.439805 0.793357 0.572843 0.062006
C14   C     C_R   0.442059 0.205854 0.576418 0.014528
C15   C     C_R   0.560120 0.792223 0.424281 0.402674
C16   C     C_R   0.559136 0.208470 0.422916 0.419005
C17   C     C_R   0.560147 0.896231 0.419405 -0.007882
C18   C     C_R   0.559732 0.104469 0.418921 -0.006343
C19   C     C_R   0.671160 0.500533 0.492705 0.571832
C20   C     C_R   0.500957 0.948045 0.498791 0.026553
C21   C     C_R   0.501108 0.051905 0.499067 0.026330
C22   C     C_R   0.440301 0.896136 0.576364 -0.005935
C23   C     C_R   0.816371 0.466454 0.377049 0.220749
C24   C     C_R   0.441487 0.103019 0.578213 -0.012214
C25   C     C_R   0.614740 0.949643 0.335230 -0.130470
C26   C     C_R   0.614358 0.051714 0.334769 -0.119166
C27   C     C_R   0.381930 0.050374 0.656061 -0.096883
C28   C     C_R   0.381059 0.947912 0.654733 -0.091113
C29   C     C_R   0.502924 0.500172 0.740488 0.556547
C30   C     C_3   0.432164 0.580746 0.079259 0.399080
C31   C     C_3   0.469177 0.395907 0.078047 0.468984
C32   C     C_3   0.445728 0.593711 0.935051 0.009605
C33   C     C_3   0.460150 0.398349 0.933538 -0.026432
C34   C     C_R   0.767801 0.503595 0.480667 0.008040
C35   C     C_3   0.595097 0.522562 0.069195 -0.393053
C36   C     C_3   0.499099 0.500330 0.123382 0.021984
C37   C     C_3   0.503397 0.500881 0.879683 -0.124909
C38   C     C_2   0.211974 0.500940 0.717038 0.253016
C39   C     C_2   0.356846 0.605778 0.875315 0.382984
C40   C     C_2   0.364542 0.388326 0.893396 0.265596
C41   C     C_2   0.492548 0.692892 0.909093 0.327660
C42   C     C_2   0.501145 0.303326 0.881585 0.193490
C43   C     C_2   0.658746 0.598631 0.876496 0.222386
C44   C     C_2   0.663961 0.427884 0.888102 0.187508
C45   C     C_R   0.810983 0.550550 0.573458 -0.135015
C46   C     C_2   0.898600 0.658888 0.767598 0.227112
C47   C     C_R   0.903027 0.557105 0.572123 -0.030019
C48   C     C_R   0.953058 0.515509 0.472563 -0.020195
C49   C     C_R   0.910022 0.476391 0.370588 0.057355
C50   C     C_R   0.946426 0.601438 0.669868 0.018262
Cu1   Cu    Cu3+1 0.499990 0.597420 0.500010 1.080547
Cu2   Cu    Cu3+1 0.499990 0.402580 0.500010 1.075631
H1    H     H_    0.071389 0.627952 0.747547 0.214283
H2    H     H_    0.643845 0.476087 0.113723 0.127366
H3    H     H_    0.771435 0.576876 0.650461 0.181606
H4    H     H_    0.504175 0.689122 0.147392 0.322970
H5    H     H_    0.587775 0.332234 0.069979 0.307770
H6    H     H_    0.278678 0.475579 0.720855 0.067059
H7    H     H_    0.212650 0.366367 0.260267 0.345164
H8    H     H_    0.883509 0.474282 0.139448 0.365021
H9    H     H_    0.675886 0.772193 0.344911 0.298892
H10   H     H_    0.674187 0.230937 0.342033 0.317036
H11   H     H_    0.333595 0.560229 0.199227 0.392489
H12   H     H_    0.092278 0.420075 0.190241 0.194744
H13   H     H_    0.376408 0.300052 0.122307 0.383007
H14   H     H_    0.354347 0.598264 0.777774 0.061369
H15   H     H_    0.353559 0.359153 0.803169 0.084730
H16   H     H_    0.548477 0.715849 0.960364 0.112493
H17   H     H_    0.555673 0.301877 0.814739 0.191023
H18   H     H_    0.712939 0.626335 0.928786 0.116885
H19   H     H_    0.698856 0.386843 0.954968 0.126509
H20   H     H_    0.710510 0.426041 0.292690 0.340478
H21   H     H_    0.834988 0.691454 0.752368 0.126014
H22   H     H_    0.391737 0.752474 0.629021 0.149174
H23   H     H_    0.396236 0.246047 0.636063 0.118719
H24   H     H_    0.656981 0.913743 0.266778 0.130234
H25   H     H_    0.656295 0.088066 0.265902 0.145272
H26   H     H_    0.335572 0.088477 0.717444 0.141583
H27   H     H_    0.334064 0.909122 0.715147 0.149721
H28   H     H_    0.615064 0.596853 0.098317 0.106832
N1    N     N_R   0.499930 0.743810 0.499950 -0.201336
N2    N     N_R   0.499930 0.256190 0.499950 -0.217481
O1    O     O_R   0.370250 0.582280 0.500040 -0.535428
O2    O     O_3   0.530329 0.324680 0.115068 -0.614485
O3    O     O_2   0.165359 0.501930 0.811234 -0.411219
O4    O     O_3   0.244478 0.422696 0.294730 -0.637346
O5    O     O_3   0.927973 0.423787 0.155973 -0.617469
O6    O     O_3   0.618313 0.737248 0.352587 -0.675827
O7    O     O_3   0.616227 0.264042 0.349478 -0.625927
O8    O     O_3   0.345429 0.548008 0.110597 -0.503528
O9    O     O_3   0.387853 0.370328 0.138482 -0.542270
O10   O     O_2   0.291818 0.639796 0.930288 -0.362249
O11   O     O_2   0.299457 0.409419 0.958073 -0.374476
O12   O     O_R   0.370250 0.417720 0.500040 -0.500876
O13   O     O_2   0.466961 0.751305 0.834672 -0.497183
O14   O     O_2   0.470898 0.224038 0.914632 -0.482368
O15   O     O_2   0.647665 0.635103 0.777051 -0.485181
O16   O     O_2   0.681179 0.410195 0.780128 -0.486754
O17   O     O_3   0.775302 0.417189 0.284649 -0.687994
O18   O     O_2   0.930840 0.672202 0.866487 -0.474428
O19   O     O_R   0.499970 0.582270 0.317700 -0.472797
O20   O     O_R   0.499970 0.417730 0.317700 -0.391948
O21   O     O_R   0.629730 0.582260 0.499980 -0.444866
O22   O     O_R   0.629730 0.417740 0.499980 -0.445503
O23   O     O_R   0.500000 0.582270 0.682320 -0.458346
O24   O     O_R   0.500000 0.417730 0.682320 -0.548873
O25   O     O_3   0.441012 0.672678 0.138349 -0.653865

loop_
_geom_bond_atom_site_label_1
_geom_bond_atom_site_label_2
_ccdc_geom_bond_type
C23   O17   S    
C4    C36   S    
C30   O25   S    
C18   C21   A    
C35   C36   S    
C18   C26   A    
C24   C27   A    
C40   O11   D    
C30   O8    S    
C27   H26   S    
C7    C8    A    
C15   N1    A    
Cu2   O20   S    
C42   O14   D    
C33   C42   S    
C12   C43   S    
C5    C6    A    
C23   C49   A    
C11   O4    S    
Cu1   O21   S    
H10   O7    S    
C13   N1    A    
C35   H28   S    
C17   C20   A    
C44   H19   S    
C15   C17   A    
C32   C39   S    
C14   C24   A    
C12   C37   S    
C28   H27   S    
C2    C50   A    
C38   H6    S    
C44   O16   D    
C1    O12   A    
C40   H15   S    
C4    O20   A    
C32   C41   S    
C31   C33   S    
Cu2   O12   S    
C47   C50   A    
C9    C10   A    
Cu1   N1    S    
Cu2   O24   S    
C16   O7    S    
C22   C28   A    
C35   H2    S    
C29   O23   A    
C19   O21   A    
H8    O5    S    
C41   H16   S    
C45   C47   A    
C5    C48   A    
C26   H25   S    
C38   O3    D    
Cu1   Cu2   S    
C33   C40   S    
C6    C11   A    
C25   C26   A    
C19   C34   S    
C42   H17   S    
C33   C37   S    
C31   O2    S    
H4    O25   S    
C3    C9    A    
H9    O6    S    
C19   O22   A    
C47   C48   A    
Cu1   O23   S    
C23   C34   A    
C4    O19   A    
C16   N2    A    
H5    O2    S    
C34   C45   A    
C32   C37   S    
C13   H22   S    
C12   C35   S    
Cu2   N2    S    
C48   C49   A    
C20   C22   A    
C43   H18   S    
C31   O9    S    
C39   H14   S    
C29   O24   A    
C1    O1    A    
C14   N2    A    
Cu1   O1    S    
C39   O10   D    
H13   O9    S    
C46   O18   D    
Cu2   O22   S    
C1    C10   S    
C43   O15   D    
C3    C5    A    
C2    H1    S    
C6    C7    A    
Cu1   O19   S    
C46   C50   S    
C30   C36   S    
C25   H24   S    
C17   C25   A    
C14   H23   S    
C8    O5    S    
C2    C3    A    
H7    O4    S    
C12   C44   S    
C30   C32   S    
C41   O13   D    
H11   O8    S    
C9    C38   S    
C13   C22   A    
C7    H12   S    
C10   C11   A    
C20   C21   A    
C45   H3    S    
C16   C18   A    
C21   C24   A    
C29   C37   S    
C27   C28   A    
C31   C36   S    
C8    C49   A    
C46   H21   S    
C15   O6    S    
H20   O17   S    
