data_mof_unit_45767.cif
_audit_creation_date              2012-12-11T17:00:14-0500
_audit_creation_method            fapswitch 2.2
_symmetry_space_group_name_H-M    P1
_symmetry_Int_Tables_number       1
_space_group_crystal_system       triclinic
_cell_length_a                    6.967918
_cell_length_b                    13.574101
_cell_length_c                    20.265693
_cell_angle_alpha                 103.080554
_cell_angle_beta                  90.117735
_cell_angle_gamma                 90.372264
_cell_volume                      1867.0075349

loop_
_atom_site_label
_atom_site_type_symbol
_atom_type_description
_atom_site_fract_x
_atom_site_fract_y
_atom_site_fract_z
_atom_type_partial_charge
O1    O     O_R   0.506770 0.599700 0.449550 -0.542890
O2    O     O_R   0.179980 0.595740 0.587960 -0.552328
O3    O     O_R   0.004580 0.400300 0.550450 -0.535617
C1    C     C_R   0.348136 0.616579 0.615429 0.673218
O4    O     O_R   0.177380 0.611700 0.452380 -0.534842
O5    O     O_R   0.001970 0.416370 0.413900 -0.533555
C2    C     C_R   0.346333 0.638391 0.435911 0.785301
O6    O     O_R   0.509390 0.583630 0.586100 -0.544227
O7    O     O_3   0.337530 0.435890 0.487530 -0.367650
V1    V     V_3+5 0.064660 0.511890 0.502310 1.464786
O8    O     O_R   0.671950 0.404260 0.412040 -0.539374
C3    C     C_R   0.840395 0.383108 0.384696 0.740814
O9    O     O_R   0.674540 0.388300 0.547620 -0.549069
C4    C     C_R   0.843305 0.361872 0.564375 0.752500
V2    V     V_3+5 0.564030 0.488110 0.497690 1.453128
O10   O     O_3   0.841030 0.564110 0.512470 -0.382142
C5    C     C_R   0.907931 0.111019 0.610674 -0.247017
H1    H     H_    0.948539 0.987924 0.694209 0.119673
H2    H     H_    0.937606 0.033279 0.585552 0.131018
C6    C     C_R   0.853375 0.283970 0.603638 -0.128983
C7    C     C_R   0.824267 0.315992 0.930415 0.628305
C8    C     C_R   0.803721 0.391294 0.894584 -0.196032
C9    C     C_R   0.815529 0.368320 0.824141 -0.268514
C10   C     C_R   0.849958 0.268195 0.787252 0.107811
C11   C     C_R   0.873962 0.191500 0.824397 -0.017458
C12   C     C_R   0.860627 0.241526 0.714887 0.107707
C13   C     C_R   0.895724 0.139281 0.681601 0.072117
C14   C     C_R   0.920599 0.065913 0.719230 -0.174801
C15   C     C_R   0.910489 0.091518 0.789400 -0.164147
C16   C     C_R   0.839445 0.312840 0.674228 -0.300872
C17   C     C_R   0.884787 0.182691 0.571419 0.446013
C18   C     C_R   0.859384 0.216217 0.896039 -0.217100
H3    H     H_    0.815325 0.391929 0.695637 0.112870
H4    H     H_    0.796376 0.430868 0.800314 0.135656
H5    H     H_    0.776689 0.468338 0.921602 0.148617
H6    H     H_    0.932470 0.032034 0.816171 0.102680
C19   C     C_R   0.706597 0.184612 0.226146 0.025688
C20   C     C_R   0.866009 0.184186 0.184149 -0.065364
C21   C     C_R   0.021657 0.247389 0.210642 -0.140538
H7    H     H_    0.143974 0.252174 0.179084 0.196070
C22   C     C_R   0.014828 0.310514 0.276133 -0.131361
H8    H     H_    0.133287 0.361738 0.293320 0.166150
C23   C     C_R   0.851117 0.312902 0.317085 -0.082439
C24   C     C_R   0.699551 0.247159 0.291252 0.046756
C25   C     C_3   0.495488 0.273876 0.283089 -0.432739
C26   C     C_3   0.504020 0.207854 0.212134 0.493107
H9    H     H_    0.476916 0.355647 0.284446 0.212062
H10   H     H_    0.399392 0.243074 0.317357 0.184574
H11   H     H_    0.407147 0.141100 0.203478 0.063677
C27   C     C_R   0.504833 0.752790 0.704872 0.097496
C28   C     C_R   0.351448 0.686482 0.683224 -0.105586
C29   C     C_R   0.193076 0.691995 0.727178 -0.171382
H12   H     H_    0.071759 0.641781 0.712642 0.129739
C30   C     C_R   0.195280 0.757047 0.792148 -0.189009
H13   H     H_    0.076148 0.755242 0.825881 0.131459
C31   C     C_R   0.356401 0.818047 0.815236 -0.106722
C32   C     C_R   0.507680 0.816554 0.769434 0.117716
C33   C     C_3   0.715366 0.797639 0.778458 -0.411324
C34   C     C_3   0.712114 0.728907 0.708111 -0.409643
H14   H     H_    0.740392 0.756509 0.819275 0.168644
H15   H     H_    0.804396 0.866600 0.781677 0.166901
H16   H     H_    0.735758 0.647940 0.708022 0.163488
H17   H     H_    0.798114 0.758695 0.670667 0.172906
C35   C     C_R   0.387748 0.888458 0.388485 -0.097947
H18   H     H_    0.395334 0.838996 0.481606 0.129723
H19   H     H_    0.401927 0.967179 0.414526 0.179316
C36   C     C_R   0.356295 0.714362 0.395352 -0.115507
C37   C     C_R   0.365085 0.681735 0.067634 -0.175323
C38   C     C_R   0.376522 0.605144 0.102644 -0.103771
C39   C     C_R   0.378442 0.628042 0.173230 -0.046863
C40   C     C_R   0.362287 0.729152 0.211173 0.074201
C41   C     C_R   0.359082 0.807456 0.174676 -0.021016
C42   C     C_R   0.359368 0.755879 0.283797 -0.108040
C43   C     C_R   0.374800 0.860008 0.317502 -0.037970
C44   C     C_R   0.375094 0.935053 0.280262 0.600459
C45   C     C_R   0.362559 0.909093 0.210223 -0.274468
C46   C     C_R   0.339000 0.684211 0.324782 0.562689
C47   C     C_R   0.382918 0.815839 0.426963 -0.308158
C48   C     C_R   0.358755 0.782681 0.102897 -0.042222
H20   H     H_    0.367187 0.662448 0.012738 0.106614
H21   H     H_    0.402403 0.564965 0.195979 0.212138
H22   H     H_    0.388547 0.527306 0.074841 0.169740
H23   H     H_    0.360075 0.969740 0.183754 0.123207
O11   O     O_R   0.203450 0.916320 0.913910 -0.549876
O12   O     O_R   0.535520 0.888300 0.047620 -0.546516
O13   O     O_R   0.710860 0.083650 0.086100 -0.520904
C49   C     C_R   0.366628 0.861034 0.063696 0.673948
O14   O     O_R   0.532860 0.904250 0.912040 -0.549034
O15   O     O_R   0.708190 0.099710 0.949550 -0.531098
C50   C     C_R   0.364356 0.882989 0.884707 0.675659
O16   O     O_R   0.206120 0.900260 0.050460 -0.544518
O17   O     O_3   0.375280 0.064080 0.012470 -0.346481
V3    V     V_3+5 0.648180 0.988110 0.997690 1.479202
O18   O     O_R   0.038220 0.111740 0.952370 -0.539931
C51   C     C_R   0.869478 0.138134 0.935559 0.789782
O19   O     O_R   0.040880 0.095790 0.087940 -0.546080
C52   C     C_R   0.872529 0.117931 0.114987 0.755322
V4    V     V_3+5 0.148800 0.011950 0.002300 1.484504
O20   O     O_3   0.871820 0.935920 0.987530 -0.390517
O21   O     O_3   0.908309 0.155454 0.501940 -0.557150
C53   C     C_3   0.737592 0.108841 0.472532 -0.222606
H24   H     H_    0.612425 0.160156 0.485493 0.141940
H25   H     H_    0.710166 0.036285 0.487811 0.128937
H26   H     H_    0.753229 0.091247 0.416617 0.194771
F1    F     F_    0.492617 0.263649 0.162816 -0.653054
F2    F     F_    0.385012 0.034558 0.311831 -0.729822
F3    F     F_    0.289183 0.586347 0.298683 -0.729360
F4    F     F_    0.808673 0.340313 0.998975 -0.669843

loop_
_geom_bond_atom_site_label_1
_geom_bond_atom_site_label_2
_ccdc_geom_bond_type
C37   H20   S    
C53   H24   S    
C49   O16   A    
C22   H8    S    
C36   C46   A    
C41   C45   A    
C48   C49   S    
O17   V4    S    
C21   C22   A    
C6    C16   A    
C25   C26   S    
C29   H12   S    
C8    H5    S    
C15   H6    S    
C12   C13   A    
C27   C34   S    
C14   C15   A    
C10   C12   A    
C3    C23   S    
O5    C3    A    
C20   C21   A    
O18   V4    S    
C33   H14   S    
V2    O10   S    
C26   F1    S    
C31   C32   A    
C42   C43   A    
C39   H21   S    
O13   C52   A    
O17   V3    S    
C38   H22   S    
O14   V3    S    
O12   V3    S    
C37   C38   A    
O19   V4    S    
C9    C10   A    
C39   C40   A    
O1    V2    S    
O7    V1    S    
V3    O20   S    
C1    O6    A    
C33   H15   S    
C31   C50   S    
C53   H25   S    
O9    C4    A    
C22   C23   A    
O18   C51   A    
C36   C47   A    
O11   C50   A    
C20   C52   S    
C45   H23   S    
C29   C30   A    
C25   H9    S    
C11   C15   A    
C7    C18   A    
C30   C31   A    
C43   C44   A    
O12   C49   A    
C28   C29   A    
C5    C13   A    
C4    C6    S    
C46   F3    S    
H1    C14   S    
C10   C11   A    
C21   H7    S    
C40   C42   A    
C1    C28   S    
C33   C34   S    
C35   H19   S    
O15   C51   A    
O2    C1    A    
C44   C45   A    
C19   C20   A    
O13   V3    S    
C26   H11   S    
C9    H4    S    
O19   C52   A    
C27   C28   A    
C17   O21   S    
O3    C4    A    
O14   C50   A    
C12   C16   A    
O6    V2    S    
O8    V2    S    
O9    V2    S    
C23   C24   A    
C5    C17   A    
O2    V1    S    
C24   C25   S    
O4    C2    A    
C25   H10   S    
C30   H13   S    
C34   H16   S    
C42   C46   A    
H18   C47   S    
C16   H3    S    
O1    C2    A    
C27   C32   A    
C35   C47   A    
O5    V1    S    
O8    C3    A    
C41   C48   A    
C34   H17   S    
O11   V4    S    
C19   C24   A    
O7    V2    S    
O4    V1    S    
O3    V1    S    
V1    O10   S    
C32   C33   S    
C11   C18   A    
O21   C53   S    
C5    H2    S    
O16   V4    S    
O15   V3    S    
C38   C39   A    
C7    F4    S    
C2    C36   S    
C40   C41   A    
C18   C51   S    
C44   F2    S    
V4    O20   S    
C37   C48   A    
C13   C14   A    
C35   C43   A    
C8    C9    A    
C53   H26   S    
C19   C26   S    
C7    C8    A    
C6    C17   A    
