data_mof_unit_62768.cif
_audit_creation_date              2012-12-10T21:25:11-0500
_audit_creation_method            fapswitch 2.2
_symmetry_space_group_name_H-M    P1
_symmetry_Int_Tables_number       1
_space_group_crystal_system       triclinic
_cell_length_a                    10.751344
_cell_length_b                    17.606422
_cell_length_c                    16.797719
_cell_angle_alpha                 88.630563
_cell_angle_beta                  92.448645
_cell_angle_gamma                 92.424607
_cell_volume                      3173.16085812

loop_
_atom_site_label
_atom_site_type_symbol
_atom_type_description
_atom_site_fract_x
_atom_site_fract_y
_atom_site_fract_z
_atom_type_partial_charge
C1    C     C_R   0.506331 0.353417 0.501092 0.973477
C2    C     C_R   0.493733 0.646611 0.498924 0.973095
C3    C     C_R   0.872704 0.494535 0.506061 -0.058676
C4    C     C_R   0.127308 0.505604 0.493932 -0.059375
C5    C     C_R   0.944275 0.541150 0.559257 -0.016879
C6    C     C_R   0.055697 0.459149 0.440617 -0.017270
C7    C     C_R   0.493511 0.845112 0.573132 0.206470
C8    C     C_R   0.506034 0.154594 0.427835 0.206773
C9    C     C_R   0.496427 0.766651 0.570758 -0.184163
C10   C     C_R   0.501838 0.233022 0.429847 -0.184950
C11   C     C_R   0.479904 0.728996 0.497820 -0.048906
C12   C     C_R   0.520845 0.271124 0.502371 -0.048544
C13   C     C_R   0.451071 0.771519 0.426952 -0.013827
C14   C     C_R   0.553199 0.229182 0.573072 -0.014270
C15   C     C_R   0.460028 0.850513 0.429272 -0.234160
C16   C     C_R   0.545712 0.150145 0.571285 -0.234224
C17   C     C_R   0.482657 0.886552 0.501586 0.082753
C18   C     C_R   0.520813 0.113608 0.499457 0.082321
C19   C     C_1   0.495916 0.966431 0.501172 0.050702
C20   C     C_1   0.508355 0.033691 0.500418 0.049786
C21   C     C_R   0.459297 0.439928 0.835269 -0.323738
C22   C     C_R   0.541070 0.559745 0.164614 -0.324138
C23   C     C_R   0.259742 0.501165 0.498039 0.981588
C24   C     C_R   0.740259 0.498877 0.501961 0.982382
C25   C     C_R   0.452462 0.439448 0.751514 0.142526
C26   C     C_R   0.548144 0.560312 0.248369 0.143790
C27   C     C_R   0.545441 0.563519 0.745869 -0.087586
C28   C     C_R   0.453811 0.436600 0.254213 -0.087613
C29   C     C_R   0.545113 0.568563 0.830161 -0.076666
C30   C     C_R   0.453901 0.431451 0.169917 -0.076683
C31   C     C_R   0.504007 0.504204 0.876017 0.123258
C32   C     C_R   0.495561 0.495603 0.123966 0.123344
C33   C     C_1   0.501389 0.501717 0.963627 0.130337
C34   C     C_1   0.498052 0.498001 0.036350 0.130830
C35   C     C_R   0.127618 0.413594 0.229789 0.130425
C36   C     C_R   0.871560 0.588918 0.769436 0.129640
C37   C     C_R   0.108708 0.456238 0.297611 0.148585
C38   C     C_R   0.891161 0.545578 0.702203 0.148475
C39   C     C_R   0.110190 0.419998 0.373671 -0.100018
C40   C     C_R   0.889544 0.580959 0.625697 -0.100383
C41   C     C_R   0.135635 0.342138 0.381699 0.098109
C42   C     C_R   0.863569 0.658693 0.616663 0.098618
C43   C     C_R   0.151184 0.300018 0.313007 0.150310
C44   C     C_R   0.847128 0.701504 0.684763 0.151836
C45   C     C_R   0.146934 0.335901 0.238018 -0.311128
C46   C     C_R   0.851253 0.666440 0.760185 -0.310545
C47   C     C_R   0.927886 0.450454 0.449562 -0.049180
C48   C     C_R   0.072143 0.549699 0.550430 -0.048830
H1    H     H_    0.156211 0.302706 0.185364 0.211987
H2    H     H_    0.841297 0.700179 0.812381 0.211506
H3    H     H_    0.444787 0.884273 0.375061 0.168554
H4    H     H_    0.563706 0.116780 0.625464 0.168172
H5    H     H_    0.423483 0.390959 0.868912 0.182716
H6    H     H_    0.577339 0.608525 0.130872 0.182862
H7    H     H_    0.580443 0.611538 0.710917 0.131211
H8    H     H_    0.418366 0.388751 0.289237 0.131353
H9    H     H_    0.511751 0.735386 0.626386 0.172547
H10   H     H_    0.483526 0.263919 0.374309 0.171945
N1    N     N_R   0.500030 0.500030 0.707230 -0.089362
N2    N     N_R   0.499970 0.499970 0.292770 -0.089033
O1    O     O_R   0.500000 0.389130 0.566570 -0.578388
O2    O     O_R   0.500000 0.610870 0.433430 -0.576512
O3    O     O_R   0.499990 0.389100 0.433480 -0.642947
O4    O     O_R   0.500010 0.610900 0.566520 -0.643559
O5    O     O_R   0.316760 0.500020 0.566540 -0.573022
O6    O     O_R   0.683240 0.499980 0.433460 -0.573116
O7    O     O_R   0.316760 0.499990 0.433460 -0.611590
O8    O     O_R   0.683240 0.500010 0.566540 -0.610572
Zn1   Zn    Zn3+2 0.500010 0.500020 0.588860 1.044358
Zn2   Zn    Zn3+2 0.499990 0.499980 0.411140 1.044838
C49   C     C_2   0.386278 0.373182 0.715167 0.483511
H11   H     H_    0.399855 0.316830 0.740741 0.024381
O9    O     O_2   0.307768 0.380880 0.661501 -0.521196
C50   C     C_2   0.615243 0.626413 0.284479 0.482195
H12   H     H_    0.603772 0.682616 0.258011 0.025627
O10   O     O_2   0.692360 0.618666 0.338925 -0.521961
C51   C     C_2   0.585498 0.642229 0.866159 0.431733
H13   H     H_    0.607336 0.690994 0.827731 0.078758
O11   O     O_2   0.594837 0.649947 0.938212 -0.546185
C52   C     C_2   0.412721 0.357887 0.134004 0.429943
H14   H     H_    0.390852 0.309165 0.172480 0.079544
O12   O     O_2   0.402706 0.350215 0.061969 -0.546323
I1    I     I_    0.116530 0.460731 0.112244 -0.212082
I2    I     I_    0.883308 0.543175 0.887576 -0.213029
I3    I     I_    0.066240 0.573531 0.285384 -0.143922
I4    I     I_    0.935031 0.428593 0.715997 -0.145671
I5    I     I_    0.140102 0.288073 0.496885 -0.206157
I6    I     I_    0.859785 0.711630 0.500892 -0.205567
I7    I     I_    0.165144 0.180454 0.316453 -0.231682
I8    I     I_    0.832119 0.821019 0.679764 -0.233898
C53   C     C_2   0.853808 0.392488 0.401787 0.480078
H15   H     H_    0.873089 0.383905 0.339855 0.074860
O13   O     O_2   0.773905 0.351674 0.432531 -0.559027
C54   C     C_2   0.146246 0.607675 0.598172 0.479573
H16   H     H_    0.126820 0.616388 0.660053 0.075343
O14   O     O_2   0.226313 0.648371 0.567447 -0.560060
I9    I     I_    0.501350 0.898118 0.685690 -0.266169
I10   I     I_    0.494089 0.100890 0.315648 -0.266315
C55   C     C_2   0.403556 0.737978 0.350996 0.442426
H17   H     H_    0.425881 0.766045 0.294843 0.054518
O15   O     O_2   0.331640 0.682446 0.350240 -0.510854
C56   C     C_2   0.602829 0.263469 0.648229 0.441291
H18   H     H_    0.583408 0.235460 0.704916 0.055005
O16   O     O_2   0.673229 0.319695 0.647630 -0.510311

loop_
_geom_bond_atom_site_label_1
_geom_bond_atom_site_label_2
_ccdc_geom_bond_type
C38   C40   A    
C27   C29   A    
C19   C20   T    
C28   H8    S    
C39   C41   A    
C51   H13   S    
C21   C31   A    
C43   I7    S    
C22   C32   A    
C38   I4    S    
C37   I3    S    
C35   C37   A    
C27   H7    S    
C14   C56   S    
O2    Zn2   S    
C7    C9    A    
C23   O7    A    
C8    I10   S    
C26   C50   S    
C55   H17   S    
C44   C46   A    
O8    Zn1   S    
C7    C17   A    
C31   C33   S    
C36   C46   A    
C25   C49   S    
C15   H3    S    
C9    H9    S    
C24   O6    A    
C30   C52   S    
C40   C42   A    
C41   C43   A    
C3    C24   S    
C56   H18   S    
C1    C12   S    
C42   C44   A    
C2    C11   S    
C1    O3    A    
C2    O4    A    
C10   C12   A    
C51   O11   D    
C41   I5    S    
C5    C48   A    
C6    C47   A    
C52   O12   D    
C50   H12   S    
C53   H15   S    
C49   O9    D    
C4    C23   S    
C35   I1    S    
C8    C18   A    
C32   C34   S    
C13   C55   S    
C56   O16   D    
C53   O13   D    
C9    C11   A    
C45   H1    S    
O3    Zn2   S    
N2    Zn2   S    
C33   C34   T    
C16   C18   A    
O4    Zn1   S    
C54   O14   D    
C43   C45   A    
C28   N2    A    
C48   C54   S    
N1    Zn1   S    
C4    C6    A    
C55   O15   D    
C12   C14   A    
C22   H6    S    
C13   C15   A    
C14   C16   A    
C42   I6    S    
C50   O10   D    
C36   C38   A    
C35   C45   A    
C44   I8    S    
C4    C48   A    
O1    Zn1   S    
C15   C17   A    
C21   C25   A    
C7    I9    S    
C10   H10   S    
C47   C53   S    
C16   H4    S    
C52   H14   S    
C3    C5    A    
C1    O1    A    
C46   H2    S    
O7    Zn2   S    
C23   O5    A    
C28   C30   A    
C49   H11   S    
C29   C31   A    
C27   N1    A    
C30   C32   A    
C11   C13   A    
O6    Zn2   S    
C36   I2    S    
O5    Zn1   S    
C21   H5    S    
C3    C47   A    
C17   C19   S    
C18   C20   S    
C54   H16   S    
C24   O8    A    
C37   C39   A    
C29   C51   S    
C8    C10   A    
C22   C26   A    
C5    C40   S    
C6    C39   S    
C25   N1    A    
C26   N2    A    
C2    O2    A    
