data_mof_unit_15492.cif
_audit_creation_date              2013-03-05T16:17:27-0500
_audit_creation_method            fapswitch 2.2
_symmetry_space_group_name_H-M    P1
_symmetry_Int_Tables_number       1
_space_group_crystal_system       triclinic
_cell_length_a                    30.080461
_cell_length_b                    34.375713
_cell_length_c                    8.709035
_cell_angle_alpha                 89.406911
_cell_angle_beta                  90.558257
_cell_angle_gamma                 90.044646
_cell_volume                      9004.55501095

loop_
_atom_site_label
_atom_site_type_symbol
_atom_site_description
_atom_site_fract_x
_atom_site_fract_y
_atom_site_fract_z
_atom_type_partial_charge
P1    P     P_3+3 0.909970 0.458430 0.077330 0.520272
P2    P     P_3+3 0.909970 0.541570 0.577330 0.573385
P3    P     P_3+3 0.409970 0.958430 0.077330 0.516564
P4    P     P_3+3 0.409970 0.041570 0.577330 0.617720
O1    O     O_2   0.914200 0.445720 0.903420 -0.370077
O2    O     O_2   0.914200 0.554280 0.403420 -0.306895
O3    O     O_2   0.414200 0.945720 0.903420 -0.346774
O4    O     O_2   0.414200 0.054280 0.403420 -0.311556
O5    O     O_3   0.950020 0.480960 0.143730 -0.370542
O6    O     O_3   0.950020 0.519040 0.643730 -0.383599
O7    O     O_3   0.450020 0.980960 0.143730 -0.382932
O8    O     O_3   0.450020 0.019040 0.643730 -0.357784
O9    O     O_3   0.985090 0.412220 0.642040 -0.415165
O10   O     O_3   0.985090 0.587780 0.142040 -0.424027
O11   O     O_3   0.485090 0.912220 0.642040 -0.356019
O12   O     O_3   0.485090 0.087780 0.142040 -0.423399
O13   O     O_2   0.913162 0.378137 0.753955 -0.326213
O14   O     O_2   0.918197 0.627359 0.258946 -0.265336
O15   O     O_2   0.415317 0.876780 0.767574 -0.322369
O16   O     O_2   0.414004 0.121875 0.260673 -0.305613
O17   O     O_3   0.854834 0.477206 0.075243 -0.609545
O18   O     O_3   0.855737 0.520499 0.598101 -0.568226
O19   O     O_3   0.354193 0.976416 0.080127 -0.598125
O20   O     O_3   0.353536 0.024749 0.584811 -0.504895
O21   O     O_3   0.974200 0.330607 0.659079 -0.518007
O22   O     O_3   0.976566 0.671093 0.124491 -0.452082
O23   O     O_3   0.470584 0.829644 0.628764 -0.478328
O24   O     O_3   0.470532 0.169463 0.131726 -0.436724
H1    H     H_    0.031866 0.357436 0.737924 0.164475
H2    H     H_    0.034137 0.658043 0.243115 0.137366
H3    H     H_    0.523871 0.835626 0.777652 0.126031
H4    H     H_    0.530177 0.157515 0.240467 0.131808
C1    C     C_3   0.045872 0.299388 0.664845 -0.753649
C2    C     C_3   0.046234 0.701789 0.067120 -0.962785
C3    C     C_3   0.540743 0.798022 0.590553 -0.931947
C4    C     C_3   0.538896 0.202201 0.065665 -0.895304
H5    H     H_    0.079425 0.303111 0.616694 0.238536
H6    H     H_    0.079364 0.704533 0.123224 0.224965
H7    H     H_    0.574037 0.795384 0.645799 0.230397
H8    H     H_    0.570600 0.207240 0.128750 0.221526
H9    H     H_    0.050776 0.291799 0.787059 0.256978
H10   H     H_    0.026482 0.728279 0.089141 0.296007
H11   H     H_    0.521679 0.770947 0.611726 0.279992
H12   H     H_    0.516920 0.227788 0.078875 0.296354
P5    P     P_3+3 0.089830 0.458070 0.612460 0.542521
P6    P     P_3+3 0.089830 0.541930 0.112460 0.541849
P7    P     P_3+3 0.589830 0.958070 0.612460 0.527542
P8    P     P_3+3 0.589830 0.041930 0.112460 0.524348
P9    P     P_3+3 0.057510 0.377955 0.077918 0.559468
P10   P     P_3+3 0.058026 0.621902 0.571656 0.550859
P11   P     P_3+3 0.558577 0.878708 0.075750 0.590425
P12   P     P_3+3 0.558481 0.121553 0.572531 0.528608
O25   O     O_2   0.085560 0.445380 0.786390 -0.326402
O26   O     O_2   0.085560 0.554620 0.286390 -0.314696
O27   O     O_2   0.585560 0.945380 0.786390 -0.313968
O28   O     O_2   0.585560 0.054620 0.286390 -0.313171
O29   O     O_3   0.014550 0.412170 0.047860 -0.284477
O30   O     O_3   0.014550 0.587830 0.547860 -0.324646
O31   O     O_3   0.514550 0.912170 0.047860 -0.304096
O32   O     O_3   0.514550 0.087830 0.547860 -0.322419
O33   O     O_2   0.090352 0.386039 0.946372 -0.357118
O34   O     O_2   0.089815 0.615754 0.435756 -0.287735
O35   O     O_2   0.587338 0.881425 0.929957 -0.375919
O36   O     O_2   0.588934 0.116638 0.432413 -0.347999
O37   O     O_3   0.139484 0.484311 0.599715 -0.646676
O38   O     O_3   0.138903 0.515009 0.101288 -0.651658
O39   O     O_3   0.639565 0.984241 0.600929 -0.655660
O40   O     O_3   0.640394 0.017168 0.101560 -0.658692
O41   O     O_3   0.040917 0.330143 0.031616 -0.586449
O42   O     O_3   0.041356 0.670656 0.539991 -0.623443
O43   O     O_3   0.541370 0.829405 0.072084 -0.583496
O44   O     O_3   0.541790 0.170607 0.549981 -0.617303
C5    C     C_3   0.998884 0.319748 0.091371 0.943016
C6    C     C_3   0.996776 0.678379 0.580246 0.941121
C7    C     C_3   0.495143 0.823316 0.092907 0.987160
C8    C     C_3   0.496330 0.177178 0.580954 0.948607
C9    C     C_3   0.983241 0.281468 0.013648 -0.689576
C10   C     C_3   0.986884 0.722347 0.549457 -0.542236
C11   C     C_3   0.484548 0.779304 0.075063 -0.676283
C12   C     C_3   0.485714 0.221100 0.552518 -0.556127
H13   H     H_    0.981661 0.286838 0.888455 0.235071
H14   H     H_    0.951138 0.727645 0.573602 0.209109
H15   H     H_    0.448061 0.775228 0.089963 0.161495
H16   H     H_    0.449766 0.225759 0.575402 0.207073
C13   C     C_3   0.138345 0.482043 0.195422 1.054472
C14   C     C_3   0.139288 0.517289 0.691598 1.065538
C15   C     C_3   0.640083 0.982128 0.183409 0.957349
C16   C     C_3   0.638853 0.017945 0.688557 0.969286
H17   H     H_    0.131084 0.489969 0.315548 0.015583
H18   H     H_    0.131743 0.509396 0.812374 0.012266
H19   H     H_    0.625671 0.985573 0.299456 -0.002781
H20   H     H_    0.626073 0.012200 0.805820 0.011006
C17   C     C_3   0.184608 0.462965 0.185498 -0.651504
C18   C     C_3   0.185763 0.536092 0.681576 -0.628827
C19   C     C_3   0.688641 0.968135 0.197077 -0.689475
C20   C     C_3   0.686915 0.033388 0.697902 -0.699058
H21   H     H_    0.188127 0.451200 0.067695 0.239174
H22   H     H_    0.189457 0.548386 0.563719 0.243861
H23   H     H_    0.701175 0.963663 0.078890 0.231540
H24   H     H_    0.698172 0.039305 0.578653 0.233078
Ba1   Ba    Ba6+2 0.999930 0.472870 0.844940 1.676471
Ba2   Ba    Ba6+2 0.999930 0.527130 0.344940 1.671914
Ba3   Ba    Ba6+2 0.499930 0.972870 0.844940 1.669266
Ba4   Ba    Ba6+2 0.499930 0.027130 0.344940 1.676794
C21   C     C_3   0.843129 0.516954 0.060839 0.284191
C22   C     C_3   0.844135 0.482357 0.550300 0.373053
C23   C     C_3   0.341390 0.015675 0.054875 0.271580
C24   C     C_3   0.340246 0.985795 0.560511 0.447260
C25   C     C_3   0.802463 0.523142 0.164713 -0.831522
C26   C     C_3   0.792590 0.480007 0.535941 -0.915919
C27   C     C_3   0.290838 0.017292 0.086972 -0.679911
C28   C     C_3   0.290416 0.982549 0.596066 -1.079497
H25   H     H_    0.779843 0.497552 0.161822 0.245158
H26   H     H_    0.778559 0.506448 0.480753 0.262827
H27   H     H_    0.272763 0.996235 0.013093 0.225353
H28   H     H_    0.271145 0.003760 0.524893 0.297825
H29   H     H_    0.782970 0.549392 0.130292 0.257091
H30   H     H_    0.781719 0.454108 0.469858 0.226554
H31   H     H_    0.276811 0.046773 0.064809 0.252669
H32   H     H_    0.277689 0.952794 0.572214 0.215824
H33   H     H_    0.813643 0.528143 0.283826 0.246238
H34   H     H_    0.776093 0.477722 0.648671 0.269074
H35   H     H_    0.283953 0.009595 0.208405 0.210878
H36   H     H_    0.284220 0.988903 0.718671 0.289371
O45   O     O_3   0.049930 0.518940 0.045960 -0.335422
O46   O     O_3   0.049930 0.481060 0.545960 -0.325003
O47   O     O_3   0.549930 0.018940 0.045960 -0.349105
O48   O     O_3   0.549930 0.981060 0.545960 -0.337438
P13   P     P_3+3 0.948104 0.626575 0.115180 0.566013
P14   P     P_3+3 0.946544 0.374570 0.620536 0.472404
P15   P     P_3+3 0.444527 0.123826 0.118814 0.540710
P16   P     P_3+3 0.444887 0.875591 0.623097 0.602920
C29   C     C_3   0.020181 0.337298 0.647185 0.387751
C30   C     C_3   0.022755 0.665030 0.124657 0.524791
C31   C     C_3   0.516818 0.833428 0.653493 0.506027
C32   C     C_3   0.517029 0.164857 0.124298 0.493785
H37   H     H_    0.027873 0.349863 0.533158 0.073606
H38   H     H_    0.032410 0.641214 0.048200 0.023588
H39   H     H_    0.531504 0.859095 0.595956 0.107557
H40   H     H_    0.526783 0.141815 0.043982 0.034039
H41   H     H_    0.028523 0.275258 0.605198 0.300494
H42   H     H_    0.050805 0.700718 0.941418 0.248012
H43   H     H_    0.545162 0.801157 0.464907 0.304153
H44   H     H_    0.546539 0.199708 0.941871 0.272734
H45   H     H_    0.707588 0.346580 0.993546 0.176435
H46   H     H_    0.706891 0.654718 0.514523 0.175250
H47   H     H_    0.241583 0.834604 0.838704 0.165114
H48   H     H_    0.207954 0.153888 0.506256 0.178990
H49   H     H_    0.192650 0.782709 0.751928 0.174378
H50   H     H_    0.153217 0.202980 0.437435 0.179772
H51   H     H_    0.653705 0.297704 0.916858 0.181010
H52   H     H_    0.652376 0.703822 0.442978 0.181367
C33   C     C_R   0.931795 0.405000 0.311785 -0.381403
C34   C     C_R   0.927037 0.590348 0.823864 -0.576035
C35   C     C_R   0.426008 0.911105 0.329596 -0.321061
C36   C     C_R   0.425574 0.088681 0.826832 -0.589707
C37   C     C_R   0.220009 0.708985 0.184693 -0.285530
C38   C     C_R   0.243380 0.303000 0.600045 -0.311400
C39   C     C_R   0.738969 0.197453 0.113085 -0.310791
C40   C     C_R   0.743997 0.804123 0.592583 -0.308141
C41   C     C_R   0.184941 0.683113 0.146472 0.592544
C42   C     C_R   0.210372 0.331189 0.562256 0.657026
C43   C     C_R   0.706939 0.169310 0.067743 0.646364
C44   C     C_R   0.711016 0.832323 0.554354 0.643339
O49   O     O_2   0.171195 0.661228 0.246280 -0.495085
O50   O     O_2   0.218107 0.365588 0.583868 -0.494712
O51   O     O_2   0.714439 0.134842 0.091461 -0.506389
O52   O     O_2   0.718991 0.866788 0.573379 -0.505142
N1    N     N_R   0.165626 0.683238 0.999545 -0.172308
N2    N     N_R   0.169809 0.320236 0.498381 -0.174821
N3    N     N_R   0.667648 0.180339 0.994308 -0.170963
N4    N     N_R   0.670160 0.821295 0.493098 -0.173289
C45   C     C_R   0.177160 0.713850 0.899861 0.587333
C46   C     C_R   0.161404 0.281126 0.470987 0.506748
C47   C     C_R   0.660090 0.219457 0.961427 0.518890
C48   C     C_R   0.661391 0.782163 0.468585 0.518706
O53   O     O_2   0.164595 0.714248 0.766489 -0.537587
O54   O     O_2   0.126033 0.271279 0.413259 -0.551867
O55   O     O_2   0.625961 0.229351 0.894907 -0.558960
O56   O     O_2   0.625881 0.772386 0.411879 -0.550688
C49   C     C_R   0.204837 0.744689 0.948873 -0.016215
C50   C     C_R   0.193204 0.252246 0.510089 -0.001313
C51   C     C_R   0.691370 0.248301 0.005116 0.000623
C52   C     C_R   0.693050 0.753226 0.509208 -0.004931
C53   C     C_R   0.228393 0.740986 0.087775 -0.081272
C54   C     C_R   0.234454 0.263256 0.574167 -0.076804
C55   C     C_R   0.730983 0.237215 0.081183 -0.078080
C56   C     C_R   0.734640 0.764290 0.570597 -0.077757
C57   C     C_R   0.246703 0.704041 0.318086 0.868036
C58   C     C_R   0.285300 0.313417 0.662047 0.855812
C59   C     C_R   0.778985 0.186946 0.189071 0.852604
C60   C     C_R   0.786282 0.814596 0.651352 0.863658
C61   C     C_R   0.809980 0.215272 0.231627 -0.219897
C62   C     C_R   0.818153 0.786164 0.686832 -0.254199
C63   C     C_R   0.281675 0.729811 0.349386 -0.278047
C64   C     C_R   0.317224 0.285005 0.696978 -0.257748
C65   C     C_R   0.802410 0.254992 0.200423 -0.144469
C66   C     C_R   0.809016 0.746352 0.667276 -0.151202
C67   C     C_R   0.288733 0.762936 0.256291 -0.141249
C68   C     C_R   0.308514 0.245282 0.673287 -0.149385
C69   C     C_R   0.762815 0.266028 0.125089 -0.013073
C70   C     C_R   0.767041 0.735361 0.609671 -0.000921
C71   C     C_R   0.260598 0.769375 0.129470 -0.006900
C72   C     C_R   0.266930 0.234349 0.612167 -0.000663
C73   C     C_R   0.210696 0.778674 0.859156 -0.097066
C74   C     C_R   0.184616 0.212450 0.486261 -0.096505
C75   C     C_R   0.683843 0.288131 0.974852 -0.107871
C76   C     C_R   0.684035 0.713345 0.489568 -0.104506
C77   C     C_R   0.714920 0.316346 0.019163 -0.110792
C78   C     C_R   0.715484 0.685014 0.530740 -0.110175
C79   C     C_R   0.238912 0.808512 0.908836 -0.117007
C80   C     C_R   0.216184 0.184127 0.525826 -0.101682
C81   C     C_R   0.754841 0.305774 0.094436 -0.027878
C82   C     C_R   0.757344 0.695537 0.591074 -0.040144
C83   C     C_R   0.264766 0.803938 0.043440 -0.015851
C84   C     C_R   0.257678 0.194596 0.589097 -0.045258
C85   C     C_R   0.786753 0.334050 0.140110 0.533710
C86   C     C_R   0.789446 0.667126 0.634638 0.541278
C87   C     C_R   0.294160 0.833302 0.095221 0.527601
C88   C     C_R   0.289837 0.166184 0.631383 0.541096
N5    N     N_R   0.826622 0.323019 0.210479 -0.169301
N6    N     N_R   0.831005 0.678052 0.690677 -0.174236
N7    N     N_R   0.325362 0.825658 0.211546 -0.159968
N8    N     N_R   0.330909 0.177075 0.691364 -0.176019
C89   C     C_R   0.833865 0.283682 0.242769 0.569288
C90   C     C_R   0.840989 0.717404 0.704496 0.593808
C91   C     C_R   0.323834 0.789318 0.285269 0.582187
C92   C     C_R   0.340484 0.216338 0.710059 0.592448
C93   C     C_2   0.110005 0.651929 0.811531 -0.233121
C94   C     C_2   0.117674 0.351124 0.305881 -0.091729
C95   C     C_2   0.617931 0.148308 0.798010 -0.194595
C96   C     C_2   0.620203 0.853755 0.297794 -0.139211
C97   C     C_3   0.092514 0.616276 0.751690 0.350605
C98   C     C_3   0.092038 0.384312 0.257327 0.295421
C99   C     C_3   0.594291 0.114054 0.748653 0.305535
C100  C     C_3   0.595972 0.887779 0.246826 0.308573
C101  C     C_1   0.097164 0.586967 0.002515 0.196585
C102  C     C_1   0.094649 0.411072 0.513504 0.215080
C103  C     C_1   0.594300 0.088696 0.009671 0.245972
C104  C     C_1   0.595792 0.912019 0.509139 0.181052
C105  C     C_2   0.129603 0.613864 0.043867 -0.215475
C106  C     C_2   0.123354 0.381679 0.563454 -0.313873
C107  C     C_2   0.620708 0.119199 0.060653 -0.299617
C108  C     C_2   0.622776 0.881671 0.560230 -0.287361
C109  C     C_2   0.135503 0.651054 0.950747 0.131609
C110  C     C_2   0.136909 0.350005 0.454965 0.120781
C111  C     C_2   0.635036 0.150546 0.950024 0.116526
C112  C     C_2   0.637268 0.851034 0.449709 0.103065
C113  C     C_R   0.881069 0.350143 0.391493 -0.184227
C114  C     C_R   0.882079 0.650355 0.882406 -0.057262
C115  C     C_R   0.374055 0.856903 0.404037 -0.311977
C116  C     C_R   0.379570 0.147892 0.886242 -0.057764
C117  C     C_R   0.918412 0.376196 0.429388 0.103485
C118  C     C_R   0.916050 0.621730 0.932051 0.266762
C119  C     C_R   0.411506 0.882545 0.445147 0.235140
C120  C     C_R   0.413009 0.118931 0.936622 0.207631
C121  C     C_R   0.907060 0.410117 0.183129 0.407832
C122  C     C_R   0.906502 0.588195 0.686285 0.355804
C123  C     C_R   0.407154 0.911872 0.189362 0.323560
C124  C     C_R   0.407329 0.088080 0.685220 0.344656
C125  C     C_R   0.872952 0.382814 0.148416 -0.177135
C126  C     C_R   0.875498 0.617402 0.641782 -0.054596
C127  C     C_R   0.376567 0.882446 0.147625 -0.196413
C128  C     C_R   0.376893 0.117618 0.639690 -0.045240
C129  C     C_R   0.860691 0.352080 0.251922 0.074524
C130  C     C_R   0.863549 0.648559 0.740108 0.085703
C131  C     C_R   0.359097 0.854934 0.256216 0.096564
C132  C     C_R   0.363210 0.147520 0.740893 0.080156
O57   O     O_2   0.778485 0.368504 0.119557 -0.580038
O58   O     O_2   0.780001 0.632658 0.624931 -0.549186
O59   O     O_2   0.290993 0.865799 0.038444 -0.602125
O60   O     O_2   0.280887 0.131722 0.617131 -0.538803
O61   O     O_2   0.868028 0.273354 0.308090 -0.568577
O62   O     O_2   0.877897 0.727356 0.748828 -0.556124
O63   O     O_2   0.353502 0.779295 0.373811 -0.578911
O64   O     O_2   0.376993 0.226188 0.758565 -0.552230
C133  C     C_2   0.072685 0.593381 0.870058 -0.450980
C134  C     C_2   0.070764 0.404162 0.380346 -0.408506
C135  C     C_2   0.572398 0.093821 0.871251 -0.466670
C136  C     C_2   0.574449 0.907897 0.369381 -0.356707
H53   H     H_    0.840200 0.205827 0.289472 0.229595
H54   H     H_    0.850144 0.795556 0.731090 0.213604
H55   H     H_    0.302488 0.724303 0.449468 0.212824
H56   H     H_    0.348914 0.294334 0.743979 0.210830
H57   H     H_    0.870636 0.329224 0.477544 0.188952
H58   H     H_    0.872791 0.673143 0.960695 0.162877
H59   H     H_    0.359862 0.839413 0.494899 0.202014
H60   H     H_    0.369066 0.169883 0.966217 0.160477
H61   H     H_    0.155693 0.603822 0.121098 0.199358
H62   H     H_    0.135953 0.381519 0.680517 0.208834
H63   H     H_    0.632319 0.119739 0.178726 0.207311
H64   H     H_    0.634990 0.880958 0.677715 0.202779
H65   H     H_    0.102401 0.678572 0.750318 0.224243
H66   H     H_    0.127391 0.329824 0.221435 0.173452
H67   H     H_    0.628964 0.169193 0.712144 0.199304
H68   H     H_    0.631530 0.833203 0.212847 0.178637
H69   H     H_    0.855228 0.386242 0.040517 0.209963
H70   H     H_    0.859375 0.615121 0.530600 0.170483
H71   H     H_    0.365482 0.882460 0.029546 0.209786
H72   H     H_    0.361994 0.116225 0.526299 0.186126
H73   H     H_    0.958105 0.425207 0.339898 0.180754
H74   H     H_    0.950079 0.567897 0.860514 0.157088
H75   H     H_    0.449426 0.933357 0.363891 0.196206
H76   H     H_    0.447157 0.065395 0.866244 0.161067
H77   H     H_    0.039067 0.582187 0.858811 0.153161
H78   H     H_    0.035898 0.411927 0.372710 0.135838
H79   H     H_    0.538548 0.083344 0.857865 0.153336
H80   H     H_    0.541782 0.920706 0.351992 0.177208
C137  C     C_2   0.221403 0.492059 0.209911 0.567860
H81   H     H_    0.248019 0.494413 0.127148 0.105616
O65   O     O_2   0.222188 0.512637 0.323236 -0.613707
C138  C     C_2   0.222279 0.506686 0.707040 0.566070
H82   H     H_    0.249241 0.504812 0.625629 0.113708
O66   O     O_2   0.222511 0.485386 0.820048 -0.599849
C139  C     C_2   0.717741 0.998803 0.270761 0.603102
H83   H     H_    0.719161 0.027756 0.220094 0.113116
O67   O     O_2   0.740412 0.991706 0.384813 -0.549050
C140  C     C_2   0.717779 0.002978 0.766580 0.599837
H84   H     H_    0.719343 0.974364 0.715358 0.113568
O68   O     O_2   0.741700 0.009935 0.877160 -0.546502
C141  C     C_2   0.190495 0.430295 0.298829 0.572352
H85   H     H_    0.185290 0.435129 0.420139 0.077930
O69   O     O_2   0.202610 0.398372 0.255711 -0.537058
C142  C     C_2   0.191717 0.568201 0.794834 0.541294
H86   H     H_    0.189956 0.561923 0.916863 0.027596
O70   O     O_2   0.199916 0.601245 0.750846 -0.499041
C143  C     C_2   0.691969 0.930185 0.283269 0.716352
H87   H     H_    0.682658 0.928704 0.402975 0.037493
O71   O     O_2   0.706191 0.901204 0.220532 -0.537224
C144  C     C_2   0.689636 0.070652 0.786125 0.730035
H88   H     H_    0.680831 0.070957 0.906388 0.034433
O72   O     O_2   0.702895 0.100448 0.724274 -0.534990
C145  C     C_2   0.826434 0.524734 0.901997 0.477274
H89   H     H_    0.813186 0.500776 0.838743 0.103160
O73   O     O_2   0.822042 0.557856 0.851753 -0.565793
C146  C     C_2   0.863645 0.472251 0.403649 0.322250
H90   H     H_    0.844797 0.454779 0.323725 0.067493
O74   O     O_2   0.903003 0.477883 0.385602 -0.571688
C147  C     C_2   0.349127 0.027559 0.896294 0.368401
H91   H     H_    0.378211 0.015961 0.843188 0.042349
O75   O     O_2   0.326696 0.053175 0.835163 -0.543199
C148  C     C_2   0.347230 0.975851 0.401581 0.456677
H92   H     H_    0.323706 0.958768 0.335126 0.026885
O76   O     O_2   0.383280 0.984154 0.351918 -0.562107
C149  C     C_2   0.878287 0.545545 0.102220 0.615313
H93   H     H_    0.912877 0.540784 0.077371 0.019462
O77   O     O_2   0.866777 0.576587 0.154991 -0.572241
C150  C     C_2   0.860844 0.451871 0.658735 0.483203
H94   H     H_    0.895822 0.445106 0.653162 0.100072
O78   O     O_2   0.836310 0.432743 0.741478 -0.562891
C151  C     C_2   0.365857 0.044631 0.148676 0.625493
H95   H     H_    0.401655 0.046285 0.137794 0.028276
O79   O     O_2   0.346047 0.068109 0.227419 -0.559558
C152  C     C_2   0.365409 0.957004 0.653004 0.380225
H96   H     H_    0.348974 0.938653 0.737506 0.062684
O80   O     O_2   0.404833 0.952876 0.627948 -0.508037
C153  C     C_2   0.936370 0.270701 0.056972 0.600060
H97   H     H_    0.909914 0.291712 0.038336 0.081700
O81   O     O_2   0.927291 0.238483 0.108442 -0.524341
C154  C     C_2   0.014073 0.748793 0.651481 0.482783
H98   H     H_    0.997347 0.768584 0.728104 0.105275
O82   O     O_2   0.054670 0.748335 0.648935 -0.547747
C155  C     C_2   0.507727 0.754543 0.195675 0.476470
H99   H     H_    0.488276 0.739658 0.282628 0.075031
O83   O     O_2   0.548181 0.751468 0.198392 -0.503578
C156  C     C_2   0.511942 0.247420 0.657805 0.506204
H100  H     H_    0.494575 0.265541 0.739000 0.097952
O84   O     O_2   0.552500 0.248572 0.653415 -0.521674
F1    F     F_    0.240690 0.673265 0.414720 -0.610986
F2    F     F_    0.295923 0.351153 0.689009 -0.624861
F3    F     F_    0.788550 0.149216 0.223228 -0.610026
F4    F     F_    0.797337 0.852412 0.674388 -0.614077
F5    F     F_    0.967741 0.348304 0.057187 -0.720682
F6    F     F_    0.968429 0.656544 0.489669 -0.679240
F7    F     F_    0.470664 0.844117 0.984948 -0.694124
F8    F     F_    0.470069 0.155413 0.482694 -0.680405
C157  C     C_2   0.001780 0.313599 0.262184 0.256722
H101  H     H_    0.973009 0.318617 0.332844 0.076660
O85   O     O_2   0.035632 0.300424 0.320610 -0.581374
C158  C     C_2   0.987611 0.668641 0.746323 0.378412
H102  H     H_    0.997430 0.640857 0.794270 -0.053460
O86   O     O_2   0.967954 0.691434 0.828037 -0.560915
C159  C     C_2   0.479748 0.834523 0.249247 0.344375
H103  H     H_    0.448517 0.823188 0.291261 0.047452
O87   O     O_2   0.501877 0.855462 0.331021 -0.658464
C160  C     C_2   0.484950 0.166125 0.743981 0.379788
H104  H     H_    0.494337 0.138012 0.789647 -0.034010
O88   O     O_2   0.464416 0.188265 0.825864 -0.568575
C161  C     C_2   0.014913 0.247925 0.044133 0.739647
H105  H     H_    0.021515 0.237993 0.160776 0.080851
O89   O     O_2   0.032380 0.230957 0.938128 -0.559476
C162  C     C_2   0.994991 0.733876 0.386235 0.723076
H106  H     H_    0.028817 0.734848 0.344941 0.033098
O90   O     O_2   0.964182 0.743433 0.301690 -0.526470
C163  C     C_2   0.496255 0.764517 0.919446 0.766312
H107  H     H_    0.530769 0.763799 0.884638 0.019040
O91   O     O_2   0.467313 0.752435 0.832947 -0.549558
C164  C     C_2   0.494046 0.233474 0.390184 0.717771
H108  H     H_    0.527796 0.234077 0.347907 0.026587
O92   O     O_2   0.463351 0.244040 0.307017 -0.534631
F9    F     F_    0.106477 0.456831 0.140563 -0.704158
F10   F     F_    0.107892 0.542944 0.634505 -0.701345
F11   F     F_    0.615696 0.955648 0.099742 -0.699855
F12   F     F_    0.612313 0.044783 0.613256 -0.687450

loop_
_geom_bond_atom_site_label_1
_geom_bond_atom_site_label_2
_geom_bond_distance
_ccdc_geom_bond_type
C136  H80   1.085700 S    
H1    C29   1.110322 S    
C29   H37   1.105325 S    
C153  H97   1.085008 S    
C15   H19   1.111077 S    
C2    H10   1.107117 S    
C124  C128  1.418637 A    
Ba2   O45   3.035361 S    
C33   C121  1.349032 D    
C26   H30   1.112319 S    
O38   C13   1.391978 S    
P7    O48   1.542387 S    
C145  H89   1.070113 S    
C20   C144  1.502317 S    
C34   H74   1.081363 S    
C121  C125  1.422411 A    
C71   C83   1.404243 A    
C28   H36   1.109663 S    
C123  C127  1.414756 A    
H48   C80   1.083214 S    
C19   H23   1.111826 S    
O10   Ba2   2.752877 S    
C73   C79   1.400110 A    
N5    C89   1.395149 Am   
C104  C108  1.389165 A    
C91   O63   1.221191 D    
C125  H69   1.081305 S    
O12   Ba4   2.752877 S    
O11   P16   1.753037 S    
C142  H86   1.084043 S    
O42   C6    1.415375 S    
O9    P14   1.747299 S    
C58   F2    1.358000 S    
P4    O8    1.537596 S    
O21   C29   1.406559 S    
C63   C67   1.408158 A    
C94   C110  1.416482 A    
C32   H40   1.103873 S    
P4    C124  1.864975 S    
P9    O41   1.766791 S    
C115  H59   1.079944 S    
C116  H60   1.082577 S    
C85   N5    1.392562 Am   
O1    Ba1   2.791533 S    
C144  H88   1.083005 S    
C44   O52   1.221251 D    
C162  O90   1.221102 D    
C14   H18   1.109126 S    
C20   C140  1.513360 S    
C28   H32   1.112723 S    
C148  H92   1.085786 S    
C77   C81   1.408625 A    
N3    C111  1.469421 S    
P10   C97   1.879996 S    
C160  O88   1.220603 D    
P12   O44   1.768250 S    
C10   H14   1.113128 S    
C135  H79   1.085367 S    
Ba4   O48   2.780303 S    
O19   C23   1.418076 S    
C114  H58   1.082446 S    
C86   O58   1.221820 D    
C70   C82   1.410126 A    
O4    Ba4   2.796392 S    
C15   F11   1.378383 S    
C161  H105  1.084870 S    
C105  C109  1.518081 S    
C4    H12   1.108317 S    
C159  H103  1.082345 S    
P1    Ba1   3.427683 S    
P8    C103  1.837408 S    
C19   C143  1.501282 S    
N2    C46   1.390443 Am   
P3    Ba3   3.427683 S    
C48   C52   1.417463 A    
C33   C117  1.475778 S    
C61   H53   1.083386 S    
C89   O61   1.220959 D    
C95   C111  1.418496 A    
C146  H90   1.080322 S    
C64   H56   1.083377 S    
P11   O43   1.772231 S    
C114  C130  1.355869 D    
C99   C135  1.433552 A    
C4    H44   1.108753 S    
O18   C22   1.421977 S    
P8    O47   1.547561 S    
C25   H33   1.102528 S    
C9    C161  1.515957 S    
C92   O64   1.221666 D    
C18   C142  1.497345 S    
P4    Ba4   3.434355 S    
C56   C70   1.429235 A    
C150  H94   1.079387 S    
C94   C98   1.435284 A    
C87   O59   1.220392 D    
O2    Ba2   2.796392 S    
P10   O42   1.767870 S    
C88   O60   1.221948 D    
N5    C129  1.475519 S    
C105  H61   1.082969 S    
C74   C80   1.398749 A    
C7    F7    1.382355 S    
C141  H85   1.084070 S    
C35   H75   1.081818 S    
C5    C9    1.556426 S    
N2    C110  1.468253 S    
C103  C107  1.388940 A    
C96   C112  1.416668 A    
C7    C11   1.554941 S    
C41   O49   1.218794 D    
C51   C55   1.408571 A    
C66   C90   1.417404 A    
C158  H102  1.078690 S    
C98   C134  1.432540 A    
C51   C75   1.409704 A    
C49   C73   1.410635 A    
C151  H95   1.083311 S    
C46   C50   1.415865 A    
C11   C155  1.510667 S    
C37   C53   1.403801 A    
C23   C151  1.484527 S    
C38   C58   1.414172 A    
C50   C54   1.408704 A    
N6    C130  1.468273 S    
N7    C91   1.399587 Am   
C2    C30   1.529387 S    
H51   C75   1.083220 S    
C96   C100  1.442394 A    
P9    O29   1.763859 S    
C138  H82   1.084807 S    
C27   H31   1.112352 S    
C39   C55   1.412254 A    
O12   P15   1.748551 S    
C140  O68   1.222050 D    
P12   O32   1.770178 S    
C13   C17   1.542446 S    
H2    C30   1.107856 S    
C15   C19   1.541281 S    
C66   C70   1.406932 A    
Ba1   O45   2.799544 S    
C3    H11   1.107599 S    
C127  C131  1.433666 A    
C34   C122  1.345370 D    
C41   N1    1.400115 Am   
P5    O25   1.578392 D    
O3    Ba3   2.791533 S    
O23   P16   1.759042 S    
C122  C126  1.419295 A    
O21   P14   1.753458 S    
C154  H98   1.085251 S    
H45   C77   1.083153 S    
C137  O65   1.220246 D    
O23   C31   1.411349 S    
P3    O7    1.542670 S    
H50   C74   1.083239 S    
C82   C86   1.420168 A    
C3    C31   1.524021 S    
C143  O71   1.220886 D    
C1    H41   1.110494 S    
C10   C154  1.512048 S    
C50   C74   1.409089 A    
C60   C62   1.399734 A    
P2    O18   1.794409 S    
P9    C98   1.882268 S    
O22   C30   1.405072 S    
C35   C123  1.341561 D    
C9    C153  1.507916 S    
P5    O46   1.542387 S    
C68   C72   1.407011 A    
C24   C152  1.474480 S    
C60   F4    1.357999 S    
P5    O37   1.748131 S    
C164  O92   1.221130 D    
C44   N4    1.389032 Am   
C17   H21   1.112702 S    
C28   H28   1.111828 S    
O15   P16   1.548859 D    
C21   C25   1.544635 S    
P2    C122  1.874521 S    
O13   P14   1.548973 D    
C100  C136  1.437394 A    
C23   C27   1.549952 S    
H52   C76   1.083253 S    
C36   H76   1.082040 S    
C128  H72   1.081981 S    
Ba2   O46   2.780303 S    
N8    C132  1.465142 S    
P3    C123  1.868059 S    
O29   Ba1   2.753250 S    
C72   C84   1.410384 A    
C101  C105  1.391187 A    
O11   Ba3   2.779923 S    
C55   C69   1.429464 A    
C62   C66   1.407421 A    
O30   Ba2   2.780324 S    
C20   H24   1.112204 S    
C93   C97   1.434376 A    
C17   C141  1.496901 S    
C157  O85   1.219335 D    
C5    F5    1.385540 S    
C10   C162  1.494046 S    
C48   O56   1.220838 D    
P11   O31   1.768156 S    
C142  O70   1.220772 D    
C152  H96   1.086721 S    
C126  H70   1.082255 S    
C75   C77   1.400998 A    
O40   C15   1.393352 S    
N1    C45   1.402782 Am   
C101  C133  1.378393 A    
C95   C99   1.442316 A    
O32   Ba4   2.780324 S    
N4    C48   1.388847 Am   
C114  C118  1.477663 S    
C16   C20   1.541395 S    
C21   C145  1.488766 S    
Ba1   Ba2   4.719402 S    
C156  O84   1.221558 D    
P6    O45   1.547561 S    
C12   H16   1.113457 S    
C133  H77   1.085589 S    
C25   H29   1.113439 S    
O37   C14   1.394427 S    
O39   C16   1.394225 S    
C106  C110  1.507979 S    
C144  O72   1.220844 D    
P1    O1    1.587010 D    
C40   C44   1.422386 A    
P7    O27   1.578392 D    
P6    O38   1.746883 S    
P3    O3    1.587010 D    
P4    O20   1.794482 S    
C148  O76   1.204391 D    
C106  H62   1.084166 S    
C18   H22   1.112501 S    
C4    C32   1.527435 S    
C68   C92   1.416421 A    
P6    C101  1.826263 S    
C156  H100  1.085281 S    
C42   O50   1.221154 D    
P3    O19   1.789025 S    
C116  C132  1.353850 D    
O25   Ba1   2.797688 S    
O5    Ba2   2.801113 S    
C103  C135  1.377906 A    
C155  H99   1.085256 S    
C104  C136  1.379110 A    
O41   C5    1.416155 S    
O7    Ba4   2.801113 S    
O20   C24   1.414598 S    
C127  H71   1.077966 S    
C149  O77   1.218021 D    
C43   N3    1.389447 Am   
C46   O54   1.221441 D    
C64   C68   1.407130 A    
C45   C49   1.414281 A    
C139  H83   1.085504 S    
C153  O81   1.222203 D    
C67   C71   1.400772 A    
H47   C79   1.083281 S    
C38   C54   1.412134 A    
P1    C121  1.893278 S    
C145  O73   1.222348 D    
P7    Ba3   3.435286 S    
C27   H35   1.108928 S    
P10   O30   1.767031 S    
C39   C59   1.413343 A    
P11   O35   1.545385 D    
O28   Ba4   2.792768 S    
O8    Ba3   2.781819 S    
C146  O74   1.210960 D    
P12   O36   1.543720 D    
H49   C73   1.083289 S    
H4    C32   1.109400 S    
C13   H17   1.107644 S    
P15   C120  1.849529 S    
C102  C134  1.380829 A    
C17   C137  1.506203 S    
C1    H5    1.103535 S    
C24   C28   1.537255 S    
P11   C100  1.886464 S    
C3    H7    1.110199 S    
C59   C61   1.397894 A    
C125  C129  1.432123 A    
C83   C87   1.415753 A    
C84   C88   1.418616 A    
C57   C63   1.401323 A    
C115  C119  1.473554 S    
C147  H91   1.072602 S    
C42   N2    1.389381 Am   
C9    H13   1.104520 S    
P6    O26   1.587089 D    
C150  O78   1.223134 D    
P1    O5    1.542670 S    
P8    O40   1.747431 S    
C69   C81   1.409701 A    
C8    F8    1.383950 S    
O22   P13   1.755189 S    
P5    Ba1   3.435286 S    
H3    C31   1.103235 S    
C13   F9    1.377195 S    
C107  C111  1.503686 S    
O16   P15   1.547299 D    
C12   C156  1.511228 S    
C37   C41   1.418581 A    
C107  H63   1.083101 S    
C158  O86   1.220849 D    
C34   C118  1.479349 S    
C2    H42   1.105662 S    
O24   C32   1.409894 S    
C8    C160  1.508489 S    
O26   Ba2   2.792768 S    
O6    Ba1   2.781819 S    
C162  H106  1.082869 S    
C163  H107  1.084755 S    
C151  O79   1.223491 D    
C31   H39   1.104225 S    
C5    C157  1.502087 S    
C52   C76   1.409107 A    
C1    H9    1.101795 S    
C53   C71   1.421852 A    
C160  H104  1.078001 S    
O31   Ba3   2.753250 S    
C143  H87   1.082800 S    
C26   H34   1.106388 S    
C11   H15   1.115017 S    
P9    O33   1.542955 D    
Ba4   O47   3.035361 S    
C138  O66   1.220545 D    
C57   F1    1.358121 S    
C87   N7    1.397352 Am   
P14   C117  1.860420 S    
C108  C112  1.501835 S    
C6    C10   1.560650 S    
Ba3   Ba4   4.719402 S    
C161  O89   1.220528 D    
P2    Ba2   3.434355 S    
O14   P13   1.549321 D    
C90   O62   1.221639 D    
N1    C109  1.492090 S    
C67   C91   1.413848 A    
O17   C21   1.415284 S    
P12   C99   1.881358 S    
C3    H43   1.107722 S    
O10   P13   1.749793 S    
C65   C89   1.415362 A    
C79   C83   1.407969 A    
P1    O17   1.780009 S    
C6    C158  1.509187 S    
P4    O4    1.578301 D    
C154  O82   1.221708 D    
C16   F12   1.377301 S    
C137  H81   1.084893 S    
P6    Ba2   3.428448 S    
C18   C138  1.506636 S    
C12   C164  1.495595 S    
C61   C65   1.407695 A    
C49   C53   1.400675 A    
N6    C90   1.391638 Am   
C113  C129  1.357050 D    
P8    Ba4   3.428448 S    
O27   Ba3   2.797688 S    
C113  C117  1.473125 S    
C63   H55   1.083367 S    
P5    C102  1.845376 S    
C14   C18   1.542582 S    
P16   C119  1.851904 S    
C35   C119  1.467781 S    
C108  H64   1.083811 S    
C80   C84   1.407500 A    
C141  O69   1.220594 D    
C65   C69   1.404705 A    
N7    C131  1.480765 S    
C25   H25   1.112010 S    
C116  C120  1.476259 S    
C30   H38   1.101538 S    
C113  H57   1.081800 S    
C155  O83   1.221516 D    
P2    O2    1.578301 D    
P7    O39   1.748328 S    
H46   C78   1.083188 S    
C86   N6    1.390417 Am   
C7    C159  1.496714 S    
C22   C146  1.456168 S    
C139  O67   1.221983 D    
C16   H20   1.110446 S    
C4    H8    1.110328 S    
C81   C85   1.422551 A    
C47   O55   1.220695 D    
C78   C82   1.408143 A    
N3    C47   1.390387 Am   
C52   C56   1.409289 A    
C115  C131  1.361933 D    
C43   O51   1.221437 D    
C159  O87   1.212001 D    
C95   H67   1.085407 S    
C140  H84   1.085479 S    
C33   H73   1.080591 S    
N8    C92   1.390743 Am   
C96   H68   1.085667 S    
C22   C150  1.487862 S    
C45   O53   1.217929 D    
C128  C132  1.424533 A    
C59   F3    1.358090 S    
Ba1   O46   3.030138 S    
C54   C72   1.428184 A    
O44   C8    1.415137 S    
C93   H65   1.078525 S    
Ba3   O48   3.030138 S    
C157  H101  1.081777 S    
N4    C112  1.467372 S    
C147  O75   1.224042 D    
C152  O80   1.216558 D    
P10   O34   1.545129 D    
C39   C43   1.420999 A    
C8    C12   1.560233 S    
C40   C56   1.412303 A    
O9    Ba1   2.779923 S    
P2    O6    1.537596 S    
C88   N8    1.389313 Am   
Ba3   O47   2.799544 S    
C62   H54   1.083369 S    
C22   C26   1.556440 S    
P8    O28   1.587089 D    
C26   H26   1.105843 S    
C2    H6    1.110024 S    
C47   C51   1.418664 A    
C24   C148  1.446502 S    
C126  C130  1.426594 A    
C58   C64   1.399371 A    
C97   C133  1.425601 A    
C102  C106  1.393090 A    
C134  H78   1.083659 S    
O24   P15   1.756652 S    
C93   C109  1.428399 A    
C94   H66   1.085421 S    
O43   C7    1.419157 S    
C163  O91   1.221093 D    
C85   O57   1.221421 D    
C14   F10   1.378393 S    
C21   C149  1.487458 S    
C11   C163  1.497661 S    
C6    F6    1.382341 S    
C37   C57   1.414627 A    
C19   C139  1.513615 S    
C23   C147  1.457013 S    
C38   C42   1.421856 A    
C40   C60   1.414144 A    
P7    C104  1.838744 S    
C1    C29   1.521271 S    
P13   C118  1.864501 S    
C76   C78   1.399836 A    
C164  H108  1.083374 S    
C27   H27   1.111656 S    
C149  H93   1.077783 S    
C36   C120  1.471976 S    
C36   C124  1.345350 D    
