data_mof_unit_25794.cif
_audit_creation_date              2012-12-10T18:52:19-0500
_audit_creation_method            fapswitch 2.2
_symmetry_space_group_name_H-M    P1
_symmetry_Int_Tables_number       1
_space_group_crystal_system       triclinic
_cell_length_a                    15.688182
_cell_length_b                    10.791159
_cell_length_c                    9.894388
_cell_angle_alpha                 90.404472
_cell_angle_beta                  92.176496
_cell_angle_gamma                 90.486725
_cell_volume                      1673.74273095

loop_
_atom_site_label
_atom_site_type_symbol
_atom_type_description
_atom_site_fract_x
_atom_site_fract_y
_atom_site_fract_z
_atom_type_partial_charge
C1    C     C_R   0.499111 0.260267 0.499929 0.957270
C2    C     C_R   0.431808 0.453568 0.065267 0.065602
C3    C     C_R   0.338022 0.499288 0.497608 0.861528
C4    C     C_R   0.661947 0.498955 0.502484 0.898067
C5    C     C_3   0.973606 0.378380 0.541249 0.439468
C6    C     C_3   0.026077 0.590912 0.439335 0.474753
C7    C     C_3   0.025508 0.388547 0.411353 -0.463301
C8    C     C_3   0.974807 0.581583 0.569574 -0.521629
C9    C     C_1   0.249183 0.494129 0.491920 -0.159129
C10   C     C_1   0.750671 0.493130 0.507519 -0.203300
C11   C     C_3   0.031891 0.472550 0.616194 0.440620
C12   C     C_R   0.498924 0.740134 0.500331 0.982630
C13   C     C_3   0.967536 0.496552 0.363979 0.448230
C14   C     C_3   0.083129 0.484499 0.487606 -0.040222
C15   C     C_3   0.916037 0.485634 0.493479 -0.088333
C16   C     C_1   0.173899 0.489128 0.488414 0.083543
C17   C     C_1   0.825777 0.488159 0.504911 0.012996
C18   C     C_R   0.469755 0.062938 0.384986 0.348777
C19   C     C_R   0.506118 0.939020 0.624850 0.381430
C20   C     C_3   0.002389 0.181048 0.618794 0.095867
C21   C     C_3   0.963282 0.068846 0.687540 -0.330279
C22   C     C_3   0.030216 0.971788 0.724344 -0.990889
C23   C     C_R   0.483877 0.937635 0.377980 0.358545
C24   C     C_3   0.992321 0.784035 0.355236 0.093319
C25   C     C_3   0.029649 0.907151 0.309183 -0.331107
C26   C     C_3   0.959701 0.998884 0.269012 -0.995345
C27   C     C_3   0.860308 0.475368 0.192268 0.065543
C28   C     C_3   0.847754 0.333812 0.196209 -0.355073
C29   C     C_3   0.753291 0.298600 0.188409 -0.931442
C30   C     C_3   0.038348 0.516381 0.847987 0.145530
C31   C     C_3   0.087845 0.638247 0.870214 -0.359403
C32   C     C_3   0.054224 0.712162 0.988452 -0.919043
C33   C     C_3   0.335712 0.115188 0.314102 0.096577
C34   C     C_R   0.521522 0.064547 0.620169 0.319709
C35   C     C_3   0.280249 0.098640 0.184707 -0.302654
C36   C     C_3   0.189085 0.141366 0.204680 -0.956052
C37   C     C_3   0.417659 0.857429 0.781456 0.172555
C38   C     C_3   0.371866 0.971856 0.835135 -0.370148
C39   C     C_3   0.278642 0.941573 0.861168 -0.994000
C40   C     C_3   0.550015 0.860707 0.192975 0.143589
C41   C     C_3   0.585764 0.978594 0.129381 -0.349591
C42   C     C_3   0.665709 0.948570 0.052433 -0.961488
C43   C     C_3   0.640275 0.141449 0.729971 0.149074
C44   C     C_3   0.669064 0.246273 0.826046 -0.355567
C45   C     C_R   0.496773 0.873072 0.500896 -0.465532
C46   C     C_3   0.765449 0.266417 0.825179 -0.956172
C47   C     C_2   0.642183 0.607351 0.874969 0.424573
C48   C     C_2   0.357953 0.397570 0.127985 0.401208
C49   C     C_R   0.497790 0.128027 0.501176 -0.439134
C50   C     C_R   0.568279 0.544558 0.077673 -0.206070
C51   C     C_R   0.432423 0.453505 0.922147 -0.075354
C52   C     C_R   0.567899 0.548036 0.934730 0.038488
H1    H     H_    0.047571 0.310983 0.347631 0.176641
H2    H     H_    0.998521 0.891137 0.770728 0.272287
H3    H     H_    0.078514 0.010700 0.798331 0.275197
H4    H     H_    0.954383 0.802657 0.445939 0.135614
H5    H     H_    0.949574 0.746008 0.272491 0.174233
H6    H     H_    0.070244 0.947695 0.392770 0.212441
H7    H     H_    0.070365 0.891122 0.221519 0.241320
H8    H     H_    0.919825 0.961605 0.182616 0.269655
H9    H     H_    0.989058 0.087778 0.238131 0.268263
H10   H     H_    0.918535 0.017343 0.355649 0.271177
H11   H     H_    0.814409 0.526379 0.253623 0.144655
H12   H     H_    0.952142 0.660110 0.631379 0.172672
H13   H     H_    0.845487 0.505342 0.086843 0.142004
H14   H     H_    0.880154 0.291182 0.109611 0.219997
H15   H     H_    0.876120 0.294222 0.290541 0.243015
H16   H     H_    0.723509 0.321256 0.285233 0.278725
H17   H     H_    0.746270 0.197438 0.170219 0.265754
H18   H     H_    0.719234 0.349171 0.105760 0.260064
H19   H     H_    0.045579 0.460431 0.941513 0.196008
H20   H     H_    0.968540 0.532335 0.832448 0.126344
H21   H     H_    0.156407 0.617863 0.891244 0.256890
H22   H     H_    0.082952 0.695181 0.777284 0.222353
H23   H     H_    0.622247 0.581720 0.136719 0.132089
H24   H     H_    0.985317 0.732032 0.971253 0.255128
H25   H     H_    0.089721 0.801415 0.998212 0.261016
H26   H     H_    0.063580 0.659775 0.084008 0.317922
H27   H     H_    0.320182 0.203292 0.366261 0.128406
H28   H     H_    0.318512 0.038054 0.383363 0.114903
H29   H     H_    0.307485 0.151620 0.100600 0.248159
H30   H     H_    0.279373 0.999038 0.155453 0.229843
H31   H     H_    0.162357 0.094673 0.293245 0.248174
H32   H     H_    0.148660 0.118536 0.113174 0.271110
H33   H     H_    0.187900 0.243122 0.221956 0.295830
H34   H     H_    0.379261 0.414449 0.862797 0.179754
H35   H     H_    0.418457 0.785421 0.861244 0.171417
H36   H     H_    0.380073 0.817347 0.693461 0.115560
H37   H     H_    0.404309 0.004699 0.930587 0.247731
H38   H     H_    0.373361 0.047833 0.760182 0.227915
H39   H     H_    0.245005 0.908716 0.766583 0.269641
H40   H     H_    0.246154 0.026070 0.896674 0.274726
H41   H     H_    0.274361 0.868705 0.939428 0.278091
H42   H     H_    0.538832 0.791210 0.111006 0.177283
H43   H     H_    0.598852 0.821330 0.265014 0.118780
H44   H     H_    0.537196 0.019503 0.058853 0.265414
H45   H     H_    0.055124 0.218683 0.685829 0.190032
H46   H     H_    0.603020 0.047898 0.209536 0.212630
H47   H     H_    0.713784 0.902537 0.119937 0.246332
H48   H     H_    0.694672 0.034756 0.014439 0.265491
H49   H     H_    0.649255 0.886871 0.964902 0.311721
H50   H     H_    0.660386 0.166667 0.626430 0.102821
H51   H     H_    0.672513 0.054077 0.760738 0.158246
H52   H     H_    0.637018 0.332934 0.794482 0.253313
H53   H     H_    0.649581 0.225210 0.930075 0.226057
H54   H     H_    0.798816 0.184878 0.869042 0.261526
H55   H     H_    0.783641 0.349874 0.886120 0.260475
H56   H     H_    0.028470 0.150426 0.521116 0.137715
H57   H     H_    0.786054 0.281200 0.720363 0.304443
H58   H     H_    0.705857 0.587063 0.915148 -0.003263
H59   H     H_    0.366891 0.346571 0.220007 0.141776
H60   H     H_    0.932827 0.099538 0.781526 0.231497
H61   H     H_    0.913302 0.026292 0.618893 0.218261
H62   H     H_    0.062563 0.939440 0.632944 0.269762
N1    N     N_R   0.499980 0.499970 0.857200 -0.118081
N2    N     N_R   0.500020 0.500030 0.142800 -0.113139
O1    O     O_R   0.499990 0.316750 0.614620 -0.589607
O2    O     O_3   0.059519 0.701117 0.385312 -0.629789
O3    O     O_3   0.945199 0.512027 0.224923 -0.657385
O4    O     O_3   0.073861 0.448126 0.742161 -0.653277
O5    O     O_3   0.423043 0.118217 0.281210 -0.612959
O6    O     O_3   0.503737 0.883676 0.750790 -0.565971
O7    O     O_3   0.470558 0.879513 0.253578 -0.589183
O8    O     O_3   0.550953 0.125548 0.736394 -0.588764
O9    O     O_2   0.633291 0.686530 0.788584 -0.519740
O10   O     O_2   0.286548 0.405246 0.075230 -0.604535
O11   O     O_R   0.500010 0.683250 0.385380 -0.596429
O12   O     O_R   0.500000 0.316780 0.385290 -0.608744
O13   O     O_R   0.500000 0.683220 0.614710 -0.546737
O14   O     O_R   0.376780 0.499970 0.614640 -0.633247
O15   O     O_R   0.623220 0.500030 0.385360 -0.644733
O16   O     O_R   0.376780 0.500000 0.385310 -0.636317
O17   O     O_R   0.623220 0.500000 0.614690 -0.596528
O18   O     O_3   0.938251 0.270155 0.596423 -0.648766
Zn1   Zn    Zn3+2 0.500000 0.499980 0.653120 0.982411
Zn2   Zn    Zn3+2 0.500000 0.500020 0.346880 0.949252

loop_
_geom_bond_atom_site_label_1
_geom_bond_atom_site_label_2
_ccdc_geom_bond_type
C19   O6    S    
C23   C45   A    
C3    O14   A    
C41   C42   S    
C37   H36   S    
C35   C36   S    
C1    O12   A    
C30   H19   S    
C44   H52   S    
C22   H2    S    
C12   O11   A    
C44   H53   S    
C38   H37   S    
N1    Zn1   S    
C27   H13   S    
C28   C29   S    
C26   H9    S    
C5    C11   S    
O12   Zn2   S    
C30   C31   S    
C11   C14   S    
C31   H21   S    
C41   H44   S    
C36   H31   S    
C39   H41   S    
C32   H25   S    
O13   Zn1   S    
C2    N2    A    
C7    C14   S    
C20   H45   S    
O14   Zn1   S    
C24   H5    S    
C50   C52   A    
C21   C22   S    
C33   O5    S    
C11   O4    S    
C51   H34   S    
C39   H39   S    
C13   O3    S    
C35   H30   S    
C44   C46   S    
C47   O9    D    
C4    O15   A    
C29   H17   S    
C35   H29   S    
C5    O18   S    
C12   O13   A    
C18   C23   A    
C28   H15   S    
C24   C25   S    
C21   H61   S    
O15   Zn2   S    
C5    C7    S    
C33   H27   S    
C31   H22   S    
C6    C8    S    
C2    C48   S    
C25   C26   S    
C32   H26   S    
C51   N1    A    
C3    O16   A    
C28   H14   S    
C43   C44   S    
C37   C38   S    
C3    C9    S    
C42   H48   S    
C6    C14   S    
C29   H16   S    
C30   H20   S    
C31   C32   S    
C7    C13   S    
O16   Zn2   S    
C46   H55   S    
C1    O1    A    
O11   Zn2   S    
C47   C52   S    
C27   H11   S    
C8    H12   S    
C40   C41   S    
C8    C15   S    
C13   C15   S    
C14   C16   S    
C25   H6    S    
C7    H1    S    
C40   H43   S    
C4    C10   S    
O1    Zn1   S    
C42   H49   S    
C39   H40   S    
C21   H60   S    
C26   H8    S    
C29   H18   S    
C52   N1    A    
C15   C17   S    
C40   O7    S    
C34   C49   A    
C34   O8    S    
C37   H35   S    
C40   H42   S    
C12   C45   S    
C19   C34   A    
C32   H24   S    
C23   O7    S    
C19   C45   A    
C33   H28   S    
C22   H3    S    
N2    Zn2   S    
C27   O3    S    
C36   H33   S    
C24   H4    S    
C47   H58   S    
C25   H7    S    
C38   H38   S    
C24   O2    S    
C26   H10   S    
C43   H50   S    
C42   H47   S    
C6    C13   S    
C38   C39   S    
C30   O4    S    
C36   H32   S    
C8    C11   S    
C46   H54   S    
C33   C35   S    
C50   N2    A    
C43   H51   S    
C5    C15   S    
C2    C51   A    
C18   O5    S    
C48   O10   D    
C37   O6    S    
C22   H62   S    
C48   H59   S    
C20   C21   S    
C46   H57   S    
C27   C28   S    
O17   Zn1   S    
C41   H46   S    
C10   C17   T    
C20   O18   S    
C50   H23   S    
C1    C49   S    
C43   O8    S    
C6    O2    S    
C18   C49   A    
C9    C16   T    
C4    O17   A    
C20   H56   S    
