data_mof_unit_35163.cif
_audit_creation_date              2012-12-11T14:29:41-0500
_audit_creation_method            fapswitch 2.2
_symmetry_space_group_name_H-M    P1
_symmetry_Int_Tables_number       1
_space_group_crystal_system       triclinic
_cell_length_a                    6.944047
_cell_length_b                    14.77522
_cell_length_c                    16.257794
_cell_angle_alpha                 90.462359
_cell_angle_beta                  89.643409
_cell_angle_gamma                 89.849804
_cell_volume                      1667.9542038

loop_
_atom_site_label
_atom_site_type_symbol
_atom_type_description
_atom_site_fract_x
_atom_site_fract_y
_atom_site_fract_z
_atom_type_partial_charge
O1    O     O_R   0.494400 0.416610 0.413880 -0.542244
O2    O     O_R   0.823920 0.406790 0.585520 -0.531467
O3    O     O_R   0.994250 0.583390 0.586120 -0.529157
C1    C     C_R   0.654892 0.385967 0.613794 0.814313
O4    O     O_R   0.824110 0.405730 0.414490 -0.547025
O5    O     O_R   0.994440 0.582310 0.413870 -0.542898
C2    C     C_R   0.656404 0.384018 0.386398 0.728649
O6    O     O_R   0.494210 0.417690 0.586130 -0.531369
O7    O     O_3   0.660810 0.557940 0.500000 -0.378878
V1    V     V_3+5 0.935650 0.489250 0.500000 1.454607
O8    O     O_R   0.324160 0.593210 0.414480 -0.549992
C3    C     C_R   0.155637 0.614912 0.386292 0.720672
O9    O     O_R   0.323970 0.594270 0.585510 -0.540585
C4    C     C_R   0.154748 0.614849 0.615046 0.783582
V2    V     V_3+5 0.435660 0.510750 0.500000 1.451868
O10   O     O_3   0.160630 0.442060 0.500000 -0.364664
C5    C     C_R   0.065440 0.560653 0.788544 0.151443
C6    C     C_R   0.022150 0.537118 0.869908 -0.194196
C7    C     C_R   0.011216 0.602476 0.931894 0.232754
C8    C     C_R   0.043390 0.692666 0.912574 -0.146504
C9    C     C_R   0.086568 0.719936 0.831305 -0.024620
C10   C     C_R   0.097831 0.653245 0.766978 0.073002
C11   C     C_R   0.121545 0.812564 0.814707 -0.124545
C12   C     C_R   0.168880 0.839571 0.733695 0.044779
C13   C     C_R   0.179211 0.774370 0.668945 -0.012550
C14   C     C_R   0.143650 0.681273 0.684835 -0.147286
C15   C     C_R   0.203694 0.931672 0.715676 -0.223571
C16   C     C_R   0.249057 0.959763 0.635761 0.202033
C17   C     C_R   0.257996 0.895404 0.571938 0.240827
C18   C     C_R   0.222868 0.804350 0.588469 -0.176600
H1    H     H_    0.997732 0.466644 0.884657 0.117571
C19   C     C_2   0.986217 0.708758 0.282406 -0.121988
C20   C     C_2   0.150756 0.682540 0.319362 -0.293762
C21   C     C_2   0.973473 0.776091 0.214416 -0.117892
C22   C     C_2   0.126166 0.814549 0.177049 -0.306187
H2    H     H_    0.271190 0.797177 0.195349 0.131486
C23   C     C_2   0.775553 0.205874 0.775346 0.184048
C24   C     C_2   0.615939 0.166282 0.807323 -0.380527
C25   C     C_2   0.764641 0.256953 0.697136 0.163174
C26   C     C_2   0.644831 0.329011 0.687615 0.000620
C27   C     C_2   0.775933 0.208031 0.215877 0.224592
C28   C     C_2   0.611398 0.170457 0.186696 -0.015939
C29   C     C_2   0.783275 0.259755 0.294982 0.204641
C30   C     C_2   0.649116 0.323730 0.313881 -0.325969
O11   O     O_R   0.770210 0.079270 0.910680 -0.541905
O12   O     O_R   0.440150 0.091160 0.082270 -0.547609
O13   O     O_R   0.269970 0.914530 0.082860 -0.542544
C31   C     C_R   0.608136 0.111722 0.111764 0.732484
O14   O     O_R   0.440480 0.090100 0.911240 -0.545979
O15   O     O_R   0.270310 0.913460 0.910610 -0.538223
C32   C     C_R   0.609739 0.109435 0.881609 0.759660
O16   O     O_R   0.769870 0.080340 0.082930 -0.517835
O17   O     O_3   0.603660 0.938980 0.996790 -0.371927
V3    V     V_3+5 0.328750 0.007610 0.996740 1.415505
O18   O     O_R   0.940600 0.902510 0.911180 -0.540461
C33   C     C_R   0.109951 0.881299 0.882413 0.685119
O19   O     O_R   0.940270 0.903570 0.082200 -0.540990
C34   C     C_R   0.109381 0.881874 0.110327 0.740496
V4    V     V_3+5 0.828770 0.986010 0.996670 1.438565
O20   O     O_3   0.103730 0.054750 0.996710 -0.366191
N1    N     N_3   0.300947 0.921403 0.489164 -0.668582
H3    H     H_    0.199262 0.969532 0.471153 0.256398
H4    H     H_    0.436663 0.951849 0.488288 0.236167
H5    H     H_    0.288060 0.710528 0.300765 0.131956
H6    H     H_    0.829537 0.793976 0.194328 0.137705
N2    N     N_3   0.962314 0.197734 0.812171 -0.677217
H7    H     H_    0.006310 0.130059 0.810006 0.241142
H8    H     H_    0.955127 0.220648 0.873126 0.239866
H9    H     H_    0.481150 0.172042 0.774401 0.113792
N3    N     N_3   0.894359 0.231449 0.631719 -0.666960
H10   H     H_    0.035329 0.238858 0.652882 0.258433
H11   H     H_    0.872467 0.162910 0.618429 0.234681
N4    N     N_3   0.518524 0.359932 0.752424 -0.708633
H12   H     H_    0.594962 0.365477 0.807445 0.237263
H13   H     H_    0.404799 0.314609 0.759346 0.236679
N5    N     N_3   0.953684 0.194979 0.172148 -0.658555
H14   H     H_    0.018361 0.258200 0.164577 0.209727
H15   H     H_    0.041875 0.154520 0.208465 0.248570
N6    N     N_3   0.435889 0.180891 0.232679 -0.687195
H16   H     H_    0.340043 0.215934 0.195380 0.228653
H17   H     H_    0.380020 0.116669 0.244726 0.237973
N7    N     N_3   0.944252 0.241870 0.347718 -0.660876
H18   H     H_    0.037059 0.297417 0.347356 0.249741
H19   H     H_    0.894297 0.230241 0.407516 0.246268
N8    N     N_3   0.076927 0.488671 0.729355 -0.648691
H20   H     H_    0.946090 0.454034 0.730657 0.233036
H21   H     H_    0.183712 0.443664 0.748058 0.250221
H22   H     H_    0.530866 0.335906 0.272076 0.134568
N9    N     N_3   0.966552 0.578564 0.015271 -0.666867
H23   H     H_    0.942638 0.508920 0.019741 0.221020
H24   H     H_    0.087788 0.592867 0.050875 0.226330
H25   H     H_    0.035237 0.741018 0.962812 0.121369
H26   H     H_    0.195964 0.982889 0.763507 0.107173
N10   N     N_3   0.283840 0.053597 0.618582 -0.678577
H27   H     H_    0.431129 0.060754 0.606715 0.226116
H28   H     H_    0.253101 0.093680 0.670329 0.222281
H29   H     H_    0.229524 0.757644 0.536926 0.125745
H30   H     H_    0.850572 0.680050 0.302985 0.136869

loop_
_geom_bond_atom_site_label_1
_geom_bond_atom_site_label_2
_ccdc_geom_bond_type
N2    H8    S    
O18   C33   A    
O18   V4    S    
N4    H13   S    
N4    H12   S    
C22   H2    S    
C12   C15   A    
C1    O6    A    
O17   V4    S    
C11   C33   S    
V3    O20   S    
O17   V3    S    
C8    H25   S    
C18   H29   S    
C17   C18   A    
C22   C34   S    
C5    N8    S    
C16   C17   A    
N5    H15   S    
C21   C22   D    
O5    C3    A    
O19   V4    S    
O11   C32   A    
O14   V3    S    
C26   N4    S    
C16   N10   S    
C6    C7    A    
C27   C28   D    
N1    H4    S    
O8    V2    S    
C1    C26   S    
O14   C32   A    
C11   C12   A    
N3    H10   S    
O1    V2    S    
N9    H24   S    
O7    V1    S    
N2    H7    S    
C24   H9    S    
V4    O20   S    
O9    C4    A    
C27   C29   S    
N10   H27   S    
C21   H6    S    
O12   C31   A    
N5    H14   S    
N8    H21   S    
C17   N1    S    
C12   C13   A    
N9    H23   S    
C25   C26   D    
O4    C2    A    
C28   C31   S    
C24   C32   S    
C13   C14   A    
N8    H20   S    
O15   C33   A    
C19   C21   S    
O2    C1    A    
C29   C30   D    
C23   C24   D    
C7    N9    S    
O16   V4    S    
C31   O16   A    
C23   N2    S    
O12   V3    S    
C5    C6    A    
O15   V3    S    
C2    C30   S    
C4    C14   S    
N10   H28   S    
O3    C4    A    
O13   V3    S    
O6    V2    S    
N7    H19   S    
O9    V2    S    
C15   H26   S    
O2    V1    S    
N6    H17   S    
C13   C18   A    
O11   V4    S    
O1    C2    A    
O5    V1    S    
O8    C3    A    
C5    C10   A    
C19   C20   D    
C7    C8    A    
C9    C11   A    
O7    V2    S    
O4    V1    S    
C23   C25   S    
O3    V1    S    
V1    O10   S    
O13   C34   A    
O19   C34   A    
C20   H5    S    
C25   N3    S    
C19   H30   S    
C30   H22   S    
N1    H3    S    
N6    H16   S    
C28   N6    S    
C8    C9    A    
N7    H18   S    
C10   C14   A    
C15   C16   A    
C29   N7    S    
N3    H11   S    
C6    H1    S    
C3    C20   S    
C9    C10   A    
V2    O10   S    
C27   N5    S    
