data_mof_unit_6724.cif
_audit_creation_date              2012-12-11T14:58:24-0500
_audit_creation_method            fapswitch 2.2
_symmetry_space_group_name_H-M    P1
_symmetry_Int_Tables_number       1
_space_group_crystal_system       triclinic
_cell_length_a                    10.985085
_cell_length_b                    11.010512
_cell_length_c                    18.730018
_cell_angle_alpha                 90.237238
_cell_angle_beta                  90.174787
_cell_angle_gamma                 60.211871
_cell_volume                      1966.07010681

loop_
_atom_site_label
_atom_site_type_symbol
_atom_type_description
_atom_site_fract_x
_atom_site_fract_y
_atom_site_fract_z
_atom_type_partial_charge
C1    C     C_R   0.356830 0.777569 0.398635 0.529416
C2    C     C_R   0.610189 0.122743 0.166985 0.070215
C3    C     C_R   0.354310 0.325375 0.164594 -0.000036
C4    C     C_R   0.464405 0.223672 0.276453 -0.131218
C5    C     C_R   0.474713 0.226023 0.202637 -0.012834
C6    C     C_R   0.110339 0.663691 0.331924 -0.040013
C7    C     C_R   0.009148 0.755204 0.380113 -0.057252
C8    C     C_R   0.690497 0.983758 0.191550 -0.086379
C9    C     C_R   0.811191 0.886648 0.155255 -0.116457
C10   C     C_R   0.237619 0.428527 0.201692 -0.142880
C11   C     C_R   0.234654 0.431677 0.275595 -0.035726
C12   C     C_R   0.383154 0.352116 0.388755 0.541612
C13   C     C_R   0.888646 0.747745 0.391225 -0.108910
C14   C     C_R   0.873832 0.644528 0.356747 -0.101750
C15   C     C_R   0.986789 0.536210 0.319813 -0.094518
C16   C     C_R   0.108805 0.544203 0.309958 0.017101
C17   C     C_R   0.353084 0.331787 0.314083 0.010297
C18   C     C_R   0.789940 0.260678 0.285408 0.078564
C19   C     C_R   0.830249 0.242256 0.214924 -0.120674
C20   C     C_R   0.825000 0.351414 0.175833 0.001027
C21   C     C_R   0.752911 0.487375 0.203384 -0.144617
C22   C     C_R   0.703526 0.507835 0.273206 -0.179481
C23   C     C_R   0.710560 0.415763 0.394877 0.574542
C24   C     C_R   0.736930 0.393562 0.317609 0.027875
C25   C     C_R   0.440077 0.866870 0.296095 -0.143128
C26   C     C_R   0.423189 0.900819 0.223088 -0.139329
C27   C     C_R   0.295073 0.939556 0.189434 0.024744
C28   C     C_R   0.182573 0.954880 0.230709 -0.123704
C29   C     C_R   0.199949 0.920269 0.302049 -0.130259
C30   C     C_R   0.331412 0.862753 0.333738 0.024071
C31   C     C_R   0.386427 0.197192 0.692722 -0.130497
C32   C     C_R   0.376859 0.184274 0.765095 -0.120556
C33   C     C_R   0.296084 0.303333 0.807566 0.032590
C34   C     C_R   0.343900 0.770140 0.604291 0.568189
C35   C     C_R   0.213887 0.433890 0.776036 -0.136833
C36   C     C_R   0.224715 0.447307 0.703072 -0.124194
C37   C     C_R   0.317647 0.329753 0.662210 0.025406
C38   C     C_R   0.743313 0.474634 0.732345 -0.122200
C39   C     C_R   0.754068 0.461390 0.805456 -0.127377
C40   C     C_R   0.813268 0.328795 0.836375 0.025354
C41   C     C_R   0.844350 0.211535 0.793605 -0.125368
C42   C     C_R   0.828200 0.225966 0.719664 -0.123761
C43   C     C_R   0.783612 0.357000 0.688612 0.024812
C44   C     C_R   0.196313 0.842013 0.712613 0.352521
C45   C     C_R   0.368199 0.350154 0.594793 0.545226
C46   C     C_R   0.190187 0.849240 0.786057 -0.102292
C47   C     C_R   0.301355 0.844013 0.825109 -0.023893
C48   C     C_R   0.421088 0.827472 0.789873 -0.171240
C49   C     C_R   0.427974 0.819549 0.716208 -0.207506
C50   C     C_R   0.317843 0.822246 0.677141 0.040157
C51   C     C_R   0.905164 0.318314 0.110049 0.537400
C52   C     C_R   0.328657 0.293860 0.092332 0.530727
C53   C     C_R   0.271806 0.962873 0.112140 0.567178
C54   C     C_R   0.878979 0.310265 0.906091 0.543163
C55   C     C_R   0.291590 0.282901 0.883362 0.550713
C56   C     C_R   0.756221 0.380733 0.612384 0.561679
C57   C     C_R   0.275974 0.893388 0.898165 0.559530
C58   C     C_R   0.853011 0.925878 0.093406 -0.108350
C59   C     C_R   0.776051 0.063178 0.068759 -0.096577
C60   C     C_R   0.658601 0.162223 0.106512 -0.061951
Cr1   Cr    Cr6+3 0.601770 0.606860 0.505860 1.005013
Cr2   Cr    Cr6+3 0.291380 0.601660 0.495070 1.044119
Cr3   Cr    Cr6+3 0.606880 0.291510 0.499120 1.058096
Cr4   Cr    Cr6+3 0.062440 0.063090 0.008210 0.979436
Cr5   Cr    Cr6+3 0.062880 0.375170 0.998920 1.009503
Cr6   Cr    Cr6+3 0.374700 0.061720 0.992470 1.018539
H1    H     H_    0.548578 0.141025 0.305630 0.169793
H2    H     H_    0.804724 0.825027 0.424090 0.131921
H3    H     H_    0.774223 0.651764 0.360252 0.148207
H4    H     H_    0.979333 0.448698 0.298518 0.138142
H5    H     H_    0.871364 0.140013 0.191521 0.154649
H6    H     H_    0.738338 0.576229 0.172153 0.136741
H7    H     H_    0.643390 0.611870 0.293151 0.109487
H8    H     H_    0.540130 0.834499 0.321354 0.105580
H9    H     H_    0.510996 0.888178 0.191967 0.128485
H10   H     H_    0.083391 0.983010 0.206499 0.145424
H11   H     H_    0.871517 0.780433 0.174825 0.118288
H12   H     H_    0.113446 0.926024 0.330865 0.155843
H13   H     H_    0.456024 0.105224 0.661750 0.133843
H14   H     H_    0.435941 0.080761 0.787962 0.142131
H15   H     H_    0.147045 0.525422 0.807913 0.131861
H16   H     H_    0.169374 0.551046 0.680020 0.184868
H17   H     H_    0.703684 0.577922 0.710128 0.138020
H18   H     H_    0.727407 0.553680 0.837326 0.129200
H19   H     H_    0.889948 0.107974 0.816567 0.138394
H20   H     H_    0.854477 0.134998 0.686855 0.180519
H21   H     H_    0.019655 0.835814 0.407312 0.166751
H22   H     H_    0.095153 0.865526 0.811921 0.144825
H23   H     H_    0.507119 0.826065 0.819022 0.134054
H24   H     H_    0.521371 0.806827 0.690057 0.133717
H25   H     H_    0.945320 0.850098 0.064730 0.120070
H26   H     H_    0.808008 0.093334 0.020601 0.143267
H27   H     H_    0.602559 0.268896 0.087192 0.105388
H28   H     H_    0.197447 0.676058 0.315620 0.143582
H29   H     H_    0.660992 0.948988 0.238904 0.105751
H30   H     H_    0.144754 0.504362 0.173152 0.140621
O1    O     O_R   0.748800 0.497470 0.428000 -0.528344
O2    O     O_R   0.300070 0.471040 0.567100 -0.499507
O3    O     O_R   0.491670 0.258900 0.574910 -0.514757
O4    O     O_R   0.718780 0.304180 0.577850 -0.486162
O5    O     O_3   0.500010 0.500010 0.500020 -0.287075
O6    O     O_R   0.186690 0.923650 0.086970 -0.524766
O7    O     O_R   0.957250 0.194250 0.084630 -0.536902
O8    O     O_R   0.934970 0.407490 0.085330 -0.519635
O9    O     O_R   0.203780 0.365190 0.067090 -0.508213
O10   O     O_R   0.417600 0.174890 0.067840 -0.516469
O11   O     O_R   0.375320 0.946260 0.070860 -0.497677
O12   O     O_R   0.476420 0.724060 0.429470 -0.526704
O13   O     O_R   0.160600 0.919630 0.926660 -0.529055
O14   O     O_R   0.933060 0.190520 0.936020 -0.524204
O15   O     O_R   0.908880 0.403460 0.925020 -0.516371
O16   O     O_R   0.179600 0.361450 0.918490 -0.499301
O17   O     O_R   0.391510 0.170860 0.907530 -0.528488
O18   O     O_R   0.351130 0.942530 0.922260 -0.500963
O19   O     O_3   0.166667 0.166667 0.999870 -0.266245
O20   O     O_R   0.264580 0.744340 0.416750 -0.551949
O21   O     O_R   0.309380 0.472470 0.418200 -0.499817
O22   O     O_R   0.501710 0.260430 0.414300 -0.511413
O23   O     O_R   0.728090 0.305600 0.428960 -0.451116
O24   O     O_R   0.738760 0.495930 0.588610 -0.516540
O25   O     O_R   0.467110 0.722640 0.578360 -0.526546
O26   O     O_R   0.254530 0.742800 0.577360 -0.436177
I1    I     I_    0.820309 0.076763 0.333850 -0.494110
F1    F     F_    0.084299 0.850955 0.676913 -0.647973

loop_
_geom_bond_atom_site_label_1
_geom_bond_atom_site_label_2
_ccdc_geom_bond_type
C33   C55   S    
Cr4   O7    S    
Cr6   O17   S    
C55   O16   A    
C56   O24   A    
C41   C42   A    
C19   H5    S    
C35   C36   A    
C49   H24   S    
Cr3   O5    S    
C35   H15   S    
Cr4   O6    S    
C26   C27   A    
Cr3   O4    S    
C18   C24   A    
C28   C29   A    
C39   H18   S    
C18   C19   A    
C20   C51   S    
C45   O2    A    
C23   O23   A    
C38   C39   A    
C38   H17   S    
C2    C60   A    
C47   C57   S    
C51   O7    A    
C15   C16   A    
C54   O14   A    
Cr1   O25   S    
C9    C58   A    
Cr1   O12   S    
Cr5   O15   S    
Cr2   O21   S    
Cr3   O3    S    
Cr2   O2    S    
C57   O13   A    
C29   H12   S    
C19   C20   A    
C36   H16   S    
C8    C9    A    
C6    H28   S    
C12   C17   S    
C23   C24   S    
C42   H20   S    
C1    O20   A    
C58   H25   S    
Cr6   O11   S    
C18   I1    S    
Cr2   O5    S    
C60   H27   S    
C52   O10   A    
C59   C60   A    
C34   O26   A    
Cr4   O19   S    
C21   C22   A    
Cr1   O24   S    
Cr5   O19   S    
C8    H29   S    
Cr6   O10   S    
Cr5   O9    S    
C44   C46   A    
C46   H22   S    
C25   H8    S    
Cr1   O1    S    
C34   C50   S    
Cr6   O19   S    
C21   H6    S    
C45   O3    A    
C39   C40   A    
Cr3   O22   S    
C55   O17   A    
C51   O8    A    
C44   F1    S    
C31   C37   A    
Cr1   O5    S    
Cr5   O16   S    
Cr2   O20   S    
C29   C30   A    
C32   H14   S    
Cr3   O23   S    
C11   C16   S    
C53   O11   A    
Cr4   O14   S    
C47   C48   A    
C10   H30   S    
C53   O6    A    
C26   H9    S    
C9    H11   S    
C57   O18   A    
C12   O22   A    
C4    C17   A    
C40   C41   A    
C23   O1    A    
C52   O9    A    
C34   O25   A    
C40   C54   S    
C48   H23   S    
C14   H3    S    
C22   C24   A    
C58   C59   A    
C2    C5    S    
C42   C43   A    
C56   O4    A    
C37   C45   S    
C28   H10   S    
Cr2   O26   S    
C44   C50   A    
C25   C30   A    
C15   H4    S    
C46   C47   A    
C11   C17   A    
Cr6   O18   S    
C31   C32   A    
C2    C8    A    
C4    C5    A    
C3    C5    A    
C4    H1    S    
C3    C52   S    
C27   C53   S    
C31   H13   S    
C6    C7    A    
C41   H19   S    
Cr5   O8    S    
C32   C33   A    
C25   C26   A    
C38   C43   A    
C3    C10   A    
Cr4   O13   S    
C48   C49   A    
C1    C30   S    
C33   C35   A    
C54   O15   A    
C59   H26   S    
C10   C11   A    
C1    O12   A    
C6    C16   A    
C12   O21   A    
C43   C56   S    
C7    C13   A    
C7    H21   S    
C20   C21   A    
C36   C37   A    
C49   C50   A    
C27   C28   A    
C14   C15   A    
C22   H7    S    
C13   C14   A    
C13   H2    S    
