data_mof_unit_17089.cif
_audit_creation_date              2012-12-10T18:22:19-0500
_audit_creation_method            fapswitch 2.2
_symmetry_space_group_name_H-M    P1
_symmetry_Int_Tables_number       1
_space_group_crystal_system       triclinic
_cell_length_a                    14.950525
_cell_length_b                    14.134994
_cell_length_c                    15.775409
_cell_angle_alpha                 90.151807
_cell_angle_beta                  88.805168
_cell_angle_gamma                 89.59451
_cell_volume                      3332.92610033

loop_
_atom_site_label
_atom_site_type_symbol
_atom_type_description
_atom_site_fract_x
_atom_site_fract_y
_atom_site_fract_z
_atom_type_partial_charge
C1    C     C_R   0.327488 0.500268 0.498835 0.913356
C2    C     C_3   0.583229 0.514917 0.946863 -0.334487
C3    C     C_3   0.590642 0.500538 0.044838 -0.086043
C4    C     C_1   0.488825 0.500534 0.824786 -0.075952
C5    C     C_1   0.494019 0.499795 0.175437 -0.199906
C6    C     C_1   0.497436 0.499649 0.250295 -0.097655
C7    C     C_R   0.813758 0.496608 0.421087 -0.082776
C8    C     C_R   0.768588 0.496027 0.499591 -0.128745
C9    C     C_R   0.813912 0.483637 0.575953 -0.069078
C10   C     C_R   0.906594 0.464601 0.572579 -0.030339
C11   C     C_R   0.953967 0.478382 0.494814 0.065412
C12   C     C_R   0.500420 0.499866 0.338590 0.965494
C13   C     C_R   0.907246 0.493868 0.419021 0.078229
C14   C     C_R   0.952887 0.428178 0.643041 -0.082183
C15   C     C_R   0.046889 0.428431 0.642397 -0.058435
C16   C     C_R   0.093682 0.464457 0.570305 0.001870
C17   C     C_R   0.047968 0.478377 0.493193 0.055525
C18   C     C_R   0.095905 0.495669 0.415395 0.008030
C19   C     C_R   0.047014 0.510596 0.339952 -0.039865
C20   C     C_R   0.954524 0.507590 0.342712 -0.195121
C21   C     C_R   0.184743 0.487145 0.572279 -0.091483
C22   C     C_R   0.231904 0.499798 0.496147 -0.073267
C23   C     C_R   0.672760 0.499435 0.500700 0.972566
C24   C     C_R   0.190206 0.499277 0.417347 -0.047157
C25   C     C_R   0.561904 0.796740 0.450905 0.041638
C26   C     C_R   0.562352 0.202139 0.451431 0.066852
C27   C     C_R   0.442241 0.799433 0.552361 0.016804
C28   C     C_R   0.442738 0.201614 0.552898 0.084308
C29   C     C_R   0.450519 0.899741 0.563113 -0.054662
C30   C     C_R   0.451601 0.101469 0.563718 -0.000337
C31   C     C_R   0.511399 0.949356 0.509753 0.078785
C32   C     C_R   0.511553 0.050576 0.509890 0.029265
C33   C     C_R   0.571860 0.897772 0.456483 -0.081775
C34   C     C_R   0.572427 0.101161 0.457509 -0.039965
C35   C     C_R   0.404344 0.951150 0.628871 -0.070640
C36   C     C_R   0.406842 0.051513 0.630216 -0.007303
C37   C     C_R   0.643121 0.049364 0.416294 -0.042175
C38   C     C_R   0.641808 0.948774 0.413907 -0.073380
C39   C     C_R   0.497786 0.500147 0.661402 0.962838
C40   C     C_3   0.437198 0.593918 0.052813 -0.127511
C41   C     C_3   0.438370 0.406800 0.051905 -0.079347
C42   C     C_3   0.450057 0.400834 0.950382 -0.111068
C43   C     C_3   0.426056 0.586513 0.951850 -0.101821
C44   C     C_1   0.493064 0.500447 0.749811 -0.083343
C45   C     C_3   0.489959 0.500164 0.083449 -0.055641
C46   C     C_3   0.485179 0.500320 0.916980 0.014731
H1    H     H_    0.919318 0.520291 0.284357 0.177081
H2    H     H_    0.604648 0.587379 0.928513 0.206075
H3    H     H_    0.630508 0.468412 0.910481 0.236785
N1    N     N_R   0.500070 0.750030 0.500040 -0.152160
N2    N     N_R   0.500070 0.249970 0.500040 -0.175736
O1    O     O_R   0.367860 0.580280 0.500020 -0.594008
O2    O     O_R   0.367860 0.419720 0.500020 -0.659806
O3    O     O_R   0.500020 0.580310 0.377140 -0.590963
O4    O     O_R   0.500020 0.419690 0.377140 -0.639793
O5    O     O_R   0.632160 0.580270 0.499980 -0.640131
O6    O     O_R   0.632160 0.419730 0.499980 -0.585898
O7    O     O_R   0.500010 0.580240 0.622850 -0.659600
O8    O     O_R   0.500010 0.419760 0.622850 -0.616745
Zn1   Zn    Zn3+2 0.500020 0.607200 0.499990 0.988692
Zn2   Zn    Zn3+2 0.500020 0.392800 0.499990 0.989991
C47   C     C_1   0.331655 0.574547 0.926994 0.306856
N3    N     N_1   0.257861 0.566392 0.907480 -0.061035
C48   C     C_1   0.368024 0.370840 0.906554 0.287131
N4    N     N_1   0.304693 0.346809 0.871578 -0.104812
C49   C     C_2   0.096150 0.381111 0.712130 0.460281
H4    H     H_    0.156320 0.340299 0.697467 0.096413
O9    O     O_2   0.071597 0.389243 0.786124 -0.507378
C50   C     C_1   0.230055 0.505158 0.651436 0.149983
N5    N     N_1   0.266556 0.519809 0.714035 -0.201656
C51   C     C_2   0.246884 0.499823 0.338886 0.362778
H5    H     H_    0.239577 0.444565 0.291721 0.061488
O10   O     O_2   0.300338 0.563265 0.325886 -0.562386
C52   C     C_1   0.086455 0.536315 0.258696 0.215286
N6    N     N_1   0.117226 0.557046 0.193450 -0.094348
C53   C     C_1   0.609821 0.741799 0.387420 0.265576
N7    N     N_1   0.648389 0.698622 0.335844 -0.177608
C54   C     C_1   0.610401 0.255556 0.387605 0.305786
N8    N     N_1   0.649082 0.297619 0.335922 -0.191643
C55   C     C_2   0.364853 0.748382 0.588748 0.482718
H6    H     H_    0.374226 0.687496 0.628910 0.077346
O11   O     O_2   0.288846 0.774652 0.573721 -0.506826
C56   C     C_2   0.365005 0.253042 0.590187 0.479213
H7    H     H_    0.373775 0.316237 0.627593 0.104425
O12   O     O_2   0.289281 0.224223 0.579350 -0.595721
C57   C     C_2   0.367016 0.900250 0.704048 0.436699
H8    H     H_    0.405434 0.843623 0.732410 0.057665
O13   O     O_2   0.292182 0.918189 0.732341 -0.516790
C58   C     C_2   0.376775 0.102188 0.708851 0.438487
H9    H     H_    0.311272 0.089422 0.736991 0.154238
O14   O     O_2   0.426318 0.158060 0.743432 -0.582973
C59   C     C_2   0.726332 0.097825 0.387541 0.420271
H10   H     H_    0.752663 0.087576 0.323607 0.139621
O15   O     O_2   0.767213 0.147808 0.436489 -0.538595
C60   C     C_2   0.721324 0.898161 0.377526 0.398214
H11   H     H_    0.756084 0.846078 0.415372 0.080356
O16   O     O_2   0.746749 0.912286 0.304639 -0.534119
C61   C     C_2   0.348220 0.610568 0.100759 0.483246
H12   H     H_    0.331964 0.572174 0.158238 0.110337
O17   O     O_2   0.296852 0.673530 0.079630 -0.512908
C62   C     C_2   0.341856 0.407176 0.087353 0.367087
H13   H     H_    0.330927 0.397581 0.155162 0.076266
O18   O     O_2   0.276013 0.419892 0.044372 -0.539205
C63   C     C_1   0.474217 0.319393 0.092193 0.122149
N9    N     N_1   0.501388 0.251381 0.123669 -0.150667
C64   C     C_1   0.487046 0.680558 0.077008 0.215474
N10   N     N_1   0.524519 0.748652 0.095851 -0.127580
C65   C     C_1   0.515113 0.325874 0.922715 0.247396
N11   N     N_1   0.565059 0.267411 0.900622 -0.066551
C66   C     C_1   0.452816 0.675683 0.908164 0.195696
N12   N     N_1   0.473709 0.744816 0.874180 -0.174391
C67   C     C_2   0.649622 0.577269 0.082049 0.411816
H14   H     H_    0.637757 0.602724 0.146254 0.102394
O19   O     O_2   0.715209 0.606590 0.043017 -0.505046
C68   C     C_2   0.642450 0.410956 0.067346 0.471060
H15   H     H_    0.641943 0.387018 0.132710 0.083558
O20   O     O_2   0.688885 0.367722 0.015515 -0.521912
C69   C     C_1   0.763592 0.500814 0.343090 0.188354
N13   N     N_1   0.724055 0.503660 0.280861 -0.215290
C70   C     C_2   0.767002 0.500614 0.658918 0.380604
H16   H     H_    0.800575 0.539481 0.708292 0.094363
O21   O     O_2   0.693178 0.468039 0.674287 -0.566962
C71   C     C_1   0.905140 0.377832 0.710112 0.295537
N14   N     N_1   0.867286 0.337491 0.763440 -0.087794

loop_
_geom_bond_atom_site_label_1
_geom_bond_atom_site_label_2
_ccdc_geom_bond_type
C36   C58   S    
C49   O9    D    
C16   C21   A    
C27   C29   A    
C34   C37   A    
C41   C42   S    
C60   H11   S    
N2    Zn2   S    
C67   O19   D    
C71   N14   T    
C4    C46   S    
C2    C46   S    
C62   H13   S    
C56   H7    S    
C18   C24   A    
C40   C61   S    
C5    C6    T    
C35   C57   S    
C57   O13   D    
C64   N10   T    
O7    Zn1   S    
C15   C16   A    
C8    C23   S    
C65   N11   T    
C18   C19   A    
C42   C46   S    
C1    O2    A    
C69   N13   T    
C63   N9    T    
O1    Zn1   S    
C25   N1    A    
O2    Zn2   S    
C26   C34   A    
C40   C43   S    
C19   C20   A    
C39   O7    A    
C8    C9    A    
C68   O20   D    
C38   C60   S    
C31   C33   A    
C43   C66   S    
C58   O14   D    
C9    C10   A    
C13   C20   A    
C27   N1    A    
C49   H4    S    
C1    C22   S    
C62   O18   D    
C21   C22   A    
C28   C56   S    
C7    C69   S    
C6    C12   S    
C67   H14   S    
C43   C46   S    
C70   O21   D    
C40   C45   S    
O8    Zn2   S    
C52   N6    T    
C12   O4    A    
C23   O5    A    
C53   N7    T    
C55   O11   D    
C27   C55   S    
C10   C14   A    
C66   N12   T    
C51   O10   D    
C54   N8    T    
C16   C17   A    
O3    Zn1   S    
C4    C44   T    
C2    H2    S    
C15   C49   S    
C5    C45   S    
C3    C45   S    
O5    Zn1   S    
C21   C50   S    
C35   C36   A    
C32   C34   A    
C37   C38   A    
C2    H3    S    
C31   C32   A    
C3    C67   S    
C39   O8    A    
C47   N3    T    
C59   O15   D    
C17   C18   A    
C26   C54   S    
C56   O12   D    
C61   O17   D    
C22   C24   A    
C42   C48   S    
C70   H16   S    
C40   C64   S    
C23   O6    A    
C11   C17   A    
C14   C71   S    
C37   C59   S    
C57   H8    S    
C19   C52   S    
C55   H6    S    
C60   O16   D    
O6    Zn2   S    
C39   C44   S    
C29   C35   A    
C33   C38   A    
C41   C63   S    
C30   C36   A    
C25   C53   S    
N1    Zn1   S    
C48   N4    T    
C28   C30   A    
C2    C3    S    
C51   H5    S    
C29   C31   A    
C3    C68   S    
C26   N2    A    
C30   C32   A    
C11   C13   A    
O4    Zn2   S    
C59   H10   S    
C28   N2    A    
C41   C62   S    
C50   N5    T    
C1    O1    A    
C20   H1    S    
C7    C8    A    
C10   C11   A    
C7    C13   A    
C24   C51   S    
C61   H12   S    
C9    C70   S    
C41   C45   S    
C14   C15   A    
C58   H9    S    
C42   C65   S    
C12   O3    A    
C68   H15   S    
C43   C47   S    
C25   C33   A    
