data_mof_unit_65404.cif
_audit_creation_date              2012-12-10T16:56:34-0500
_audit_creation_method            fapswitch 2.2
_symmetry_space_group_name_H-M    P1
_symmetry_Int_Tables_number       1
_space_group_crystal_system       triclinic
_cell_length_a                    18.830404
_cell_length_b                    18.688136
_cell_length_c                    18.611834
_cell_angle_alpha                 108.627191
_cell_angle_beta                  109.792589
_cell_angle_gamma                 109.055412
_cell_volume                      5099.03669456

loop_
_atom_site_label
_atom_site_type_symbol
_atom_type_description
_atom_site_fract_x
_atom_site_fract_y
_atom_site_fract_z
_atom_type_partial_charge
C1    C     C_R   0.613823 0.618375 0.494504 0.980125
C2    C     C_2   0.817825 0.518228 0.840059 -0.210464
C3    C     C_2   0.769420 0.587916 0.755992 0.016258
C4    C     C_R   0.378140 0.497742 0.379886 0.930217
C5    C     C_2   0.702877 0.513966 0.684046 -0.373827
C6    C     C_2   0.252188 0.256572 0.578044 -0.235260
C7    C     C_2   0.178144 0.195580 0.503126 -0.189319
C8    C     C_2   0.316389 0.329492 0.581107 -0.097836
C9    C     C_2   0.334050 0.313903 0.515864 -0.282792
C10   C     C_R   0.011491 0.618020 0.130673 0.972729
C11   C     C_R   0.126393 0.497473 0.124918 0.942500
C12   C     C_3   0.175743 0.421300 0.212768 -0.228256
C13   C     C_R   0.005213 0.381547 0.885704 1.001108
C14   C     C_R   0.886049 0.504267 0.890183 0.923999
C15   C     C_R   0.997011 0.117228 0.618039 0.963979
C16   C     C_R   0.386482 0.381193 0.505315 0.960713
C17   C     C_R   0.881800 0.884251 0.504534 0.926310
C18   C     C_R   0.003900 0.883588 0.381453 0.899383
C19   C     C_R   0.118088 0.121136 0.500640 0.866209
C20   C     C_2   0.082829 0.817580 0.334037 -0.245324
C21   C     C_2   0.013997 0.830693 0.312587 -0.215092
C22   C     C_2   0.091503 0.757210 0.268483 0.015363
C23   C     C_3   0.226431 0.490139 0.309626 0.012550
C24   C     C_2   0.020245 0.680270 0.207928 -0.364160
C25   C     C_2   0.927526 0.194730 0.668460 -0.150505
C26   C     C_2   0.991343 0.175173 0.685918 -0.323773
C27   C     C_2   0.923577 0.253390 0.739544 -0.020467
C28   C     C_R   0.626036 0.505683 0.620211 0.981656
C29   C     C_2   0.998759 0.319100 0.810702 -0.410019
C30   C     C_3   0.325855 0.568746 0.289914 -0.220317
C31   C     C_3   0.240822 0.563753 0.286377 -0.200980
C32   C     C_3   0.191638 0.494952 0.189950 -0.050661
C33   C     C_3   0.275240 0.499639 0.193073 0.014593
C34   C     C_3   0.310134 0.495285 0.312868 -0.053029
C35   C     C_3   0.260874 0.426252 0.216507 -0.224954
C36   C     C_2   0.729111 0.469810 0.826036 0.940432
C37   C     C_2   0.781057 0.675739 0.774886 0.965738
C38   C     C_2   0.146543 0.207580 0.424712 0.949506
C39   C     C_2   0.952905 0.802485 0.220285 0.955353
C40   C     C_2   0.178378 0.782396 0.276363 0.972944
C41   C     C_2   0.836897 0.240787 0.725266 0.952477
C42   C     C_2   0.305158 0.502894 0.128468 0.912299
C43   C     C_2   0.195954 0.483519 0.373139 0.898812
C44   C     C_2   0.723189 0.893041 0.492625 0.975236
C45   C     C_2   0.745422 0.828210 0.508513 -0.098149
C46   C     C_2   0.852500 0.780096 0.561542 0.946572
C47   C     C_2   0.820972 0.828456 0.520313 -0.282666
C48   C     C_2   0.682281 0.763226 0.515064 -0.128829
C49   C     C_2   0.665930 0.681351 0.479369 -0.297613
C50   C     C_2   0.837347 0.580181 0.816668 -0.251535
H1    H     H_    0.230929 0.619359 0.314190 0.191988
H2    H     H_    0.347283 0.394304 0.634942 0.177779
H3    H     H_    0.308656 0.247638 0.467338 0.162409
H4    H     H_    0.132849 0.849329 0.401759 0.191344
H5    H     H_    0.388572 0.628678 0.322698 0.172863
H6    H     H_    0.936336 0.786599 0.102185 0.364266
H7    H     H_    0.263136 0.745565 0.257995 0.349017
H8    H     H_    0.963088 0.661819 0.215304 0.161664
H9    H     H_    0.876694 0.166245 0.601805 0.185743
H10   H     H_    0.038547 0.198258 0.752742 0.162019
H11   H     H_    0.762444 0.294107 0.741360 0.373606
H12   H     H_    0.059642 0.332527 0.811184 0.162503
H13   H     H_    0.277455 0.493813 0.010299 0.347318
H14   H     H_    0.270421 0.370174 0.189257 0.179127
H15   H     H_    0.113169 0.361238 0.180043 0.179311
H16   H     H_    0.216566 0.472522 0.481736 0.367210
H17   H     H_    0.762633 0.016801 0.518830 0.352907
H18   H     H_    0.868013 0.744881 0.655171 0.356041
H19   H     H_    0.650528 0.783322 0.550231 0.185037
H20   H     H_    0.692070 0.660176 0.437942 0.162457
H21   H     H_    0.904123 0.623179 0.838194 0.190628
H22   H     H_    0.622723 0.472912 0.825341 0.347608
H23   H     H_    0.755894 0.754394 0.729627 0.368104
H24   H     H_    0.706283 0.454345 0.669397 0.159232
H25   H     H_    0.266398 0.252350 0.637731 0.178128
H26   H     H_    0.133438 0.288076 0.376714 0.353413
O1    O     O_R   0.591160 0.539400 0.449620 -0.622804
O2    O     O_R   0.050520 0.090460 0.641000 -0.631566
O3    O     O_R   0.857760 0.909540 0.448230 -0.590627
O4    O     O_R   0.589730 0.641530 0.550350 -0.599774
O5    O     O_R   0.961340 0.909540 0.551790 -0.598038
O6    O     O_R   0.949480 0.909540 0.359000 -0.580232
O7    O     O_R   0.053060 0.909550 0.462560 -0.611479
O8    O     O_R   0.038660 0.090460 0.448210 -0.600641
O9    O     O_R   0.142240 0.090460 0.551770 -0.618890
O10   O     O_R   0.408980 0.448930 0.357910 -0.628441
O11   O     O_R   0.407550 0.551060 0.458650 -0.597664
O12   O     O_R   0.056790 0.641480 0.096140 -0.580649
O13   O     O_R   0.410270 0.358470 0.449650 -0.624744
O14   O     O_R   0.408840 0.460600 0.550380 -0.592491
O15   O     O_R   0.592450 0.448940 0.541350 -0.626708
O16   O     O_R   0.591020 0.551070 0.642090 -0.583499
O17   O     O_R   0.954670 0.539370 0.096190 -0.627076
O18   O     O_2   0.698259 0.393244 0.806164 -0.612972
O19   O     O_R   0.681707 0.512499 0.836857 -0.772374
O20   O     O_2   0.827376 0.735178 0.849899 -0.589689
O21   O     O_R   0.742480 0.691885 0.707708 -0.788323
O22   O     O_2   0.108594 0.145678 0.351612 -0.598827
O23   O     O_R   0.047640 0.448900 0.098680 -0.636568
O24   O     O_R   0.157896 0.288635 0.434641 -0.777881
O25   O     O_2   0.875809 0.775948 0.195433 -0.589097
O26   O     O_R   0.983985 0.807802 0.162660 -0.763329
O27   O     O_2   0.230962 0.859010 0.311511 -0.588916
O28   O     O_R   0.201866 0.719694 0.247657 -0.822861
O29   O     O_2   0.774811 0.167752 0.681444 -0.597772
O30   O     O_R   0.824938 0.311752 0.757587 -0.800216
O31   O     O_2   0.378073 0.514615 0.146106 -0.602582
O32   O     O_R   0.249678 0.490769 0.048115 -0.799976
O33   O     O_2   0.128137 0.483446 0.362006 -0.600784
O34   O     O_R   0.149770 0.551010 0.098640 -0.569216
O35   O     O_R   0.244125 0.476584 0.443877 -0.779159
O36   O     O_2   0.647910 0.871253 0.445630 -0.599652
O37   O     O_R   0.786800 0.979470 0.534578 -0.790363
O38   O     O_2   0.888204 0.743209 0.534187 -0.606090
O39   O     O_R   0.843545 0.779157 0.632867 -0.771291
O40   O     O_R   0.957150 0.358410 0.917750 -0.598613
O41   O     O_R   0.059270 0.460520 0.917700 -0.601490
O42   O     O_R   0.864170 0.448890 0.915250 -0.568125
O43   O     O_R   0.966300 0.551000 0.915200 -0.626459
O44   O     O_R   0.946940 0.090450 0.537440 -0.604631
Zn1   Zn    Zn3+2 0.500950 0.431810 0.432740 1.018427
Zn2   Zn    Zn3+2 0.499050 0.568190 0.567260 1.043654
Zn3   Zn    Zn3+2 0.938780 0.431770 0.006970 1.053951
Zn4   Zn    Zn3+2 0.075160 0.568130 0.006910 1.055793
Zn5   Zn    Zn3+2 0.930840 1.000000 0.430850 1.071731
Zn6   Zn    Zn3+2 0.069160 0.000000 0.569150 1.026066

loop_
_geom_bond_atom_site_label_1
_geom_bond_atom_site_label_2
_ccdc_geom_bond_type
C16   O14   A    
O40   Zn3   S    
O5    Zn6   S    
C27   C29   D    
C18   C21   S    
C1    O1    A    
C48   H19   S    
C38   O22   D    
C37   O21   S    
C6    H25   S    
C4    O11   A    
O4    Zn2   S    
O43   Zn4   S    
H23   O21   S    
C12   C23   S    
C10   O12   A    
C41   O29   D    
C46   O39   S    
C33   C42   S    
C13   C29   S    
C9    C16   S    
C30   C31   S    
C15   O2    A    
C4    O10   A    
C17   O3    A    
C23   C43   S    
C15   O44   A    
C11   O23   A    
C34   C35   S    
C5    H24   S    
C2    C50   D    
O34   Zn4   S    
C46   C47   S    
H22   O19   S    
C8    C9    D    
C14   O42   A    
C35   H14   S    
H16   O35   S    
C42   O31   D    
C8    H2    S    
O12   Zn4   S    
O3    Zn5   S    
C16   O13   A    
C12   C32   S    
C11   O34   A    
O14   Zn2   S    
O9    Zn6   S    
C43   O35   S    
C18   O6    A    
C3    C50   S    
C39   O25   D    
C45   C47   D    
C4    C34   S    
C41   O30   S    
C30   C34   S    
C17   C47   S    
H26   O24   S    
C38   O24   S    
C46   O38   D    
O44   Zn5   S    
C15   C26   S    
C6    C8    S    
C10   O17   A    
C10   C24   S    
C25   C26   D    
C37   O20   D    
C23   C31   S    
C50   H21   S    
O6    Zn5   S    
O16   Zn2   S    
C40   O28   S    
C5    C28   S    
C27   C41   S    
C31   C32   S    
C21   C39   S    
C23   C34   S    
C22   C40   S    
O10   Zn1   S    
C18   O7    A    
C28   O16   A    
C12   C35   S    
H11   O30   S    
C26   H10   S    
C44   O36   D    
C20   H4    S    
C48   C49   D    
C20   C22   S    
C44   O37   S    
C7    C19   S    
C49   H20   S    
C22   C24   D    
C9    H3    S    
O7    Zn6   S    
C19   O8    A    
O2    Zn6   S    
C3    C5    D    
C44   C45   S    
C39   O26   S    
O23   Zn3   S    
C12   H15   S    
C45   C48   S    
C2    C36   S    
O8    Zn5   S    
H7    O28   S    
C29   H12   S    
O13   Zn1   S    
C30   C33   S    
O41   Zn4   S    
O17   Zn3   S    
C31   H1    S    
C19   O9    A    
C11   C32   S    
O11   Zn2   S    
C13   O41   A    
C6    C7    D    
C25   C27   S    
C25   H9    S    
C30   H5    S    
C32   C33   S    
H17   O37   S    
H6    O26   S    
C40   O27   D    
C36   O19   S    
C1    C49   S    
C33   C35   S    
C7    C38   S    
C28   O15   A    
C17   O5    A    
O42   Zn3   S    
C2    C14   S    
C13   O40   A    
O1    Zn1   S    
H18   O39   S    
C36   O18   D    
C20   C21   D    
C3    C37   S    
C24   H8    S    
C14   O43   A    
O15   Zn1   S    
C1    O4    A    
C43   O33   D    
H13   O32   S    
C42   O32   S    
