data_mof_unit_68504.cif
_audit_creation_date              2012-10-26T18:48:20-0400
_audit_creation_method            fapswitch 2.2
_symmetry_space_group_name_H-M    P1
_symmetry_Int_Tables_number       1
_space_group_crystal_system       triclinic
_cell_length_a                    10.71758
_cell_length_b                    8.745371
_cell_length_c                    7.463026
_cell_angle_alpha                 101.85304
_cell_angle_beta                  93.77121
_cell_angle_gamma                 92.722562
_cell_volume                      681.771738044

loop_
_atom_site_label
_atom_site_type_symbol
_atom_type_description
_atom_site_fract_x
_atom_site_fract_y
_atom_site_fract_z
_atom_type_partial_charge
C1    C     C_R   0.499605 0.200566 0.454254 0.571464
C2    C     C_3   0.121734 0.501075 0.511749 -0.082869
C3    C     C_3   0.967082 0.625484 0.643820 -0.130291
C4    C     C_3   0.026355 0.402923 0.357193 -0.182991
C5    C     C_2   0.504278 0.033971 0.428320 -0.156844
C6    C     C_2   0.508104 0.966906 0.571947 -0.156829
C7    C     C_3   0.944745 0.126401 0.553697 0.033408
C8    C     C_3   0.889676 0.053124 0.701235 -0.342433
C9    C     C_3   0.173275 0.805720 0.338849 -0.004890
C10   C     C_3   0.198198 0.973417 0.316354 -0.396379
C11   C     C_3   0.146015 0.433970 0.929760 0.014672
C12   C     C_R   0.505442 0.799763 0.545661 0.526209
C13   C     C_3   0.191108 0.269216 0.914746 -0.393568
C14   C     C_3   0.842688 0.732017 0.224256 0.018725
C15   C     C_3   0.851178 0.833503 0.082677 -0.392589
C16   C     C_R   0.258949 0.495713 0.503269 0.536158
C17   C     C_R   0.739227 0.516472 0.498856 0.578022
C18   C     C_3   0.033180 0.476916 0.663190 0.246497
C19   C     C_3   0.958102 0.553565 0.344339 0.232175
C20   C     C_3   0.941720 0.380611 0.510041 0.277724
C21   C     C_3   0.053901 0.650300 0.491833 0.206772
C22   C     C_3   0.874775 0.526224 0.494167 -0.010239
Cu1   Cu    Cu3+1 0.514140 0.517380 0.684380 0.966600
Cu2   Cu    Cu3+1 0.485860 0.482620 0.315620 0.924453
H1    H     H_    0.945393 0.718624 0.757814 0.117946
H2    H     H_    0.956369 0.973068 0.745601 0.110644
H3    H     H_    0.873603 0.145477 0.822428 0.203427
H4    H     H_    0.123271 0.739436 0.209672 0.164878
H5    H     H_    0.264933 0.757596 0.357550 0.192492
H6    H     H_    0.234661 0.049639 0.449157 0.155663
H7    H     H_    0.268049 0.976177 0.213481 0.111368
H8    H     H_    0.112023 0.019997 0.264434 0.115179
H9    H     H_    0.131382 0.479086 0.074980 0.181734
H10   H     H_    0.215527 0.520093 0.900253 0.158799
H11   H     H_    0.237729 0.233045 0.785577 0.127148
H12   H     H_    0.046136 0.304864 0.244778 0.115347
H13   H     H_    0.255983 0.263707 0.034763 0.129495
H14   H     H_    0.111165 0.184804 0.917547 0.153392
H15   H     H_    0.869389 0.804709 0.362152 0.121127
H16   H     H_    0.743438 0.695330 0.224004 0.154224
H17   H     H_    0.798275 0.773197 0.952656 0.160009
H18   H     H_    0.807635 0.945742 0.131762 0.111972
H19   H     H_    0.950371 0.859378 0.059614 0.144559
H20   H     H_    0.432852 0.353588 0.951190 0.236517
H21   H     H_    0.570221 0.646085 0.046984 0.228330
H22   H     H_    0.501468 0.965427 0.288723 0.119476
H23   H     H_    0.511474 0.035394 0.711631 0.133593
H24   H     H_    0.044350 0.165094 0.596312 0.148556
H25   H     H_    0.944959 0.038444 0.425924 0.147042
H26   H     H_    0.799329 0.987011 0.647453 0.128152
N1    N     N_2   0.464560 0.456420 0.038510 -0.281282
N2    N     N_2   0.535440 0.543580 0.961490 -0.253280
O1    O     O_R   0.509190 0.286130 0.619780 -0.499848
O2    O     O_3   0.106010 0.803110 0.494867 -0.586986
O3    O     O_3   0.029464 0.426421 0.831142 -0.522680
O4    O     O_3   0.914661 0.599078 0.180549 -0.515680
O5    O     O_R   0.490810 0.713870 0.380220 -0.541496
O6    O     O_R   0.485310 0.256770 0.308360 -0.503870
O7    O     O_R   0.514690 0.743230 0.691640 -0.512487
O8    O     O_R   0.328790 0.514640 0.655680 -0.513446
O9    O     O_R   0.671210 0.485360 0.344320 -0.483728
O10   O     O_R   0.304910 0.485280 0.344260 -0.538772
O11   O     O_R   0.695090 0.514720 0.655740 -0.462547
O12   O     O_3   0.868544 0.244415 0.517857 -0.537922

loop_
_geom_bond_atom_site_label_1
_geom_bond_atom_site_label_2
_ccdc_geom_bond_type
C19   O4    S    
C20   O12   S    
C2    C4    S    
Cu1   Cu2   S    
C4    H12   S    
C13   H11   S    
Cu2   O9    S    
C8    H26   S    
C2    C18   S    
C2    C16   S    
C5    H22   S    
C10   H6    S    
C15   H18   S    
C14   O4    S    
C17   C22   S    
C4    C19   S    
C9    H5    S    
C11   O3    S    
C7    H24   S    
C19   C22   S    
C2    C21   S    
Cu1   O11   S    
Cu1   N2    S    
C15   H19   S    
C7    C8    S    
C1    O6    A    
C17   O11   A    
Cu1   O7    S    
C11   C13   S    
C15   H17   S    
C13   H14   S    
Cu1   O8    S    
C16   O10   A    
C18   O3    S    
Cu2   N1    S    
C5    C6    D    
C12   O5    A    
H20   N1    S    
C19   C21   S    
C20   C22   S    
Cu1   O1    S    
C18   C20   S    
C6    C12   S    
C21   O2    S    
C1    C5    S    
C7    O12   S    
C3    C21   S    
C6    H23   S    
C14   H16   S    
N1    N2    D    
C4    C20   S    
C9    C10   S    
C10   H8    S    
C11   H9    S    
C3    H1    S    
C8    H2    S    
C7    H25   S    
C3    C18   S    
Cu2   O6    S    
C16   O8    A    
C8    H3    S    
C1    O1    A    
C14   C15   S    
C3    C22   S    
Cu2   O10   S    
C9    O2    S    
H21   N2    S    
C17   O9    A    
C14   H15   S    
C12   O7    A    
C13   H13   S    
C10   H7    S    
C11   H10   S    
C9    H4    S    
Cu2   O5    S    
