data_mof_unit_8783.cif
_audit_creation_date              2012-12-10T17:07:14-0500
_audit_creation_method            fapswitch 2.2
_symmetry_space_group_name_H-M    P1
_symmetry_Int_Tables_number       1
_space_group_crystal_system       triclinic
_cell_length_a                    18.234155
_cell_length_b                    18.206739
_cell_length_c                    18.27514
_cell_angle_alpha                 119.228717
_cell_angle_beta                  119.409161
_cell_angle_gamma                 60.671196
_cell_volume                      4355.67695003

loop_
_atom_site_label
_atom_site_type_symbol
_atom_type_description
_atom_site_fract_x
_atom_site_fract_y
_atom_site_fract_z
_atom_type_partial_charge
C1    C     C_R   0.139618 0.858430 0.638453 0.519794
C2    C     C_R   0.910118 0.361778 0.949073 -0.146337
C3    C     C_R   0.968849 0.285562 0.910211 -0.132520
C4    C     C_R   0.861728 0.140116 0.360042 0.535107
C5    C     C_R   0.936987 0.225499 0.828267 0.151346
C6    C     C_R   0.944246 0.229094 0.331613 0.160880
C7    C     C_R   0.978336 0.274879 0.318688 0.131331
C8    C     C_R   0.923187 0.326598 0.263523 -0.130998
C9    C     C_R   0.833143 0.336316 0.221095 0.107790
C10   C     C_R   0.794899 0.293890 0.235124 0.011115
C11   C     C_R   0.851312 0.239035 0.291032 -0.012653
C12   C     C_R   0.587140 0.225758 0.693939 -0.105927
C13   C     C_R   0.812035 0.196258 0.303595 0.040461
C14   C     C_R   0.721716 0.205765 0.260509 -0.162835
C15   C     C_R   0.667633 0.258834 0.207081 -0.168432
C16   C     C_R   0.140026 0.139809 0.640247 0.487557
C17   C     C_R   0.702432 0.303694 0.195055 0.044559
C18   C     C_R   0.732426 0.865517 0.428918 -0.125969
C19   C     C_R   0.672303 0.868633 0.456801 -0.171136
C20   C     C_R   0.604982 0.832694 0.396016 -0.112296
C21   C     C_R   0.599109 0.789728 0.306672 0.175733
C22   C     C_R   0.668744 0.773287 0.279475 0.020938
C23   C     C_R   0.666894 0.241643 0.720602 -0.055120
C24   C     C_R   0.732621 0.818013 0.339904 -0.016512
C25   C     C_R   0.791462 0.815589 0.307550 -0.014990
C26   C     C_R   0.783670 0.772385 0.218087 -0.153865
C27   C     C_R   0.724727 0.725599 0.160392 0.088426
C28   C     C_R   0.856649 0.862890 0.361067 0.496890
C29   C     C_R   0.674445 0.717097 0.193023 0.035746
C30   C     C_R   0.104380 0.698737 0.594082 -0.131980
C31   C     C_R   0.083564 0.626545 0.576865 -0.088400
C32   C     C_R   0.136008 0.573799 0.631780 0.153418
C33   C     C_R   0.212120 0.591557 0.701380 -0.084887
C34   C     C_R   0.716866 0.192597 0.662199 0.001362
C35   C     C_R   0.231164 0.668260 0.723982 -0.043752
C36   C     C_R   0.175970 0.723132 0.669841 -0.029136
C37   C     C_R   0.195557 0.799059 0.691285 0.016519
C38   C     C_R   0.270797 0.818392 0.763179 0.118634
C39   C     C_R   0.325210 0.764410 0.816997 0.129752
C40   C     C_R   0.140909 0.864183 0.360358 0.510318
C41   C     C_R   0.304723 0.690507 0.798260 0.017102
C42   C     C_R   0.345836 0.808780 0.434040 0.178585
C43   C     C_R   0.428107 0.749863 0.470591 -0.121533
C44   C     C_R   0.460820 0.663243 0.417943 -0.147108
C45   C     C_R   0.697349 0.305648 0.803241 0.003901
C46   C     C_R   0.417604 0.636189 0.326098 0.169281
C47   C     C_R   0.338789 0.698166 0.287566 0.006674
C48   C     C_R   0.293998 0.775516 0.343681 -0.033907
C49   C     C_R   0.199967 0.815185 0.305824 0.021824
C50   C     C_R   0.161953 0.797159 0.212775 0.094858
C51   C     C_R   0.215780 0.738493 0.160061 -0.163129
C52   C     C_R   0.860201 0.139096 0.639695 0.604916
C53   C     C_R   0.303572 0.688153 0.196059 -0.013199
C54   C     C_R   0.222769 0.173894 0.563706 -0.121469
C55   C     C_R   0.255868 0.196470 0.525947 -0.117090
C56   C     C_R   0.784493 0.310035 0.832960 -0.003537
C57   C     C_R   0.300378 0.258692 0.578462 -0.108646
C58   C     C_R   0.316801 0.294576 0.669896 -0.127748
C59   C     C_R   0.285710 0.270872 0.709866 -0.014176
C60   C     C_R   0.234771 0.212669 0.655372 0.007854
C61   C     C_R   0.196537 0.195487 0.693900 0.001510
C62   C     C_R   0.210804 0.233048 0.785045 -0.139604
C63   C     C_R   0.265487 0.285965 0.840158 0.115456
C64   C     C_R   0.677499 0.141744 0.573076 0.122061
C65   C     C_R   0.303283 0.304637 0.802654 0.055788
C66   C     C_R   0.634016 0.645964 0.139183 0.539337
C67   C     C_R   0.842931 0.241558 0.785319 -0.007886
C68   C     C_R   0.359922 0.360268 0.860726 0.522626
C69   C     C_R   0.639352 0.359963 0.139732 0.545487
C70   C     C_R   0.360327 0.637983 0.857958 0.514326
C71   C     C_R   0.359918 0.636376 0.139888 0.528511
C72   C     C_R   0.641745 0.360437 0.860983 0.506939
C73   C     C_R   0.602282 0.123126 0.551837 -0.075853
C74   C     C_R   0.559795 0.160602 0.614078 0.126172
C75   C     C_3   0.055581 0.086362 0.340386 -0.277711
C76   C     C_3   0.084530 0.345267 0.438210 -0.294039
C77   C     C_3   0.793289 0.348103 0.079564 -0.280996
C78   C     C_R   0.805472 0.192447 0.696135 0.012244
C79   C     C_3   0.455750 0.845562 0.205681 -0.335751
C80   C     C_3   0.683670 0.178117 0.466349 -0.296385
C81   C     C_3   0.646304 0.755579 0.022804 -0.290352
C82   C     C_3   0.259788 0.973986 0.851967 -0.297826
C83   C     C_3   0.029737 0.527219 0.626906 -0.311154
C84   C     C_3   0.386332 0.826242 0.978349 -0.299704
C85   C     C_3   0.014122 0.788258 0.122672 -0.272158
C86   C     C_3   0.374417 0.937316 0.572416 -0.282930
C87   C     C_3   0.393642 0.493379 0.237774 -0.308240
C88   C     C_3   0.361120 0.268431 0.983678 -0.313056
C89   C     C_R   0.818342 0.376766 0.910268 0.127022
C90   C     C_3   0.476672 0.053226 0.532038 -0.315860
C91   C     C_3   0.726513 0.516556 0.883544 -0.251205
C92   C     C_3   0.016507 0.070547 0.814199 -0.297424
H1    H     H_    0.951017 0.360368 0.253510 0.107932
H2    H     H_    0.093729 0.045015 0.384476 0.126711
H3    H     H_    0.098797 0.254510 0.317412 0.237260
H4    H     H_    0.154698 0.341616 0.462317 0.152516
H5    H     H_    0.070789 0.346608 0.491722 0.181221
H6    H     H_    0.041392 0.408091 0.421921 0.151770
H7    H     H_    0.790079 0.452670 0.197111 0.246112
H8    H     H_    0.746941 0.393407 0.039614 0.159736
H9    H     H_    0.777614 0.285005 0.044191 0.175208
H10   H     H_    0.862572 0.333917 0.086403 0.116046
H11   H     H_    0.597341 0.265961 0.175549 0.100664
H12   H     H_    0.468134 0.770061 0.539733 0.107696
H13   H     H_    0.823770 0.774929 0.191519 0.137788
H14   H     H_    0.775995 0.902867 0.479898 0.173148
H15   H     H_    0.675093 0.903893 0.525441 0.115171
H16   H     H_    0.553826 0.843031 0.417451 0.101557
H17   H     H_    0.486977 0.759928 0.267414 0.264816
H18   H     H_    0.396607 0.826415 0.152941 0.130185
H19   H     H_    0.487948 0.857322 0.176005 0.137761
H20   H     H_    0.433251 0.908227 0.257566 0.128995
H21   H     H_    0.701035 0.052262 0.454557 0.237996
H22   H     H_    0.717483 0.150516 0.417380 0.134500
H23   H     H_    0.576880 0.080244 0.485699 0.109351
H24   H     H_    0.702567 0.237302 0.519317 0.164713
H25   H     H_    0.610364 0.198829 0.432172 0.123200
H26   H     H_    0.772195 0.664594 0.055720 0.230293
H27   H     H_    0.581013 0.776069 0.029282 0.172220
H28   H     H_    0.666069 0.815419 0.051024 0.125322
H29   H     H_    0.638797 0.725843 0.951195 0.120758
H30   H     H_    0.351384 0.882499 0.783692 0.240598
H31   H     H_    0.220487 0.031222 0.826468 0.144756
H32   H     H_    0.318233 0.988848 0.910506 0.120682
H33   H     H_    0.217522 0.966184 0.873760 0.136125
H34   H     H_    0.180853 0.219441 0.813779 0.096833
H35   H     H_    0.063730 0.734019 0.546512 0.140997
H36   H     H_    0.027149 0.610900 0.519634 0.112395
H37   H     H_    0.164358 0.456335 0.647969 0.253769
H38   H     H_    0.018557 0.467008 0.614985 0.140016
H39   H     H_    0.973404 0.560609 0.578327 0.149917
H40   H     H_    0.031040 0.572595 0.695582 0.155244
H41   H     H_    0.255169 0.544343 0.737021 0.129510
H42   H     H_    0.433761 0.812657 0.886986 0.238564
H43   H     H_    0.393920 0.893240 0.012559 0.106625
H44   H     H_    0.437746 0.783025 0.019540 0.158716
H45   H     H_    0.545393 0.261521 0.734842 0.141927
H46   H     H_    0.319478 0.833378 0.972063 0.137435
H47   H     H_    0.064001 0.875844 0.135511 0.233454
H48   H     H_    0.943786 0.830619 0.099976 0.139782
H49   H     H_    0.019374 0.757173 0.165153 0.169874
H50   H     H_    0.032661 0.735171 0.063526 0.118653
H51   H     H_    0.289582 0.943655 0.443896 0.226421
H52   H     H_    0.342182 0.010254 0.598765 0.156732
H53   H     H_    0.441566 0.924868 0.575079 0.110685
H54   H     H_    0.379982 0.906400 0.615179 0.162028
H55   H     H_    0.521842 0.617814 0.448479 0.105494
H56   H     H_    0.039824 0.274149 0.942946 0.099344
H57   H     H_    0.516491 0.512632 0.304264 0.250942
H58   H     H_    0.386135 0.488716 0.292006 0.130945
H59   H     H_    0.326961 0.523420 0.194335 0.155129
H60   H     H_    0.423898 0.425121 0.196929 0.125477
H61   H     H_    0.187866 0.731538 0.090122 0.143928
H62   H     H_    0.188281 0.125648 0.520864 0.109628
H63   H     H_    0.246004 0.166404 0.455464 0.124764
H64   H     H_    0.324597 0.277292 0.548581 0.129544
H65   H     H_    0.353834 0.340832 0.708673 0.097631
H66   H     H_    0.226318 0.338887 0.949227 0.242828
H67   H     H_    0.042557 0.204512 0.446269 0.263474
H68   H     H_    0.356226 0.202288 0.963770 0.127966
H69   H     H_    0.369944 0.302696 0.055590 0.122097
H70   H     H_    0.420534 0.258979 0.973057 0.176467
H71   H     H_    0.474757 0.153703 0.653477 0.260831
H72   H     H_    0.418801 0.045705 0.529916 0.144709
H73   H     H_    0.537048 0.997665 0.550703 0.137039
H74   H     H_    0.462600 0.050280 0.464498 0.143018
H75   H     H_    0.786570 0.498913 0.006964 0.245916
H76   H     H_    0.668317 0.574600 0.898660 0.186962
H77   H     H_    0.702758 0.477074 0.812314 0.149726
H78   H     H_    0.103362 0.092302 0.324244 0.135858
H79   H     H_    0.778315 0.539799 0.894490 0.107914
H80   H     H_    0.936047 0.411214 0.008662 0.100256
H81   H     H_    0.059060 0.153213 0.807777 0.228568
H82   H     H_    0.060204 0.009466 0.778668 0.160268
H83   H     H_    0.952898 0.059731 0.792275 0.167067
H84   H     H_    0.049761 0.082081 0.886820 0.115431
H85   H     H_    0.692385 0.172519 0.269349 0.102480
H86   H     H_    0.010927 0.052337 0.278288 0.175679
N1    N     N_2   0.004089 0.173332 0.385299 -0.493200
N2    N     N_2   0.071230 0.842697 0.172283 -0.489752
N3    N     N_2   0.320586 0.902551 0.481734 -0.475690
N4    N     N_2   0.450708 0.545555 0.274742 -0.476129
N5    N     N_2   0.280876 0.321882 0.933302 -0.510949
N6    N     N_2   0.486859 0.137871 0.597097 -0.520256
N7    N     N_2   0.761860 0.464645 0.940530 -0.474306
N8    N     N_2   0.000553 0.145603 0.793788 -0.508657
N9    N     N_2   0.069584 0.268581 0.360915 -0.541434
N10   N     N_2   0.782296 0.390759 0.165800 -0.499978
N11   N     N_2   0.517269 0.775070 0.243886 -0.485954
N12   N     N_2   0.710758 0.110796 0.503363 -0.510311
N13   N     N_2   0.713263 0.691526 0.068328 -0.493524
N14   N     N_2   0.289491 0.894760 0.782820 -0.485729
N15   N     N_2   0.113545 0.501586 0.616269 -0.542615
N16   N     N_2   0.398705 0.786514 0.892834 -0.492439
O1    O     O_3   1.000000 0.000000 0.500000 -0.438481
O2    O     O_R   0.323460 0.615830 0.884170 -0.563820
O3    O     O_R   0.444880 0.615840 0.176480 -0.513516
O4    O     O_R   0.055060 0.884200 0.615800 -0.568807
O5    O     O_R   0.615800 0.444940 0.884180 -0.516001
O6    O     O_R   0.323440 0.615840 0.055040 -0.551218
O7    O     O_R   0.615780 0.323500 0.884180 -0.564938
O8    O     O_R   0.615760 0.323500 0.055050 -0.543746
O9    O     O_R   0.444910 0.615830 0.884180 -0.521982
O10   O     O_R   0.615780 0.615830 0.176490 -0.522027
O11   O     O_R   0.323430 0.444950 0.884170 -0.536349
O12   O     O_R   0.055100 0.176520 0.615800 -0.536234
O13   O     O_R   0.884210 0.176520 0.444920 -0.530194
O14   O     O_R   0.176540 0.055080 0.615800 -0.542598
O15   O     O_R   0.884190 0.884200 0.323480 -0.548925
O16   O     O_R   0.176540 0.884190 0.444930 -0.521655
O17   O     O_R   0.884180 0.055090 0.615790 -0.523135
O18   O     O_R   0.055100 0.884190 0.323490 -0.518583
O19   O     O_R   0.884190 0.176530 0.615790 -0.530375
O20   O     O_R   0.884180 0.884200 0.444920 -0.566478
O21   O     O_R   0.176510 0.884190 0.615800 -0.507276
O22   O     O_R   0.884210 0.055080 0.323480 -0.542061
O23   O     O_3   0.499970 0.500030 0.999970 -0.441290
O24   O     O_R   0.615800 0.615830 0.055050 -0.515159
O25   O     O_R   0.444880 0.323510 0.884180 -0.560364
O26   O     O_R   0.615760 0.444950 0.176490 -0.518625
Zn1   Zn    Zn3+2 0.956630 0.130130 0.543370 0.943947
Zn2   Zn    Zn3+2 0.130140 0.956620 0.543380 0.938106
Zn3   Zn    Zn3+2 0.956630 0.956620 0.369870 0.920829
Zn4   Zn    Zn3+2 0.956610 0.956630 0.543370 0.919326
Zn5   Zn    Zn3+2 0.543340 0.369890 0.956600 0.909646
Zn6   Zn    Zn3+2 0.543340 0.543410 0.130100 0.952488
Zn7   Zn    Zn3+2 0.369830 0.543410 0.956590 0.920634
Zn8   Zn    Zn3+2 0.543370 0.543400 0.956600 0.927295

loop_
_geom_bond_atom_site_label_1
_geom_bond_atom_site_label_2
_ccdc_geom_bond_type
C63   C65   A    
C84   H43   S    
C17   C69   S    
C42   C43   A    
O16   Zn2   S    
C22   C29   A    
C12   C74   A    
C6    N1    S    
C27   C29   A    
C69   O26   A    
C73   C74   A    
C54   C55   A    
C50   N2    S    
C35   C36   A    
C5    C67   A    
C9    N10   S    
C87   N4    S    
H3    N9    S    
C7    C8    A    
C39   C41   A    
C54   C60   A    
C92   H84   S    
C25   C28   S    
O7    Zn5   S    
H21   N12   S    
C28   O15   A    
C12   C23   A    
C26   C27   A    
C62   C63   A    
C79   H20   S    
C4    O22   A    
H51   N3    S    
C7    N9    S    
C36   C37   A    
C88   H69   S    
C16   O12   A    
C30   C31   A    
C92   N8    S    
C74   N6    S    
O12   Zn1   S    
C76   H6    S    
C40   C49   S    
H75   N7    S    
C40   O16   A    
C44   H55   S    
C77   H8    S    
C18   C19   A    
O24   Zn8   S    
C4    C13   S    
C75   H86   S    
C43   H12   S    
C81   N13   S    
H47   N2    S    
C46   C47   A    
C69   O8    A    
O19   Zn1   S    
C84   H44   S    
C1    O4    A    
C45   C56   A    
C84   N16   S    
C8    C9    A    
C41   C70   S    
C87   H58   S    
C1    O21   A    
C52   O17   A    
C64   C73   A    
O11   Zn7   S    
C75   N1    S    
H66   N5    S    
C34   C78   A    
C1    C37   S    
O23   Zn6   S    
C47   C53   A    
C66   O10   A    
O3    Zn6   S    
C23   C34   A    
C91   N7    S    
O2    Zn7   S    
C84   H46   S    
C59   C60   A    
C92   H83   S    
C87   H59   S    
C13   C14   A    
C90   H74   S    
C45   C72   S    
C77   H10   S    
C67   C78   A    
C27   N13   S    
C23   C45   A    
C52   C78   S    
C86   H54   S    
C26   H13   S    
C82   H32   S    
O9    Zn8   S    
C57   H64   S    
C44   C46   A    
C71   O3    A    
O8    Zn5   S    
C42   N3    S    
C28   O20   A    
O21   Zn2   S    
C39   N16   S    
H81   N8    S    
C63   N5    S    
C91   H77   S    
C31   H36   S    
C80   H24   S    
C91   H76   S    
C71   O6    A    
C68   O25   A    
C38   C39   A    
C24   C25   A    
C83   H38   S    
C55   H63   S    
H17   N11   S    
C6    C11   A    
O1    Zn1   S    
C88   N5    S    
C92   H82   S    
C76   H5    S    
C91   H79   S    
C81   H29   S    
C60   C61   A    
C51   C53   A    
O6    Zn7   S    
C30   H35   S    
C2    C89   A    
O4    Zn4   S    
C43   C44   A    
C18   H14   S    
C82   H33   S    
C83   H39   S    
C37   C38   A    
C86   N3    S    
H26   N13   S    
C21   N11   S    
C47   C48   A    
C81   H28   S    
H42   N16   S    
C65   C68   S    
C20   C21   A    
C75   H78   S    
C34   C64   A    
C50   C51   A    
O26   Zn6   S    
C42   C48   A    
O25   Zn5   S    
C85   H48   S    
C76   N9    S    
H7    N10   S    
O23   Zn7   S    
C85   H49   S    
C56   C89   A    
C5    N8    S    
C80   H22   S    
O13   Zn1   S    
C38   N14   S    
C87   H60   S    
C55   C57   A    
C90   H73   S    
H57   N4    S    
O15   Zn3   S    
C18   C24   A    
C58   C59   A    
C16   C61   S    
O10   Zn6   S    
C53   C71   S    
C86   H53   S    
C82   H31   S    
C4    O13   A    
C62   H34   S    
O5    Zn8   S    
C70   O9    A    
C15   C17   A    
C40   O18   A    
C80   H25   S    
C51   H61   S    
C79   H18   S    
C82   N14   S    
H71   N6    S    
C88   H70   S    
C80   N12   S    
C31   C32   A    
C8    H1    S    
C14   C15   A    
C90   N6    S    
C32   N15   S    
C3    C5    A    
C58   H65   S    
C85   H50   S    
C54   H62   S    
O1    Zn2   S    
H37   N15   S    
H30   N14   S    
C6    C7    A    
C79   H19   S    
C56   C67   A    
C81   H27   S    
C73   H23   S    
C30   C36   A    
C89   N7    S    
C32   C33   A    
C46   N4    S    
C19   C20   A    
C2    C3    A    
C25   C26   A    
O22   Zn3   S    
C83   H40   S    
C66   O24   A    
C59   C65   A    
C72   O5    A    
O1    Zn3   S    
C11   C13   A    
C57   C58   A    
O1    Zn4   S    
O23   Zn5   S    
C86   H52   S    
C85   N2    S    
C48   C49   A    
O17   Zn4   S    
C52   O19   A    
C33   C35   A    
C77   H9    S    
C9    C10   A    
C22   C24   A    
C88   H68   S    
C61   C62   A    
C35   C41   A    
C14   H85   S    
C10   C11   A    
O23   Zn8   S    
C29   C66   S    
C33   H41   S    
C3    H56   S    
H67   N1    S    
C64   N12   S    
C70   O2    A    
C49   C50   A    
C79   N11   S    
C90   H72   S    
C68   O11   A    
C77   N10   S    
C16   O14   A    
C12   H45   S    
C72   O7    A    
C10   C17   A    
C15   H11   S    
C21   C22   A    
O14   Zn2   S    
C76   H4    S    
O20   Zn4   S    
C75   H2    S    
C2    H80   S    
C83   N15   S    
C20   H16   S    
O18   Zn3   S    
C19   H15   S    
