data_mof_unit_18052.cif
_audit_creation_date              2012-10-26T20:03:20-0400
_audit_creation_method            fapswitch 2.2
_symmetry_space_group_name_H-M    P1
_symmetry_Int_Tables_number       1
_space_group_crystal_system       triclinic
_cell_length_a                    10.588221
_cell_length_b                    12.405331
_cell_length_c                    13.196974
_cell_angle_alpha                 117.246166
_cell_angle_beta                  76.114535
_cell_angle_gamma                 100.94141
_cell_volume                      1489.63412616

loop_
_atom_site_label
_atom_site_type_symbol
_atom_type_description
_atom_site_fract_x
_atom_site_fract_y
_atom_site_fract_z
_atom_type_partial_charge
C1    C     C_R   0.512292 0.854959 0.286408 0.526429
C2    C     C_R   0.500731 0.565423 0.009718 0.028952
C3    C     C_R   0.459384 0.651736 0.124293 0.023794
C4    C     C_R   0.740164 0.999532 0.499823 0.543038
C5    C     C_R   0.460028 0.439939 0.978345 0.040654
C6    C     C_R   0.353529 0.407481 0.051240 0.033395
C7    C     C_R   0.301498 0.496206 0.158276 -0.144286
C8    C     C_R   0.355323 0.616159 0.195532 -0.122411
C9    C     C_R   0.520393 0.345125 0.877324 0.006075
C10   C     C_R   0.344352 0.198796 0.906335 -0.161241
C11   C     C_R   0.519887 0.772537 0.162435 -0.003262
C12   C     C_3   0.016196 0.023780 0.605813 -0.132815
C13   C     C_R   0.695711 0.333879 0.312973 -0.168209
C14   C     C_R   0.311708 0.756260 0.635271 0.054807
C15   C     C_R   0.252505 0.649998 0.642508 -0.175941
C16   C     C_R   0.482179 0.144942 0.713543 0.529398
C17   C     C_R   0.316346 0.544412 0.580155 -0.115982
C18   C     C_R   0.445028 0.545403 0.520171 0.016733
C19   C     C_R   0.492864 0.651118 0.501528 0.172891
C20   C     C_R   0.519901 0.441196 0.465833 0.004778
C21   C     C_R   0.625838 0.436758 0.375313 -0.000835
C22   C     C_R   0.664573 0.537155 0.350144 -0.171528
C23   C     C_3   0.931209 0.913298 0.530513 -0.111921
C24   C     C_R   0.602871 0.643849 0.415135 -0.102501
C25   C     C_R   0.501762 0.346198 0.502876 0.404094
C26   C     C_R   0.665931 0.237788 0.343748 0.002220
C27   C     C_R   0.259919 0.999892 0.499366 0.526355
C28   C     C_3   0.983848 0.974999 0.392710 -0.124590
C29   C     C_3   0.040452 0.889681 0.423316 -0.120343
C30   C     C_3   0.123067 0.000096 0.498661 0.044709
C31   C     C_3   0.068826 0.085427 0.467897 -0.116283
C32   C     C_3   0.959730 0.109159 0.575175 -0.126815
C33   C     C_3   0.663112 0.358922 0.824366 -0.391329
C34   C     C_3   0.877061 0.998800 0.499885 0.048276
C35   C     C_3   0.320568 0.328938 0.642582 0.032696
C36   C     C_3   0.249426 0.419905 0.757140 -0.410318
C37   C     C_R   0.298416 0.286773 0.015472 -0.144696
C38   C     C_R   0.453110 0.228236 0.836098 0.013387
C39   C     C_R   0.598386 0.811313 0.080976 -0.136235
C40   C     C_R   0.620015 0.730902 0.964261 -0.147982
C41   C     C_R   0.572531 0.608954 0.928681 -0.125365
Cu1   Cu    Cu3+1 0.529830 0.098270 0.475420 0.938168
Cu2   Cu    Cu3+1 0.470170 0.901730 0.524580 0.900420
H1    H     H_    0.076827 0.800065 0.361187 0.101780
H2    H     H_    0.967222 0.954999 0.305633 0.101301
H3    H     H_    0.258186 0.461718 0.570464 0.110836
H4    H     H_    0.154528 0.647651 0.690873 0.094381
H5    H     H_    0.641074 0.717120 0.391853 0.179359
H6    H     H_    0.126976 0.155125 0.440743 0.106868
H7    H     H_    0.923767 0.198945 0.637272 0.102102
H8    H     H_    0.032923 0.043893 0.692896 0.096630
H9    H     H_    0.872081 0.842729 0.556061 0.121663
H10   H     H_    0.292791 0.108576 0.875523 0.117351
H11   H     H_    0.219453 0.472616 0.214020 0.104531
H12   H     H_    0.643714 0.903815 0.107527 0.122602
H13   H     H_    0.215328 0.261834 0.069453 0.105760
H14   H     H_    0.711131 0.277235 0.803589 0.115982
H15   H     H_    0.673082 0.368469 0.743170 0.171217
H16   H     H_    0.717991 0.437407 0.885775 0.119925
H17   H     H_    0.314692 0.248759 0.658632 0.185485
H18   H     H_    0.266407 0.298183 0.570382 0.093522
H19   H     H_    0.142163 0.397376 0.761866 0.089402
H20   H     H_    0.277424 0.415175 0.830809 0.150738
H21   H     H_    0.274813 0.514887 0.768099 0.175180
H22   H     H_    0.588548 0.550637 0.836957 0.148601
H23   H     H_    0.676637 0.762474 0.901340 0.118097
H24   H     H_    0.309010 0.681479 0.277955 0.146199
H25   H     H_    0.718427 0.157366 0.294364 0.121735
H26   H     H_    0.746647 0.534812 0.281970 0.109991
H27   H     H_    0.773988 0.328242 0.241132 0.098094
H28   H     H_    0.260436 0.837581 0.679849 0.124461
N1    N     N_R   0.575030 0.246270 0.438190 -0.222566
N2    N     N_R   0.425760 0.754330 0.561190 -0.235201
O1    O     O_R   0.537510 0.972500 0.318130 -0.506187
O2    O     O_R   0.487140 0.806530 0.359650 -0.520093
O3    O     O_R   0.708330 0.082950 0.479220 -0.501519
O4    O     O_R   0.657960 0.916980 0.520740 -0.522056
O5    O     O_R   0.512860 0.193470 0.640350 -0.465948
O6    O     O_R   0.462490 0.027500 0.681870 -0.506728
O7    O     O_R   0.342040 0.083020 0.479260 -0.527466
O8    O     O_R   0.291670 0.917050 0.520780 -0.514064
O9    O     O_3   0.452150 0.376269 0.620009 -0.548348

loop_
_geom_bond_atom_site_label_1
_geom_bond_atom_site_label_2
_ccdc_geom_bond_type
Cu2   N2    S    
Cu1   O7    S    
C33   H15   S    
C26   N1    A    
C14   H28   S    
C35   C36   S    
C1    C11   S    
C15   H4    S    
C7    C8    A    
C12   C23   S    
C10   C37   A    
C1    O1    A    
C23   C29   S    
C28   C29   S    
C30   C31   S    
C13   H27   S    
C2    C41   A    
Cu2   O6    S    
C18   C19   A    
C10   H10   S    
C37   H13   S    
C39   H12   S    
C36   H20   S    
C22   H26   S    
C18   C20   A    
C28   C34   S    
C33   H16   S    
C40   H23   S    
C21   C22   A    
C12   C32   S    
C27   C30   S    
C9    C33   S    
C31   H6    S    
C36   H19   S    
C35   O9    S    
Cu2   O2    S    
C4    C34   S    
C28   H2    S    
Cu1   O1    S    
C1    O2    A    
C14   N2    A    
C19   N2    A    
C17   H3    S    
C27   O7    A    
C39   C40   A    
C41   H22   S    
C35   H17   S    
C24   H5    S    
C5    C9    A    
C29   C30   S    
C31   C32   S    
C27   O8    A    
C23   C34   S    
Cu1   N1    S    
C17   C18   A    
C6    C37   A    
C13   C21   A    
C35   H18   S    
C25   N1    A    
C11   C39   A    
C32   H7    S    
C40   C41   A    
Cu1   O5    S    
C29   H1    S    
C25   O9    S    
Cu2   O8    S    
C22   C24   A    
C13   C26   A    
C2    C5    A    
Cu1   Cu2   S    
C12   H8    S    
C15   C17   A    
C33   H14   S    
C12   C30   S    
C28   C31   S    
C6    C7    A    
Cu2   O4    S    
Cu1   O3    S    
C10   C38   A    
C16   O6    A    
C26   H25   S    
C19   C24   A    
C4    O4    A    
C23   H9    S    
C5    C6    A    
C9    C38   A    
C2    C3    A    
C16   O5    A    
C3    C8    A    
C4    O3    A    
C3    C11   A    
C20   C21   A    
C8    H24   S    
C20   C25   A    
C16   C38   S    
C14   C15   A    
C7    H11   S    
C36   H21   S    
C32   C34   S    
