data_mof_unit_52556.cif
_audit_creation_date              2012-12-10T16:58:32-0500
_audit_creation_method            fapswitch 2.2
_symmetry_space_group_name_H-M    P1
_symmetry_Int_Tables_number       1
_space_group_crystal_system       triclinic
_cell_length_a                    7.741832
_cell_length_b                    8.567363
_cell_length_c                    23.423934
_cell_angle_alpha                 90.960938
_cell_angle_beta                  86.022349
_cell_angle_gamma                 93.670055
_cell_volume                      1546.60166589

loop_
_atom_site_label
_atom_site_type_symbol
_atom_type_description
_atom_site_fract_x
_atom_site_fract_y
_atom_site_fract_z
_atom_type_partial_charge
C1    C     C_R   0.545887 0.794840 0.498508 0.960486
C2    C     C_R   0.648974 0.509160 0.292927 -0.261822
C3    C     C_R   0.352918 0.487820 0.766158 -0.090315
C4    C     C_R   0.647117 0.510695 0.233822 -0.090543
C5    C     C_R   0.511032 0.496038 0.791566 0.226589
C6    C     C_R   0.489023 0.503928 0.208425 0.227005
C7    C     C_2   0.570140 0.958274 0.497648 -0.352919
C8    C     C_2   0.429860 0.041726 0.502353 -0.352909
C9    C     C_R   0.502658 0.500149 0.610683 0.915420
C10   C     C_R   0.497342 0.499863 0.389313 0.915265
C11   C     C_R   0.450549 0.365567 0.119869 0.520319
C12   C     C_R   0.454113 0.205160 0.501492 0.960155
C13   C     C_R   0.549414 0.634429 0.880134 0.520334
C14   C     C_R   0.528874 0.640413 0.119409 0.520070
C15   C     C_R   0.471230 0.359558 0.880593 0.519912
C16   C     C_R   0.534511 0.642001 0.059740 -0.020804
C17   C     C_R   0.465526 0.357986 0.940264 -0.020742
C18   C     C_R   0.497133 0.500800 0.030024 -0.018398
C19   C     C_R   0.502870 0.499192 0.969978 -0.018394
C20   C     C_R   0.454216 0.361169 0.060214 -0.020484
C21   C     C_R   0.545761 0.638825 0.939790 -0.020456
C22   C     C_R   0.577093 0.780460 0.029287 -0.164444
C23   C     C_R   0.667739 0.505548 0.758173 -0.173749
C24   C     C_R   0.422922 0.219530 0.970716 -0.164445
C25   C     C_R   0.582695 0.778882 0.969774 -0.165008
C26   C     C_R   0.417272 0.221115 0.030230 -0.165036
C27   C     C_R   0.332309 0.495873 0.241819 -0.173908
C28   C     C_R   0.666978 0.506816 0.698913 0.610003
C29   C     C_R   0.333050 0.494629 0.301079 0.610088
C30   C     C_R   0.507774 0.498803 0.672892 -0.188802
C31   C     C_R   0.492232 0.501189 0.327100 -0.188969
C32   C     C_R   0.351042 0.489365 0.707053 -0.261950
F1    F     F_    0.821359 0.517565 0.667543 -0.666892
F2    F     F_    0.178611 0.485416 0.332452 -0.666794
H1    H     H_    0.606533 0.890157 0.051283 0.195339
H2    H     H_    0.768247 0.516528 0.207635 0.160225
H3    H     H_    0.702603 0.009380 0.493158 0.185086
H4    H     H_    0.297397 0.990620 0.506842 0.185128
H5    H     H_    0.014072 0.382883 0.456891 0.220507
H6    H     H_    0.985929 0.617118 0.543108 0.220879
H7    H     H_    0.393494 0.109831 0.948720 0.195358
H8    H     H_    0.616080 0.887447 0.947405 0.194783
H9    H     H_    0.383863 0.112556 0.052599 0.194775
H10   H     H_    0.789835 0.512190 0.778315 0.162156
H11   H     H_    0.210222 0.490368 0.221680 0.161887
H12   H     H_    0.226873 0.482671 0.688207 0.228056
H13   H     H_    0.773154 0.514679 0.311759 0.228391
H14   H     H_    0.231800 0.480863 0.792338 0.160408
N1    N     N_R   0.488065 0.503558 0.147823 -0.349920
N2    N     N_R   0.511983 0.496418 0.852175 -0.349841
N3    N     N_2   0.950330 0.457950 0.484560 -0.154615
N4    N     N_2   0.049670 0.542050 0.515440 -0.154572
O1    O     O_R   0.389250 0.738570 0.503790 -0.616674
O2    O     O_2   0.588338 0.766759 0.850166 -0.523207
O3    O     O_2   0.563632 0.774039 0.148980 -0.522449
O4    O     O_2   0.436615 0.225893 0.851025 -0.522548
O5    O     O_R   0.610750 0.261430 0.496210 -0.616819
O6    O     O_R   0.678390 0.711620 0.493890 -0.629976
O7    O     O_R   0.321610 0.288380 0.506110 -0.630221
O8    O     O_R   0.355400 0.513520 0.588790 -0.617408
O9    O     O_R   0.644600 0.486480 0.411210 -0.617437
O10   O     O_R   0.644550 0.486570 0.578900 -0.566460
O11   O     O_R   0.355450 0.513430 0.421100 -0.566260
O12   O     O_2   0.411499 0.233264 0.149843 -0.523193
Zn1   Zn    Zn3+2 0.306930 0.518000 0.506610 1.005414
Zn2   Zn    Zn3+2 0.693070 0.482000 0.493390 1.005348

loop_
_geom_bond_atom_site_label_1
_geom_bond_atom_site_label_2
_ccdc_geom_bond_type
C25   H8    S    
C26   H9    S    
C2    C4    A    
N4    Zn1   S    
O11   Zn1   S    
C11   N1    A    
C2    H13   S    
C27   C29   A    
O1    Zn1   S    
H5    N3    S    
C6    C27   A    
C5    C23   A    
O5    Zn2   S    
C8    C12   S    
C9    O8    A    
C15   O4    S    
C27   H11   S    
C28   C30   A    
C14   O3    S    
C7    H3    S    
C13   C21   A    
C7    C8    D    
C29   C31   A    
C1    C7    S    
C1    O6    A    
O7    Zn1   S    
C30   C32   A    
C24   H7    S    
N3    N4    D    
C20   C26   A    
C9    C30   S    
C12   O5    A    
C10   C31   S    
C4    C6    A    
C13   N2    A    
C17   C19   A    
C24   C26   A    
O8    Zn1   S    
C11   O12   S    
C18   C20   A    
C8    H4    S    
C6    N1    S    
C28   F1    S    
C3    C32   A    
C11   C20   A    
C14   C16   A    
C5    N2    S    
C10   O9    A    
C22   H1    S    
C23   C28   A    
O10   Zn2   S    
C9    O10   A    
C14   N1    A    
C17   C24   A    
C3    H14   S    
O9    Zn2   S    
C4    H2    S    
C22   C25   A    
C16   C18   A    
C13   O2    S    
C15   N2    A    
C15   C17   A    
C1    O1    A    
C18   C19   A    
C21   C25   A    
C19   C21   A    
H6    N4    S    
C12   O7    A    
C32   H12   S    
C29   F2    S    
O6    Zn2   S    
C23   H10   S    
C10   O11   A    
C16   C22   A    
C2    C31   A    
C3    C5    A    
N3    Zn2   S    
