data_mof_unit_23644.cif
_audit_creation_date              2012-12-10T20:02:18-0500
_audit_creation_method            fapswitch 2.2
_symmetry_space_group_name_H-M    P1
_symmetry_Int_Tables_number       1
_space_group_crystal_system       triclinic
_cell_length_a                    10.697049
_cell_length_b                    14.861157
_cell_length_c                    14.118907
_cell_angle_alpha                 89.62326
_cell_angle_beta                  91.109433
_cell_angle_gamma                 89.998371
_cell_volume                      2244.02075773

loop_
_atom_site_label
_atom_site_type_symbol
_atom_type_description
_atom_site_fract_x
_atom_site_fract_y
_atom_site_fract_z
_atom_type_partial_charge
C1    C     C_R   0.501372 0.327285 0.500579 0.918184
C2    C     C_R   0.507203 0.672902 0.499673 0.877310
C3    C     C_R   0.871917 0.497499 0.502421 -0.089112
C4    C     C_R   0.127150 0.503085 0.497539 -0.101200
C5    C     C_R   0.940828 0.447963 0.570246 0.051811
C6    C     C_R   0.057571 0.552425 0.428942 0.026084
C7    C     C_R   0.490539 0.086684 0.575118 -0.285939
C8    C     C_R   0.572385 0.909612 0.419240 -0.271435
C9    C     C_R   0.467278 0.178647 0.574244 0.461230
C10   C     C_R   0.552487 0.817352 0.414731 0.438209
C11   C     C_R   0.521696 0.231625 0.503349 -0.113580
C12   C     C_R   0.536882 0.768438 0.499863 -0.145223
C13   C     C_R   0.606597 0.194499 0.440274 -0.284257
C14   C     C_R   0.558962 0.810444 0.587332 -0.259143
C15   C     C_R   0.634520 0.103689 0.445290 -0.186308
C16   C     C_R   0.584778 0.901363 0.590772 -0.192052
C17   C     C_R   0.574662 0.049252 0.511594 0.078237
C18   C     C_R   0.584803 0.951966 0.507051 0.085395
C19   C     C_R   0.393786 0.526385 0.103069 -0.288421
C20   C     C_R   0.600203 0.537796 0.896231 -0.284936
C21   C     C_R   0.396004 0.526108 0.202588 0.012625
C22   C     C_R   0.597203 0.537948 0.796612 0.034309
C23   C     C_R   0.259798 0.502389 0.498997 0.890543
C24   C     C_R   0.739857 0.497483 0.500981 0.866154
C25   C     C_R   0.604877 0.474724 0.205847 0.017084
C26   C     C_R   0.401642 0.464148 0.794692 0.003692
C27   C     C_R   0.607405 0.475479 0.106268 -0.274991
C28   C     C_R   0.399234 0.464731 0.894229 -0.301367
C29   C     C_R   0.500454 0.500941 0.053138 0.132882
C30   C     C_R   0.500098 0.501008 0.946750 0.139092
C31   C     C_R   0.235063 0.743238 0.314219 -0.075463
C32   C     C_R   0.782443 0.252497 0.691425 -0.133335
C33   C     C_R   0.193500 0.681546 0.381676 -0.192890
C34   C     C_R   0.837345 0.305853 0.621791 -0.222319
C35   C     C_R   0.112488 0.611316 0.355048 -0.000012
C36   C     C_R   0.882613 0.391869 0.644256 0.042316
C37   C     C_R   0.073208 0.603966 0.258873 0.491288
C38   C     C_R   0.873563 0.424250 0.737418 0.507336
C39   C     C_R   0.114918 0.666922 0.192156 -0.256226
C40   C     C_R   0.817445 0.370228 0.806737 -0.230676
C41   C     C_R   0.196609 0.735630 0.219594 -0.206163
C42   C     C_R   0.772806 0.284544 0.783809 -0.199580
C43   C     C_R   0.929311 0.549558 0.433648 -0.196653
C44   C     C_R   0.069123 0.451365 0.567041 -0.234468
H1    H     H_    0.228339 0.784039 0.167749 0.157561
H2    H     H_    0.728814 0.243533 0.837325 0.143171
H3    H     H_    0.700004 0.075522 0.395979 0.140780
H4    H     H_    0.597083 0.933254 0.659121 0.136977
H5    H     H_    0.310122 0.548122 0.065539 0.141837
H6    H     H_    0.679200 0.567671 0.933376 0.139718
H7    H     H_    0.315068 0.547658 0.240209 0.141603
H8    H     H_    0.672569 0.568840 0.758367 0.173481
H9    H     H_    0.687447 0.454072 0.245636 0.146824
H10   H     H_    0.323933 0.435865 0.755032 0.125096
H11   H     H_    0.691799 0.455070 0.071111 0.134547
H12   H     H_    0.319771 0.435901 0.929826 0.155861
H13   H     H_    0.294738 0.798400 0.335783 0.177129
H14   H     H_    0.746649 0.186477 0.673623 0.140515
H15   H     H_    0.221392 0.690240 0.455196 0.128743
H16   H     H_    0.843918 0.280515 0.550300 0.142803
H17   H     H_    0.082821 0.663122 0.119114 0.156402
H18   H     H_    0.805468 0.395616 0.877687 0.138738
H19   H     H_    0.873322 0.589940 0.384493 0.168063
H20   H     H_    0.124011 0.412238 0.618016 0.146331
H21   H     H_    0.438826 0.044219 0.623205 0.149911
H22   H     H_    0.570804 0.948406 0.353984 0.149455
H23   H     H_    0.652629 0.236084 0.388118 0.165785
H24   H     H_    0.553804 0.773634 0.653617 0.180166
N1    N     N_R   0.500000 0.499980 0.252470 -0.095537
N2    N     N_R   0.500000 0.500020 0.747530 -0.097536
O1    O     O_R   0.500010 0.369070 0.579480 -0.596924
O2    O     O_R   0.499990 0.630930 0.420520 -0.570807
O3    O     O_R   0.500010 0.369060 0.420520 -0.626470
O4    O     O_R   0.499990 0.630940 0.579480 -0.631945
O5    O     O_R   0.316760 0.500010 0.579480 -0.627812
O6    O     O_R   0.683240 0.499990 0.420520 -0.646063
O7    O     O_R   0.316760 0.500000 0.420520 -0.629431
O8    O     O_R   0.683240 0.500000 0.579480 -0.608909
Zn1   Zn    Zn3+2 0.500000 0.500010 0.606140 0.954188
Zn2   Zn    Zn3+2 0.500000 0.499990 0.393860 0.950028
O9    O     O_3   0.985100 0.540648 0.231317 -0.682428
C45   C     C_3   0.044091 0.458791 0.207938 0.090897
H25   H     H_    0.988693 0.403118 0.239076 0.161936
H26   H     H_    0.140914 0.451308 0.237795 0.129328
C46   C     C_3   0.043275 0.447786 0.100220 -0.363695
H27   H     H_    0.945080 0.446736 0.072997 0.218599
H28   H     H_    0.091282 0.505801 0.067336 0.207918
C47   C     C_3   0.108827 0.361396 0.071178 -0.989783
H29   H     H_    0.208314 0.362394 0.095210 0.275707
H30   H     H_    0.105450 0.355471 0.992808 0.256208
H31   H     H_    0.061603 0.301937 0.102354 0.269439
O10   O     O_3   0.900535 0.513448 0.755823 -0.667707
C48   C     C_3   0.011570 0.519804 0.810704 0.042241
H32   H     H_    0.001407 0.485639 0.880564 0.131380
H33   H     H_    0.091222 0.489432 0.772587 0.142003
C49   C     C_3   0.038541 0.619524 0.827482 -0.297817
H34   H     H_    0.036116 0.656195 0.758563 0.236449
H35   H     H_    0.964720 0.647974 0.872881 0.210481
C50   C     C_3   0.165915 0.634253 0.875047 -0.977581
H36   H     H_    0.173332 0.594921 0.941778 0.251484
H37   H     H_    0.178027 0.706640 0.891757 0.262673
H38   H     H_    0.241353 0.613842 0.826824 0.281533
O11   O     O_3   0.379122 0.214553 0.633941 -0.647138
C51   C     C_3   0.425556 0.212892 0.728524 0.086124
H39   H     H_    0.490322 0.270589 0.739625 0.176470
H40   H     H_    0.476657 0.149596 0.747088 0.113987
C52   C     C_3   0.316059 0.221358 0.795838 -0.320240
H41   H     H_    0.264313 0.284736 0.780688 0.211481
H42   H     H_    0.250560 0.164251 0.784220 0.227155
C53   C     C_3   0.360849 0.220564 0.899158 -0.991148
H43   H     H_    0.404776 0.154804 0.917299 0.264840
H44   H     H_    0.280061 0.231072 0.946012 0.272315
H45   H     H_    0.430089 0.274966 0.912048 0.273903
O12   O     O_3   0.534923 0.778106 0.326987 -0.646117
C54   C     C_3   0.652869 0.759238 0.288456 0.102278
H46   H     H_    0.698959 0.703702 0.329390 0.153015
H47   H     H_    0.715080 0.819492 0.289404 0.117173
C55   C     C_3   0.634024 0.730283 0.185526 -0.316788
H48   H     H_    0.563345 0.675728 0.181627 0.250576
H49   H     H_    0.598283 0.788266 0.142848 0.211149
C56   C     C_3   0.755638 0.696730 0.143504 -0.953188
H50   H     H_    0.828813 0.749714 0.147718 0.262791
H51   H     H_    0.739392 0.678839 0.068049 0.257404
H52   H     H_    0.788691 0.635846 0.182401 0.302383

loop_
_geom_bond_atom_site_label_1
_geom_bond_atom_site_label_2
_ccdc_geom_bond_type
C49   C50   S    
C8    H22   S    
C48   H32   S    
C27   C29   A    
C47   H30   S    
C1    C11   S    
C32   H14   S    
C2    C12   S    
C16   H4    S    
C51   H40   S    
O12   C54   S    
C28   H12   S    
C43   H19   S    
C39   C41   A    
C20   C30   A    
C46   H27   S    
C44   H20   S    
C3    C43   A    
C1    O1    A    
C35   C37   A    
C25   H9    S    
C27   H11   S    
O7    Zn2   S    
C54   H46   S    
C5    C36   S    
C38   O10   S    
C40   H18   S    
C6    C35   S    
C15   C17   A    
C42   H2    S    
C53   H43   S    
C56   H52   S    
C20   H6    S    
C55   H48   S    
C7    C17   A    
C49   H35   S    
C52   H41   S    
C31   C33   A    
C15   H3    S    
C10   O12   S    
C40   C42   A    
C33   H15   S    
C34   H16   S    
C52   H42   S    
C37   O9    S    
C3    C24   S    
C2    O2    A    
C26   H10   S    
O1    Zn1   S    
C51   H39   S    
O9    C45   S    
C53   H44   S    
C46   H28   S    
C32   C42   A    
C39   H17   S    
C4    C6    A    
C4    C23   S    
O8    Zn1   S    
C24   O6    A    
C4    C44   A    
C54   H47   S    
C8    C18   A    
C21   N1    A    
C55   C56   S    
C32   C34   A    
C29   C30   S    
C7    H21   S    
C19   H5    S    
C50   H36   S    
C47   H31   S    
C9    O11   S    
C54   C55   S    
C49   H34   S    
C17   C18   S    
C16   C18   A    
C23   O7    A    
C9    C11   A    
C53   H45   S    
C56   H50   S    
C10   C12   A    
C24   O8    A    
C50   H37   S    
C5    C44   A    
C12   C14   A    
C48   C49   S    
C45   H26   S    
C6    C43   A    
C13   C15   A    
C26   N2    A    
C52   C53   S    
C14   C16   A    
C25   N1    A    
C20   C22   A    
C19   C29   A    
C21   H7    S    
C22   H8    S    
C13   H23   S    
C46   C47   S    
C7    C9    A    
C41   H1    S    
C31   C41   A    
C19   C21   A    
N2    Zn1   S    
O6    Zn2   S    
C23   O5    A    
C3    C5    A    
C2    O4    A    
C25   C27   A    
C45   C46   S    
C26   C28   A    
O4    Zn1   S    
C1    O3    A    
C31   H13   S    
C28   C30   A    
O2    Zn2   S    
C38   C40   A    
C11   C13   A    
C48   H33   S    
C36   C38   A    
O10   C48   S    
C33   C35   A    
O3    Zn2   S    
C34   C36   A    
C55   H49   S    
C56   H51   S    
C37   C39   A    
C50   H38   S    
C47   H29   S    
C8    C10   A    
C45   H25   S    
O11   C51   S    
C14   H24   S    
N1    Zn2   S    
O5    Zn1   S    
C22   N2    A    
C51   C52   S    
