data_mof_unit_49381.cif
_audit_creation_date              2012-10-26T21:10:40-0400
_audit_creation_method            fapswitch 2.2
_symmetry_space_group_name_H-M    P1
_symmetry_Int_Tables_number       1
_space_group_crystal_system       triclinic
_cell_length_a                    10.825595
_cell_length_b                    14.692592
_cell_length_c                    14.609481
_cell_angle_alpha                 64.950541
_cell_angle_beta                  103.40939
_cell_angle_gamma                 102.922706
_cell_volume                      2026.91735224

loop_
_atom_site_label
_atom_site_type_symbol
_atom_type_description
_atom_site_fract_x
_atom_site_fract_y
_atom_site_fract_z
_atom_type_partial_charge
C1    C     C_R   0.476371 0.119722 0.311424 0.602345
C2    C     C_R   0.549746 0.780944 0.976991 -0.058538
C3    C     C_R   0.369258 0.150071 0.130079 0.209582
C4    C     C_R   0.560877 0.848775 0.877027 0.159734
C5    C     C_R   0.500333 0.289905 0.170606 0.253215
C6    C     C_R   0.526243 0.706378 0.825903 0.272209
C7    C     C_R   0.448895 0.359982 0.074735 -0.035137
C8    C     C_R   0.497525 0.638340 0.924226 -0.029883
C9    C     C_R   0.378357 0.323024 0.999987 -0.034900
C10   C     C_R   0.518043 0.676180 0.001890 -0.052077
C11   C     C_R   0.466351 0.465465 0.051393 -0.063757
C12   C     C_R   0.526664 0.880029 0.688680 0.568777
C13   C     C_R   0.452006 0.533634 0.948005 -0.061621
C14   C     C_R   0.382464 0.496145 0.873124 0.387330
C15   C     C_R   0.484649 0.504033 0.128123 0.387562
C16   C     C_R   0.262828 0.999238 0.502252 0.543958
C17   C     C_R   0.737175 0.001015 0.497619 0.534991
C18   C     C_R   0.343803 0.391231 0.899119 0.270500
C19   C     C_R   0.508273 0.609079 0.103492 0.276577
C20   C     C_R   0.718812 0.286108 0.666039 -0.106278
C21   C     C_R   0.278505 0.712475 0.336239 -0.113494
C22   C     C_R   0.683713 0.204223 0.636837 0.041359
C23   C     C_R   0.870761 0.002042 0.495362 0.006081
C24   C     C_R   0.315648 0.795451 0.363697 0.036440
C25   C     C_R   0.516719 0.284295 0.510841 0.082677
C26   C     C_R   0.482501 0.715316 0.489795 0.081684
C27   C     C_R   0.547052 0.370588 0.537003 -0.034968
C28   C     C_R   0.449293 0.627497 0.466112 -0.036091
C29   C     C_R   0.651237 0.369955 0.616717 0.077542
C30   C     C_R   0.344308 0.627694 0.387084 0.081754
C31   C     C_R   0.478101 0.456264 0.487510 -0.033787
C32   C     C_R   0.516547 0.540921 0.517092 -0.029151
C33   C     C_R   0.620564 0.536244 0.597015 -0.114168
C34   C     C_R   0.129316 0.999837 0.503052 0.007741
C35   C     C_R   0.371440 0.459520 0.409912 -0.103061
C36   C     C_R   0.687143 0.452313 0.646731 0.246455
C37   C     C_R   0.305539 0.543802 0.359559 0.258046
C38   C     C_R   0.317781 0.055080 0.798942 0.288265
C39   C     C_R   0.646750 0.957433 0.212864 0.278113
C40   C     C_R   0.237059 0.016422 0.728886 -0.070540
C41   C     C_R   0.743153 0.992661 0.277280 -0.002688
C42   C     C_R   0.185647 0.082809 0.632134 0.017673
C43   C     C_R   0.812336 0.924454 0.363063 -0.001620
C44   C     C_R   0.215769 0.187993 0.605091 -0.111430
C45   C     C_R   0.906765 0.961401 0.435165 -0.030771
C46   C     C_R   0.786443 0.820508 0.382966 -0.116482
C47   C     C_R   0.297415 0.226407 0.673775 -0.149911
C48   C     C_R   0.689730 0.784805 0.319409 -0.134826
C49   C     C_R   0.348354 0.160271 0.770152 -0.010439
C50   C     C_R   0.618932 0.852559 0.235463 -0.081036
C51   C     C_R   0.963993 0.042858 0.557044 -0.140519
C52   C     C_R   0.035907 0.959464 0.440796 -0.135734
C53   C     C_R   0.093174 0.042292 0.561755 -0.026653
C54   C     C_R   0.449718 0.186656 0.202026 0.088240
C55   C     C_R   0.540310 0.811823 0.798713 0.014766
C56   C     C_R   0.340363 0.218124 0.028284 -0.091416
Cu1   Cu    Cu3+1 0.466270 0.918260 0.475690 1.017507
Cu2   Cu    Cu3+1 0.533730 0.081740 0.524310 0.991518
F1    F     F_    0.338460 0.561496 0.777994 -0.606804
F2    F     F_    0.465574 0.440403 0.224970 -0.641620
H1    H     H_    0.410570 0.190863 0.823155 0.165750
H2    H     H_    0.198216 0.715069 0.275499 0.169801
H3    H     H_    0.652642 0.596893 0.623447 0.101548
H4    H     H_    0.336139 0.397122 0.386357 0.128121
H5    H     H_    0.212134 0.935201 0.750194 0.096627
H6    H     H_    0.762861 0.073099 0.261455 0.130656
H7    H     H_    0.175789 0.240048 0.531015 0.122723
H8    H     H_    0.838562 0.767023 0.449198 0.128603
H9    H     H_    0.320450 0.307600 0.652616 0.141918
H10   H     H_    0.668311 0.704294 0.336348 0.151304
H11   H     H_    0.936108 0.073254 0.604027 0.132935
H12   H     H_    0.542179 0.823565 0.188485 0.152354
H13   H     H_    0.063642 0.929070 0.393767 0.139408
H14   H     H_    0.801676 0.512579 0.737533 0.330230
H15   H     H_    0.188170 0.481936 0.271259 0.340951
H16   H     H_    0.333292 0.920901 0.905336 0.329439
H17   H     H_    0.517019 0.990053 0.091750 0.360806
H18   H     H_    0.261142 0.409640 0.759489 0.378785
H19   H     H_    0.523418 0.591953 0.245704 0.372926
H20   H     H_    0.588686 0.607483 0.798730 0.322541
H21   H     H_    0.656044 0.380985 0.188157 0.334254
H22   H     H_    0.666627 0.975762 0.818248 0.327494
H23   H     H_    0.283259 0.188990 0.972468 0.173538
H24   H     H_    0.266799 0.035590 0.100489 0.326434
H25   H     H_    0.567359 0.811356 0.035302 0.197764
H26   H     H_    0.561600 0.723056 0.547170 0.158116
H27   H     H_    0.439664 0.277687 0.451630 0.155234
H28   H     H_    0.264482 0.860314 0.324686 0.162265
H29   H     H_    0.735764 0.139839 0.675102 0.118097
H30   H     H_    0.798639 0.283253 0.727179 0.177165
N1    N     N_R   0.584450 0.204570 0.560790 -0.231769
N2    N     N_R   0.415550 0.795430 0.439210 -0.235445
O1    O     O_R   0.455540 0.022090 0.338120 -0.456855
O2    O     O_3   0.202522 0.545707 0.282548 -0.693260
O3    O     O_3   0.365760 0.992424 0.896216 -0.676426
O4    O     O_3   0.581325 0.026859 0.129295 -0.667057
O5    O     O_3   0.272912 0.353492 0.827620 -0.715372
O6    O     O_3   0.524212 0.647948 0.177349 -0.733316
O7    O     O_3   0.554470 0.672777 0.758823 -0.649780
O8    O     O_3   0.606009 0.318636 0.231777 -0.626985
O9    O     O_3   0.596600 0.949878 0.860024 -0.649691
O10   O     O_3   0.320247 0.048228 0.160124 -0.687163
O11   O     O_R   0.544460 0.977910 0.661880 -0.508793
O12   O     O_R   0.512510 0.160150 0.379180 -0.450229
O13   O     O_R   0.487490 0.839850 0.620820 -0.428755
O14   O     O_R   0.291160 0.930970 0.479480 -0.510275
O15   O     O_R   0.708840 0.069030 0.520520 -0.513816
O16   O     O_R   0.348130 0.069020 0.520540 -0.508531
O17   O     O_R   0.651870 0.930980 0.479460 -0.512297
O18   O     O_3   0.788455 0.449452 0.725216 -0.695213

loop_
_geom_bond_atom_site_label_1
_geom_bond_atom_site_label_2
_ccdc_geom_bond_type
Cu1   O13   S    
C8    C13   A    
C23   C45   A    
Cu1   N2    S    
C27   C29   A    
H24   O10   S    
C15   F2    S    
C14   C18   A    
H19   O6    S    
C6    C55   A    
C39   C41   A    
C38   C49   A    
C7    C11   A    
C14   F1    S    
C29   C36   A    
C17   C23   S    
C51   H11   S    
C35   C37   A    
C17   O15   A    
C42   C53   S    
C12   O13   A    
C3    C54   A    
C26   N2    A    
C25   H27   S    
C33   C36   A    
C2    H25   S    
Cu2   O15   S    
C50   H12   S    
C47   H9    S    
C16   C34   S    
C15   C19   A    
C11   C15   A    
H22   O9    S    
Cu1   O17   S    
C38   O3    S    
C22   N1    A    
C35   H4    S    
C18   O5    S    
Cu2   N1    S    
C44   C47   A    
C16   O14   A    
C40   C42   A    
Cu1   O14   S    
Cu1   O1    S    
C13   C14   A    
C41   C43   A    
C42   C44   A    
C24   N2    A    
C19   O6    S    
C20   C29   A    
C46   C48   A    
C33   H3    S    
C25   N1    A    
C49   H1    S    
C27   C31   A    
C5    C54   A    
C28   C32   A    
C12   O11   A    
C47   C49   A    
C52   H13   S    
C4    C55   A    
C5    C7    A    
C6    C8    A    
C45   C52   A    
C20   H30   S    
C30   C37   A    
C51   C53   A    
C2    C4    A    
C1    C54   S    
C46   H8    S    
C43   C45   S    
C3    C56   A    
C23   C51   A    
C31   C32   A    
C5    O8    S    
C10   C19   A    
C26   H26   S    
C4    O9    S    
H18   O5    S    
C9    C56   A    
C24   H28   S    
C1    O12   A    
C21   H2    S    
C3    O10   S    
C1    O1    A    
C20   C22   A    
C40   H5    S    
H20   O7    S    
C36   O18   S    
C31   C35   A    
Cu2   O12   S    
C2    C10   A    
C56   H23   S    
C7    C9    A    
C26   C28   A    
C48   H10   S    
C17   O17   A    
H14   O18   S    
C41   H6    S    
H21   O8    S    
C25   C27   A    
C21   C30   A    
H17   O4    S    
C34   C52   A    
C6    O7    S    
C28   C30   A    
H16   O3    S    
C32   C33   A    
C38   C40   A    
C11   C13   A    
Cu1   Cu2   S    
C48   C50   A    
C22   H29   S    
C37   O2    S    
Cu2   O16   S    
C43   C46   A    
C39   O4    S    
C12   C55   S    
C16   O16   A    
C9    C18   A    
C39   C50   A    
C34   C53   A    
C8    C10   A    
C21   C24   A    
C44   H7    S    
Cu2   O11   S    
H15   O2    S    
