data_mof_unit_61208.cif
_audit_creation_date              2012-12-10T17:31:38-0500
_audit_creation_method            fapswitch 2.2
_symmetry_space_group_name_H-M    P1
_symmetry_Int_Tables_number       1
_space_group_crystal_system       monoclinic
_cell_length_a                    21.545808
_cell_length_b                    21.549176
_cell_length_c                    47.23494
_cell_angle_alpha                 90.0
_cell_angle_beta                  90.0
_cell_angle_gamma                 89.770567
_cell_volume                      21930.7427052

loop_
_atom_site_label
_atom_site_type_symbol
_atom_type_description
_atom_site_fract_x
_atom_site_fract_y
_atom_site_fract_z
_atom_type_partial_charge
C1    C     C_R   0.999995 0.120350 0.000141 0.789189
C2    C     C_R   0.879683 0.001020 0.000120 0.798772
C3    C     C_R   0.000005 0.879650 0.000141 0.789190
C4    C     C_R   0.120317 0.998980 0.000120 0.798771
C5    C     C_R   0.499995 0.620350 0.500141 0.789189
C6    C     C_R   0.379683 0.501020 0.500120 0.798771
C7    C     C_R   0.500005 0.379650 0.500141 0.789189
C8    C     C_R   0.620317 0.498980 0.500120 0.798771
C9    C     C_3   0.189304 0.998532 0.999898 0.089210
C10   C     C_3   0.000481 0.189368 0.000515 0.077177
C11   C     C_3   0.810696 0.001468 0.999898 0.089210
C12   C     C_3   0.999519 0.810632 0.000515 0.077176
C13   C     C_3   0.689304 0.498532 0.499898 0.089209
C14   C     C_3   0.500481 0.689368 0.500515 0.077176
C15   C     C_3   0.310695 0.501468 0.499898 0.089209
C16   C     C_3   0.499519 0.310632 0.500515 0.077176
C17   C     C_3   0.310912 0.000067 0.999305 0.096080
C18   C     C_3   0.000330 0.310964 0.001085 0.097001
C19   C     C_3   0.689088 0.999933 0.999305 0.096081
C20   C     C_3   0.999670 0.689036 0.001085 0.097002
C21   C     C_3   0.810912 0.500067 0.499305 0.096079
C22   C     C_3   0.500330 0.810964 0.501085 0.097000
C23   C     C_3   0.189088 0.499933 0.499305 0.096079
C24   C     C_3   0.499670 0.189036 0.501085 0.096999
C25   C     C_3   0.286209 0.950977 0.978090 -0.412102
C26   C     C_3   0.060891 0.285186 0.014694 -0.394293
C27   C     C_3   0.713791 0.049023 0.978090 -0.412103
C28   C     C_3   0.939109 0.714814 0.014694 -0.394296
C29   C     C_3   0.786209 0.450977 0.478090 -0.412104
C30   C     C_3   0.560891 0.785186 0.514694 -0.394294
C31   C     C_3   0.213791 0.549023 0.478090 -0.412104
C32   C     C_3   0.439108 0.214814 0.514694 -0.394294
C33   C     C_3   0.284193 0.064630 0.990821 -0.365569
C34   C     C_3   0.996442 0.287365 0.970281 -0.411556
C35   C     C_3   0.715807 0.935369 0.990821 -0.365569
C36   C     C_3   0.003557 0.712635 0.970281 -0.411556
C37   C     C_3   0.784193 0.564630 0.490821 -0.365571
C38   C     C_3   0.496442 0.787365 0.470281 -0.411553
C39   C     C_3   0.215807 0.435370 0.490821 -0.365571
C40   C     C_3   0.503558 0.212635 0.470281 -0.411553
C41   C     C_R   0.500000 1.000000 0.145587 0.347270
C42   C     C_R   0.000000 0.500000 0.145590 0.347245
C43   C     C_R   0.000000 0.500000 0.645587 0.347276
C44   C     C_R   0.500000 1.000000 0.645590 0.347250
C45   C     C_R   0.000000 0.500000 0.854609 0.347932
C46   C     C_R   0.500000 0.000000 0.854612 0.348202
C47   C     C_R   0.500000 0.000000 0.354609 0.347937
C48   C     C_R   1.000000 0.500000 0.354612 0.348209
C49   C     C_R   0.419775 0.079512 0.235315 -0.164686
C50   C     C_R   0.079605 0.419867 0.235318 -0.164321
C51   C     C_R   0.580225 0.920488 0.235315 -0.164686
C52   C     C_R   0.920395 0.580132 0.235318 -0.164321
C53   C     C_R   0.919748 0.579484 0.735315 -0.164688
C54   C     C_R   0.579578 0.919841 0.735318 -0.164322
C55   C     C_R   0.080252 0.420516 0.735315 -0.164688
C56   C     C_R   0.420421 0.080159 0.735318 -0.164322
C57   C     C_R   0.945676 0.485833 0.869621 -0.104680
C58   C     C_R   0.485892 0.945668 0.869624 -0.105751
C59   C     C_R   0.054323 0.514167 0.869621 -0.104680
C60   C     C_R   0.514108 0.054332 0.869624 -0.105752
C61   C     C_R   0.445673 0.985848 0.369621 -0.104682
C62   C     C_R   0.985904 0.445665 0.369624 -0.105754
C63   C     C_R   0.554327 0.014152 0.369621 -0.104682
C64   C     C_R   0.014095 0.554335 0.369624 -0.105754
C65   C     C_R   0.460049 0.038596 0.190431 0.530091
C66   C     C_R   0.038642 0.460094 0.190434 0.530628
C67   C     C_R   0.539950 0.961404 0.190431 0.530092
C68   C     C_R   0.961358 0.539906 0.190434 0.530627
C69   C     C_R   0.960036 0.538582 0.690431 0.530093
C70   C     C_R   0.538629 0.960081 0.690434 0.530627
C71   C     C_R   0.039964 0.461418 0.690431 0.530093
C72   C     C_R   0.461371 0.039919 0.690434 0.530628
C73   C     C_R   0.945549 0.486159 0.899198 -0.222562
C74   C     C_R   0.486220 0.945540 0.899201 -0.223730
C75   C     C_R   0.054451 0.513841 0.899198 -0.222563
C76   C     C_R   0.513780 0.054460 0.899201 -0.223730
C77   C     C_R   0.445545 0.986173 0.399198 -0.222561
C78   C     C_R   0.986231 0.445537 0.399201 -0.223729
C79   C     C_R   0.554455 0.013827 0.399198 -0.222562
C80   C     C_R   0.013769 0.554463 0.399201 -0.223729
C81   C     C_R   0.500000 0.000000 0.235125 -0.018004
C82   C     C_R   1.000000 0.500000 0.235128 -0.017952
C83   C     C_R   1.000000 0.500000 0.735125 -0.018002
C84   C     C_R   0.500000 1.000000 0.735128 -0.017951
C85   C     C_R   0.000000 0.500000 0.914294 -0.042070
C86   C     C_R   0.500000 0.000000 0.914296 -0.039456
C87   C     C_R   0.500000 1.000000 0.414294 -0.042075
C88   C     C_R   0.000000 0.500000 0.414295 -0.039461
C89   C     C_R   0.500000 0.000000 0.054608 0.797382
C90   C     C_R   0.000000 0.500000 0.054611 0.790013
C91   C     C_R   0.000000 0.500000 0.554608 0.797384
C92   C     C_R   0.500000 1.000000 0.554611 0.790015
C93   C     C_R   0.379859 0.000173 0.999394 0.778987
C94   C     C_R   0.000072 0.379884 0.001024 0.779230
C95   C     C_R   0.620141 0.999826 0.999394 0.778987
C96   C     C_R   0.999927 0.620116 0.001024 0.779229
C97   C     C_R   0.879859 0.500174 0.499394 0.778989
C98   C     C_R   0.500072 0.879884 0.501024 0.779233
C99   C     C_R   0.120141 0.499826 0.499394 0.778989
C100  C     C_R   0.499927 0.120116 0.501024 0.779232
C101  C     C_R   0.500000 1.000000 0.945587 0.789906
C102  C     C_R   1.000000 0.500000 0.945587 0.798444
C103  C     C_R   1.000000 0.500000 0.445587 0.789909
C104  C     C_R   0.500000 1.000000 0.445587 0.798445
C105  C     C_R   0.486082 0.945619 0.130575 -0.104017
C106  C     C_R   0.054373 0.513977 0.130578 -0.102621
C107  C     C_R   0.513918 0.054381 0.130575 -0.104017
C108  C     C_R   0.945627 0.486022 0.130578 -0.102622
C109  C     C_R   0.986098 0.445615 0.630575 -0.104020
C110  C     C_R   0.554377 0.013961 0.630578 -0.102624
C111  C     C_R   0.013902 0.554385 0.630575 -0.104020
C112  C     C_R   0.445622 0.986039 0.630578 -0.102624
C113  C     C_R   0.486407 0.945493 0.100998 -0.221635
C114  C     C_R   0.054499 0.513654 0.101001 -0.219406
C115  C     C_R   0.513592 0.054507 0.100998 -0.221636
C116  C     C_R   0.945500 0.486346 0.101001 -0.219405
C117  C     C_R   0.986422 0.445489 0.600998 -0.221636
C118  C     C_R   0.554504 0.013637 0.601002 -0.219406
C119  C     C_R   0.013577 0.554511 0.600998 -0.221636
C120  C     C_R   0.445496 0.986362 0.601002 -0.219406
C121  C     C_R   0.038789 0.460237 0.809764 0.529489
C122  C     C_R   0.460190 0.038741 0.809767 0.529308
C123  C     C_R   0.961211 0.539763 0.809764 0.529489
C124  C     C_R   0.539810 0.961259 0.809767 0.529309
C125  C     C_R   0.538775 0.960224 0.309764 0.529490
C126  C     C_R   0.960178 0.538729 0.309767 0.529310
C127  C     C_R   0.461225 0.039776 0.309764 0.529490
C128  C     C_R   0.039822 0.461271 0.309767 0.529310
C129  C     C_R   0.960040 0.540172 0.780006 -0.014059
C130  C     C_R   0.540220 0.960088 0.780008 -0.014026
C131  C     C_R   0.039960 0.459828 0.780006 -0.014059
C132  C     C_R   0.459780 0.039912 0.780008 -0.014026
C133  C     C_R   0.460054 0.040186 0.280006 -0.014058
C134  C     C_R   0.040233 0.460101 0.280008 -0.014027
C135  C     C_R   0.539946 0.959814 0.280006 -0.014059
C136  C     C_R   0.959767 0.539899 0.280008 -0.014027
C137  C     C_R   0.000000 0.500000 0.765070 -0.017953
C138  C     C_R   0.500000 1.000000 0.765073 -0.017900
C139  C     C_R   0.500000 0.000000 0.265070 -0.017953
C140  C     C_R   1.000000 0.500000 0.265073 -0.017899
C141  C     C_R   0.500000 0.000000 0.085902 -0.043113
C142  C     C_R   0.000000 0.500000 0.085905 -0.039023
C143  C     C_R   1.000000 0.500000 0.585902 -0.043118
C144  C     C_R   0.500000 1.000000 0.585905 -0.039028
C145  C     C_R   0.920100 0.579838 0.764880 -0.164981
C146  C     C_R   0.579933 0.920195 0.764883 -0.165035
C147  C     C_R   0.079900 0.420162 0.764880 -0.164982
C148  C     C_R   0.420067 0.079805 0.764883 -0.165035
C149  C     C_R   0.420128 0.079866 0.264880 -0.164982
C150  C     C_R   0.079959 0.420221 0.264883 -0.165036
C151  C     C_R   0.579872 0.920134 0.264880 -0.164982
C152  C     C_R   0.920041 0.579779 0.264883 -0.165036
C153  C     C_R   0.459634 0.039765 0.220190 -0.014004
C154  C     C_R   0.039812 0.459680 0.220193 -0.014242
C155  C     C_R   0.540366 0.960235 0.220190 -0.014004
C156  C     C_R   0.960188 0.540320 0.220193 -0.014242
C157  C     C_R   0.959620 0.539751 0.720190 -0.014006
C158  C     C_R   0.539798 0.959667 0.720193 -0.014243
C159  C     C_R   0.040379 0.460249 0.720190 -0.014006
C160  C     C_R   0.460202 0.040333 0.720193 -0.014243
C161  C     C_3   0.215929 0.984122 0.029864 -0.329636
C162  C     C_3   0.942823 0.213947 0.016720 -0.352308
C163  C     C_3   0.784071 0.015878 0.029864 -0.329636
C164  C     C_3   0.057176 0.786052 0.016720 -0.352309
C165  C     C_3   0.715929 0.484122 0.529864 -0.329635
C166  C     C_3   0.442823 0.713947 0.516721 -0.352307
C167  C     C_3   0.284071 0.515878 0.529864 -0.329635
C168  C     C_3   0.557176 0.286052 0.516721 -0.352307
C169  C     C_3   0.287365 0.983471 0.029261 -0.396534
C170  C     C_3   0.943964 0.285397 0.017959 -0.378158
C171  C     C_3   0.712635 0.016529 0.029261 -0.396534
C172  C     C_3   0.056036 0.714603 0.017959 -0.378159
C173  C     C_3   0.787364 0.483471 0.529261 -0.396531
C174  C     C_3   0.443964 0.785397 0.517959 -0.378159
C175  C     C_3   0.212635 0.516529 0.529261 -0.396531
C176  C     C_3   0.556036 0.214603 0.517959 -0.378158
C177  C     C_3   0.214252 0.949497 0.978392 0.381174
C178  C     C_3   0.060293 0.213292 0.015491 0.378211
C179  C     C_3   0.785748 0.050503 0.978392 0.381174
C180  C     C_3   0.939706 0.786707 0.015491 0.378211
C181  C     C_3   0.714252 0.449497 0.478392 0.381174
C182  C     C_3   0.560294 0.713292 0.515491 0.378211
C183  C     C_3   0.285748 0.550503 0.478392 0.381174
C184  C     C_3   0.439706 0.286707 0.515491 0.378212
C185  C     C_3   0.212717 0.063264 0.990611 -0.512823
C186  C     C_3   0.998433 0.215962 0.969827 -0.454820
C187  C     C_3   0.787283 0.936736 0.990611 -0.512822
C188  C     C_3   0.001567 0.784038 0.969827 -0.454819
C189  C     C_3   0.712717 0.563264 0.490611 -0.512823
C190  C     C_3   0.498433 0.715962 0.469826 -0.454820
C191  C     C_3   0.287283 0.436736 0.490611 -0.512822
C192  C     C_3   0.501567 0.284038 0.469826 -0.454820
Cu1   Cu    Cu3+1 1.000000 0.000000 0.028260 0.988474
Cu2   Cu    Cu3+1 0.500000 0.500000 0.528260 0.988477
Cu3   Cu    Cu3+1 1.000000 0.000000 0.971980 0.926497
Cu4   Cu    Cu3+1 0.500000 0.500000 0.471980 0.926499
Cu5   Cu    Cu3+1 0.499870 0.062530 0.000100 0.936020
Cu6   Cu    Cu3+1 0.937470 0.499870 0.000100 0.934759
Cu7   Cu    Cu3+1 0.500130 0.937470 0.000100 0.936020
Cu8   Cu    Cu3+1 0.062530 0.500130 0.000100 0.934759
Cu9   Cu    Cu3+1 0.999870 0.562530 0.500100 0.936016
Cu10  Cu    Cu3+1 0.437470 0.999870 0.500100 0.934755
Cu11  Cu    Cu3+1 0.000130 0.437470 0.500100 0.936016
Cu12  Cu    Cu3+1 0.562530 0.000130 0.500100 0.934756
H1    H     H_    0.888854 0.611179 0.775825 0.188300
H2    H     H_    0.611311 0.888985 0.775828 0.188277
H3    H     H_    0.111146 0.388821 0.775825 0.188300
H4    H     H_    0.388689 0.111015 0.775828 0.188277
H5    H     H_    0.388892 0.111218 0.275825 0.188300
H6    H     H_    0.111348 0.389021 0.275828 0.188277
H7    H     H_    0.611108 0.888782 0.275825 0.188300
H8    H     H_    0.888652 0.610978 0.275828 0.188277
H9    H     H_    0.299927 0.100708 0.006056 0.191016
H10   H     H_    0.952672 0.303974 0.960241 0.177985
H11   H     H_    0.700072 0.899292 0.006056 0.191016
H12   H     H_    0.047328 0.696026 0.960241 0.177985
H13   H     H_    0.799927 0.600708 0.506055 0.191016
H14   H     H_    0.452671 0.803974 0.460241 0.177986
H15   H     H_    0.200072 0.399292 0.506055 0.191016
H16   H     H_    0.547329 0.196026 0.460241 0.177986
H17   H     H_    0.301429 0.077985 0.969467 0.171909
H18   H     H_    0.035741 0.306001 0.957603 0.172837
H19   H     H_    0.698571 0.922015 0.969467 0.171909
H20   H     H_    0.964258 0.693999 0.957603 0.172837
H21   H     H_    0.801429 0.577985 0.469467 0.171909
H22   H     H_    0.535741 0.806001 0.457603 0.172837
H23   H     H_    0.198571 0.422015 0.469467 0.171909
H24   H     H_    0.464259 0.193998 0.457603 0.172837
H25   H     H_    0.197366 0.963452 0.956892 0.082378
H26   H     H_    0.100941 0.195126 0.003221 0.028361
H27   H     H_    0.802633 0.036548 0.956892 0.082379
H28   H     H_    0.899059 0.804874 0.003221 0.028361
H29   H     H_    0.697367 0.463451 0.456892 0.082380
H30   H     H_    0.600941 0.695125 0.503221 0.028360
H31   H     H_    0.302633 0.536548 0.456892 0.082380
H32   H     H_    0.399059 0.304874 0.503221 0.028360
H33   H     H_    0.302793 0.962057 0.956356 0.113096
H34   H     H_    0.102045 0.300573 0.002339 0.141544
H35   H     H_    0.697207 0.037943 0.956356 0.113096
H36   H     H_    0.897955 0.699427 0.002339 0.141545
H37   H     H_    0.802793 0.462056 0.456356 0.113099
H38   H     H_    0.602045 0.800573 0.502338 0.141543
H39   H     H_    0.197207 0.537943 0.456356 0.113099
H40   H     H_    0.397955 0.199427 0.502338 0.141543
H41   H     H_    0.903499 0.474378 0.858340 0.147614
H42   H     H_    0.474482 0.903484 0.858343 0.147645
H43   H     H_    0.096501 0.525622 0.858340 0.147614
H44   H     H_    0.525518 0.096516 0.858343 0.147645
H45   H     H_    0.403492 0.974404 0.358340 0.147610
H46   H     H_    0.974504 0.403479 0.358343 0.147640
H47   H     H_    0.596508 0.025596 0.358340 0.147610
H48   H     H_    0.025496 0.596521 0.358343 0.147641
H49   H     H_    0.902975 0.474991 0.910230 0.159366
H50   H     H_    0.475095 0.902962 0.910234 0.159381
H51   H     H_    0.097025 0.525009 0.910230 0.159366
H52   H     H_    0.524905 0.097037 0.910234 0.159381
H53   H     H_    0.402968 0.975016 0.410230 0.159370
H54   H     H_    0.975116 0.402957 0.410234 0.159384
H55   H     H_    0.597032 0.024984 0.410230 0.159370
H56   H     H_    0.024884 0.597043 0.410234 0.159384
H57   H     H_    0.388283 0.110606 0.224371 0.188342
H58   H     H_    0.110736 0.388411 0.224373 0.188482
H59   H     H_    0.611717 0.889394 0.224371 0.188342
H60   H     H_    0.889264 0.611589 0.224373 0.188482
H61   H     H_    0.888245 0.610567 0.724371 0.188342
H62   H     H_    0.610699 0.888374 0.724374 0.188482
H63   H     H_    0.111755 0.389433 0.724371 0.188342
H64   H     H_    0.389301 0.111626 0.724374 0.188482
H65   H     H_    0.474821 0.903395 0.141856 0.148279
H66   H     H_    0.096591 0.525283 0.141860 0.148203
H67   H     H_    0.525179 0.096605 0.141856 0.148279
H68   H     H_    0.903409 0.474716 0.141860 0.148202
H69   H     H_    0.974849 0.403388 0.641856 0.148275
H70   H     H_    0.596598 0.025253 0.641860 0.148201
H71   H     H_    0.025151 0.596611 0.641856 0.148275
H72   H     H_    0.403401 0.974747 0.641860 0.148201
H73   H     H_    0.475433 0.902874 0.089966 0.160557
H74   H     H_    0.097114 0.524672 0.089971 0.160137
H75   H     H_    0.524567 0.097126 0.089966 0.160557
H76   H     H_    0.902886 0.475328 0.089971 0.160137
H77   H     H_    0.975460 0.402867 0.589966 0.160561
H78   H     H_    0.597122 0.024642 0.589971 0.160141
H79   H     H_    0.024540 0.597132 0.589966 0.160561
H80   H     H_    0.402878 0.975357 0.589971 0.160141
H81   H     H_    0.198747 0.938444 0.037486 0.197535
H82   H     H_    0.941426 0.195069 0.038633 0.212922
H83   H     H_    0.801253 0.061556 0.037486 0.197535
H84   H     H_    0.058574 0.804931 0.038633 0.212922
H85   H     H_    0.698747 0.438444 0.537486 0.197535
H86   H     H_    0.441426 0.695069 0.538633 0.212922
H87   H     H_    0.301253 0.561556 0.537486 0.197535
H88   H     H_    0.558573 0.304931 0.538633 0.212922
H89   H     H_    0.199974 0.019920 0.045255 0.167351
H90   H     H_    0.899772 0.198286 0.005984 0.180007
H91   H     H_    0.800026 0.980080 0.045255 0.167351
H92   H     H_    0.100228 0.801714 0.005984 0.180007
H93   H     H_    0.699974 0.519920 0.545255 0.167351
H94   H     H_    0.399772 0.698286 0.505984 0.180007
H95   H     H_    0.300026 0.480080 0.545255 0.167351
H96   H     H_    0.600228 0.301714 0.505984 0.180007
H97   H     H_    0.305502 0.017326 0.044996 0.161399
H98   H     H_    0.899630 0.303552 0.009077 0.182454
H99   H     H_    0.694498 0.982673 0.044996 0.161399
H100  H     H_    0.100370 0.696448 0.009077 0.182455
H101  H     H_    0.805502 0.517327 0.544996 0.161399
H102  H     H_    0.399630 0.803552 0.509077 0.182455
H103  H     H_    0.194498 0.482673 0.544996 0.161399
H104  H     H_    0.600370 0.196448 0.509077 0.182455
H105  H     H_    0.304598 0.936684 0.035544 0.181299
H106  H     H_    0.946754 0.300899 0.040400 0.172547
H107  H     H_    0.695402 0.063316 0.035544 0.181299
H108  H     H_    0.053247 0.699101 0.040400 0.172548
H109  H     H_    0.804598 0.436684 0.535544 0.181300
H110  H     H_    0.446754 0.800899 0.540400 0.172551
H111  H     H_    0.195401 0.563316 0.535544 0.181300
H112  H     H_    0.553246 0.199101 0.540400 0.172550
H113  H     H_    0.304892 0.904253 0.983548 0.207425
H114  H     H_    0.066015 0.304371 0.036454 0.185340
H115  H     H_    0.695108 0.095747 0.983548 0.207425
H116  H     H_    0.933986 0.695629 0.036455 0.185339
H117  H     H_    0.804892 0.404253 0.483548 0.207426
H118  H     H_    0.566015 0.804371 0.536454 0.185339
H119  H     H_    0.195108 0.595747 0.483548 0.207426
H120  H     H_    0.433985 0.195629 0.536454 0.185340
H121  H     H_    0.195539 0.074529 0.968978 0.174889
H122  H     H_    0.040054 0.200284 0.957788 0.176166
H123  H     H_    0.804461 0.925471 0.968978 0.174889
H124  H     H_    0.959946 0.799716 0.957788 0.176166
H125  H     H_    0.695539 0.574529 0.468978 0.174890
H126  H     H_    0.540053 0.700284 0.457788 0.176167
H127  H     H_    0.304461 0.425471 0.468978 0.174890
H128  H     H_    0.459947 0.299716 0.457788 0.176167
H129  H     H_    0.194475 0.099691 0.005054 0.166679
H130  H     H_    0.956753 0.198465 0.958471 0.192165
H131  H     H_    0.805525 0.900309 0.005054 0.166679
H132  H     H_    0.043246 0.801535 0.958471 0.192165
H133  H     H_    0.694475 0.599691 0.505054 0.166679
H134  H     H_    0.456753 0.698465 0.458471 0.192165
H135  H     H_    0.305525 0.400309 0.505054 0.166679
H136  H     H_    0.543247 0.301535 0.458471 0.192165
N1    N     N_R   0.500000 1.000000 0.176123 -0.466043
N2    N     N_R   1.000000 0.500000 0.176126 -0.466261
N3    N     N_R   0.000000 0.500000 0.676123 -0.466043
N4    N     N_R   0.500000 1.000000 0.676126 -0.466261
N5    N     N_R   1.000000 0.500000 0.824073 -0.466117
N6    N     N_R   0.500000 1.000000 0.824076 -0.466039
N7    N     N_R   0.500000 0.000000 0.324073 -0.466119
N8    N     N_R   0.000000 0.500000 0.324076 -0.466040
O1    O     O_R   0.999860 0.091180 0.023880 -0.543842
O2    O     O_R   0.908820 0.999860 0.023880 -0.593757
O3    O     O_R   0.000140 0.908820 0.023880 -0.543841
O4    O     O_R   0.091180 0.000140 0.023880 -0.593757
O5    O     O_R   0.499860 0.591180 0.523880 -0.543842
O6    O     O_R   0.408820 0.499860 0.523880 -0.593757
O7    O     O_R   0.500140 0.408820 0.523880 -0.543842
O8    O     O_R   0.591180 0.500140 0.523880 -0.593757
O9    O     O_R   0.999880 0.091240 0.976350 -0.604419
O10   O     O_R   0.908760 0.999880 0.976350 -0.601924
O11   O     O_R   0.000120 0.908760 0.976350 -0.604420
O12   O     O_R   0.091240 0.000120 0.976350 -0.601924
O13   O     O_R   0.499880 0.591240 0.476350 -0.604419
O14   O     O_R   0.408760 0.499880 0.476350 -0.601924
O15   O     O_R   0.500120 0.408760 0.476350 -0.604419
O16   O     O_R   0.591240 0.500120 0.476350 -0.601924
O17   O     O_2   0.075696 0.420741 0.824270 -0.544456
O18   O     O_2   0.420648 0.075601 0.824273 -0.544863
O19   O     O_2   0.924304 0.579259 0.824270 -0.544456
O20   O     O_2   0.579352 0.924399 0.824273 -0.544863
O21   O     O_2   0.575669 0.920715 0.324270 -0.544455
O22   O     O_2   0.920625 0.575576 0.324273 -0.544862
O23   O     O_2   0.424331 0.079285 0.324270 -0.544455
O24   O     O_2   0.079375 0.424424 0.324273 -0.544862
O25   O     O_2   0.420374 0.075312 0.175926 -0.544353
O26   O     O_2   0.075403 0.420462 0.175929 -0.542742
O27   O     O_2   0.579626 0.924688 0.175926 -0.544354
O28   O     O_2   0.924597 0.579538 0.175929 -0.542742
O29   O     O_2   0.920349 0.575284 0.675926 -0.544354
O30   O     O_2   0.575376 0.920437 0.675929 -0.542741
O31   O     O_2   0.079651 0.424716 0.675926 -0.544354
O32   O     O_2   0.424623 0.079563 0.675929 -0.542741
O33   O     O_R   0.499860 0.052830 0.041160 -0.584758
O34   O     O_R   0.947170 0.499860 0.041160 -0.587621
O35   O     O_R   0.500140 0.947170 0.041160 -0.584758
O36   O     O_R   0.052830 0.500140 0.041160 -0.587621
O37   O     O_R   0.999860 0.552830 0.541160 -0.584760
O38   O     O_R   0.447170 0.999860 0.541160 -0.587623
O39   O     O_R   0.000140 0.447170 0.541160 -0.584759
O40   O     O_R   0.552830 0.000140 0.541160 -0.587623
O41   O     O_R   0.408720 0.052800 0.000100 -0.590104
O42   O     O_R   0.947200 0.408720 0.000100 -0.593080
O43   O     O_R   0.591280 0.947200 0.000100 -0.590104
O44   O     O_R   0.052800 0.591280 0.000100 -0.593080
O45   O     O_R   0.908720 0.552800 0.500100 -0.590105
O46   O     O_R   0.447200 0.908720 0.500100 -0.593078
O47   O     O_R   0.091280 0.447200 0.500100 -0.590105
O48   O     O_R   0.552800 0.091280 0.500100 -0.593078
O49   O     O_R   0.408730 0.947290 0.000130 -0.592750
O50   O     O_R   0.052710 0.408730 0.000130 -0.589231
O51   O     O_R   0.591270 0.052710 0.000130 -0.592750
O52   O     O_R   0.947290 0.591270 0.000130 -0.589231
O53   O     O_R   0.908730 0.447290 0.500130 -0.592749
O54   O     O_R   0.552710 0.908730 0.500130 -0.589232
O55   O     O_R   0.091270 0.552710 0.500130 -0.592749
O56   O     O_R   0.447290 0.091270 0.500130 -0.589233
O57   O     O_R   0.499890 0.052800 0.959040 -0.587443
O58   O     O_R   0.947200 0.499890 0.959040 -0.585057
O59   O     O_R   0.500110 0.947200 0.959040 -0.587443
O60   O     O_R   0.052800 0.500110 0.959040 -0.585057
O61   O     O_R   0.999890 0.552800 0.459040 -0.587445
O62   O     O_R   0.447200 0.999890 0.459040 -0.585059
O63   O     O_R   0.000110 0.447200 0.459040 -0.587445
O64   O     O_R   0.552800 0.000110 0.459040 -0.585059
O65   O     O_3   0.193031 0.889509 0.986116 -0.590480
C193  C     C_3   0.186128 0.851923 0.961845 -0.382627
H137  H     H_    0.229008 0.851211 0.948707 0.167019
H138  H     H_    0.145815 0.867848 0.949027 0.173762
H139  H     H_    0.177011 0.803570 0.968656 0.188655
O66   O     O_3   0.061160 0.192920 0.044107 -0.557748
C194  C     C_3   0.122628 0.184013 0.053587 -0.308705
H140  H     H_    0.152505 0.224774 0.048907 0.147664
H141  H     H_    0.142600 0.141258 0.044113 0.151692
H142  H     H_    0.121929 0.177618 0.076882 0.200792
O67   O     O_3   0.806969 0.110491 0.986116 -0.590480
C195  C     C_3   0.813872 0.148077 0.961845 -0.382627
H143  H     H_    0.770992 0.148789 0.948707 0.167019
H144  H     H_    0.854185 0.132152 0.949027 0.173763
H145  H     H_    0.822988 0.196430 0.968656 0.188655
O68   O     O_3   0.938840 0.807080 0.044107 -0.557748
C196  C     C_3   0.877371 0.815986 0.053587 -0.308704
H146  H     H_    0.847495 0.775225 0.048907 0.147664
H147  H     H_    0.857399 0.858740 0.044113 0.151691
H148  H     H_    0.878071 0.822382 0.076882 0.200792
O69   O     O_3   0.693031 0.389509 0.486116 -0.590481
C197  C     C_3   0.686128 0.351923 0.461845 -0.382626
H149  H     H_    0.729008 0.351210 0.448707 0.167020
H150  H     H_    0.645815 0.367847 0.449027 0.173764
H151  H     H_    0.677012 0.303569 0.468656 0.188655
O70   O     O_3   0.561160 0.692920 0.544107 -0.557747
C198  C     C_3   0.622629 0.684013 0.553586 -0.308700
H152  H     H_    0.652506 0.724774 0.548906 0.147661
H153  H     H_    0.642601 0.641258 0.544113 0.151691
H154  H     H_    0.621930 0.677619 0.576882 0.200792
O71   O     O_3   0.306969 0.610491 0.486116 -0.590481
C199  C     C_3   0.313872 0.648077 0.461845 -0.382626
H155  H     H_    0.270991 0.648790 0.448707 0.167020
H156  H     H_    0.354185 0.632153 0.449027 0.173764
H157  H     H_    0.322988 0.696430 0.468656 0.188655
O72   O     O_3   0.438840 0.307080 0.544107 -0.557747
C200  C     C_3   0.377371 0.315987 0.553586 -0.308702
H158  H     H_    0.347494 0.275226 0.548906 0.147661
H159  H     H_    0.357399 0.358742 0.544113 0.151692
H160  H     H_    0.378070 0.322381 0.576882 0.200793

loop_
_geom_bond_atom_site_label_1
_geom_bond_atom_site_label_2
_ccdc_geom_bond_type
Cu2   Cu4   S    
C115  C141  A    
C68   O28   S    
C183  O71   S    
C130  C146  A    
C119  C143  A    
C38   H14   S    
C63   H47   S    
C120  C144  A    
C164  H92   S    
C136  C140  A    
C110  C118  A    
C182  O70   S    
C123  N5    A    
C25   H113  S    
C135  C139  A    
C45   C57   A    
C8    C13   S    
C27   H115  S    
C102  O58   A    
C29   H117  S    
C28   H116  S    
C49   C153  A    
C5    O5    A    
C118  H78   S    
C7    O15   A    
C9    C185  S    
Cu9   O61   S    
C22   C38   S    
C93   O49   A    
C60   H44   S    
C81   C139  A    
Cu5   Cu7   S    
C82   C140  A    
Cu4   O16   S    
C193  H139  S    
C185  H121  S    
C110  H70   S    
Cu12  O64   S    
C45   C59   A    
C172  H100  S    
Cu3   O10   S    
C187  H123  S    
C38   C190  S    
C66   N2    A    
C175  H103  S    
C41   C107  A    
C36   H20   S    
C129  C145  A    
C38   H22   S    
C125  C135  A    
C26   C178  S    
C126  C136  A    
C10   C162  S    
C27   H35   S    
C40   H16   S    
C193  H138  S    
C30   C182  S    
Cu2   O5    S    
C79   C87   A    
C14   C182  S    
C18   C170  S    
C78   C88   A    
C166  C174  S    
Cu12  O54   S    
C127  C133  A    
C194  H142  S    
C48   N8    S    
Cu11  O63   S    
C112  C120  A    
C33   H9    S    
C192  H136  S    
C119  H79   S    
C20   C28   S    
C21   C29   S    
C60   C76   A    
Cu1   O4    S    
C36   C188  S    
C23   C31   S    
C24   C32   S    
Cu5   O51   S    
C68   N2    A    
Cu6   O52   S    
C40   C192  S    
C25   H33   S    
Cu5   O57   S    
C16   C184  S    
C124  C130  A    
C96   O44   A    
C174  H110  S    
C28   C180  S    
C74   H50   S    
C41   C105  A    
C116  C142  A    
C162  H82   S    
C20   C172  S    
C168  H88   S    
C21   C173  S    
C11   C179  S    
C179  H27   S    
C24   C176  S    
C9    C177  S    
C103  O63   A    
C15   C191  S    
C186  H122  S    
C100  O48   A    
C46   C60   A    
C24   C100  S    
C103  O61   A    
C1    C10   S    
C16   C168  S    
C149  H5    S    
C184  O72   S    
C17   C25   S    
O72   C200  S    
C79   H55   S    
C80   C88   A    
C19   C35   S    
Cu11  O53   S    
Cu8   O50   S    
Cu10  O46   S    
C180  O68   S    
Cu9   O55   S    
C53   H61   S    
C8    O16   A    
Cu10  O56   S    
C182  H30   S    
C62   H46   S    
C129  C137  A    
C185  H129  S    
C188  H132  S    
Cu6   Cu8   S    
C132  C138  A    
C28   H36   S    
C109  H69   S    
C56   C148  A    
C22   C98   S    
C194  H140  S    
C69   O29   S    
C95   O43   A    
C189  H133  S    
C196  H146  S    
C51   C155  A    
C122  O18   S    
C191  H127  S    
C71   N3    A    
C150  H6    S    
C39   H15   S    
Cu11  O39   S    
C178  H26   S    
C75   H51   S    
Cu12  O48   S    
C165  H93   S    
C124  N6    A    
C175  H111  S    
C176  H104  S    
C81   C153  A    
C111  C119  A    
C57   C73   A    
C169  H97   S    
C65   C153  A    
C64   H48   S    
C47   N7    S    
C190  H126  S    
C61   C77   A    
C69   C157  A    
C131  C147  A    
C46   N6    S    
C14   C166  S    
C43   N3    S    
C26   H114  S    
Cu3   O11   S    
C77   H53   S    
C46   C58   A    
Cu9   Cu11  S    
C15   C167  S    
C43   C111  A    
C100  O56   A    
C2    C11   S    
C101  O57   A    
C94   O42   A    
C91   C143  S    
C128  O24   S    
C39   C191  S    
C116  H76   S    
Cu2   O8    S    
C84   C158  A    
Cu5   O41   S    
C104  O62   A    
C44   N4    S    
C51   H59   S    
C199  H155  S    
C20   C36   S    
C40   H24   S    
C125  O21   S    
C128  C134  A    
C18   C34   S    
C48   C62   A    
Cu1   O3    S    
C2    O2    A    
Cu7   O35   S    
C11   C163  S    
C190  H134  S    
Cu5   O33   S    
C9    C161  S    
C73   C85   A    
Cu4   O14   S    
C195  H143  S    
C12   C180  S    
C13   C181  S    
C164  C172  S    
C17   C93   S    
C163  C171  S    
O68   C196  S    
C58   C74   A    
C167  C175  S    
C196  H148  S    
C168  C176  S    
C22   C30   S    
C189  H125  S    
C62   C78   A    
C191  H135  S    
C163  H91   S    
C176  H112  S    
C42   N2    S    
C172  H108  S    
C124  O20   S    
Cu6   O58   S    
C173  H101  S    
C32   H120  S    
C36   H12   S    
C169  H105  S    
C121  N5    A    
C125  N7    A    
C55   C159  A    
C10   C186  S    
C113  C141  A    
C56   H64   S    
C115  H75   S    
C67   N1    A    
Cu4   O13   S    
C14   C190  S    
C90   O36   A    
Cu3   O9    S    
C61   H45   S    
C200  H158  S    
C30   H38   S    
C59   H43   S    
C98   O54   A    
C4    C9    S    
C35   H11   S    
C101  O59   A    
C85   C102  S    
C183  H31   S    
C33   H17   S    
C92   O38   A    
O65   C193  S    
C59   C75   A    
C128  N8    A    
C23   C99   S    
C18   C26   S    
C37   H13   S    
Cu7   O49   S    
Cu2   O6    S    
C197  H149  S    
C84   C160  A    
C109  C117  A    
C104  O64   A    
C30   H118  S    
Cu10  Cu12  S    
C199  H157  S    
C31   H39   S    
C194  H141  S    
C27   C179  S    
C47   C63   A    
C25   C177  S    
C48   C64   A    
C23   C175  S    
C167  H87   S    
C1    O9    A    
C168  H96   S    
C127  O23   S    
C67   C155  A    
C3    O11   A    
C174  H102  S    
O70   C198  S    
C184  H32   S    
C136  C152  A    
C75   C85   A    
C195  H145  S    
C15   C183  S    
C65   N1    A    
C41   N1    S    
C39   H23   S    
C54   C146  A    
C37   H21   S    
C152  H8    S    
C51   C151  A    
C64   C80   A    
C17   C33   S    
Cu8   O36   S    
C145  H1    S    
C166  H94   S    
Cu10  O38   S    
C105  H65   S    
C52   H60   S    
C163  H83   S    
C164  H84   S    
C107  H67   S    
C108  H68   S    
C1    O1    A    
C34   H10   S    
C66   C154  A    
C133  C149  A    
C49   H57   S    
C3    O3    A    
C70   C158  A    
C181  O69   S    
C198  H152  S    
C131  C137  A    
Cu4   O15   S    
C12   C164  S    
C26   H34   S    
C13   C165  S    
C162  C170  S    
C58   H42   S    
C52   C152  A    
C200  H160  S    
C53   C145  A    
C78   H54   S    
C5    O13   A    
C31   H119  S    
C5    C14   S    
C90   C142  S    
C7    O7    A    
C98   O46   A    
C73   H49   S    
C7    C16   S    
C92   O40   A    
C126  N8    A    
C93   O41   A    
C130  C138  A    
C170  H98   S    
C193  H137  S    
C11   C187  S    
C91   O39   A    
C2    O10   A    
C113  H73   S    
C83   C137  A    
C71   C159  A    
C165  H85   S    
C50   H58   S    
C187  H131  S    
Cu6   O42   S    
C65   O25   S    
C4    O4    A    
C161  H89   S    
C112  H72   S    
C81   C155  A    
C47   C61   A    
C178  O66   S    
C179  O67   S    
C108  C116  A    
C198  H153  S    
C127  N7    A    
C72   O32   S    
C177  H25   S    
C135  C151  A    
C107  C115  A    
Cu9   O37   S    
C117  H77   S    
C66   O26   S    
C148  H4    S    
C87   C104  S    
C94   O50   A    
C181  H29   S    
C120  H80   S    
C21   C37   S    
C35   C187  S    
C76   C86   A    
C33   C185  S    
C122  N6    A    
Cu7   O59   S    
Cu8   O60   S    
C134  C150  A    
Cu1   O1    S    
C37   C189  S    
C96   O52   A    
C70   O30   S    
C146  H2    S    
C90   O34   A    
C34   C186  S    
C13   C189  S    
C63   C79   A    
C170  H106  S    
C54   H62   S    
C151  H7    S    
C106  C114  A    
C121  O17   S    
C114  C142  A    
C117  C143  A    
C19   C171  S    
C123  O19   S    
C134  C140  A    
C17   C169  S    
C186  H130  S    
C177  O65   S    
C165  C173  S    
C12   C188  S    
C21   C97   S    
C199  H156  S    
C89   O35   A    
C171  H107  S    
C99   O55   A    
C3    C12   S    
C16   C192  S    
C72   N4    A    
C6    C15   S    
C29   C181  S    
C97   O53   A    
Cu1   Cu3   S    
C83   C157  A    
C105  C113  A    
C45   N5    S    
C91   O37   A    
C111  H71   S    
C19   C27   S    
C82   C156  A    
C195  H144  S    
C8    O8    A    
C70   N4    A    
C123  C129  A    
C173  H109  S    
C171  H99   S    
C121  C131  A    
C76   H52   S    
C4    O12   A    
C122  C132  A    
C22   C174  S    
C161  H81   S    
C196  H147  S    
C188  H124  S    
C10   C178  S    
C55   H63   S    
C57   H41   S    
C198  H154  S    
O67   C195  S    
C89   O33   A    
C200  H159  S    
C67   O27   S    
C102  O60   A    
C126  O22   S    
C95   O51   A    
C35   H19   S    
C54   C158  A    
C42   C106  A    
C50   C150  A    
C55   C147  A    
Cu6   O34   S    
Cu11  O47   S    
C74   C86   A    
C147  H3    S    
Cu12  O40   S    
C77   C87   A    
Cu9   O45   S    
C80   H56   S    
C69   N3    A    
C71   O31   S    
Cu3   O12   S    
C106  H66   S    
C18   C94   S    
C19   C95   S    
C118  C144  A    
C6    O6    A    
C88   C103  S    
O66   C194  S    
C180  H28   S    
C167  H95   S    
C31   C183  S    
C132  C148  A    
C32   C184  S    
C20   C96   S    
C68   C156  A    
Cu2   O7    S    
C197  H150  S    
C133  C139  A    
C52   C156  A    
C43   C109  A    
C44   C112  A    
C53   C157  A    
C72   C160  A    
C49   C149  A    
C192  H128  S    
C161  C169  S    
O71   C199  S    
C56   C160  A    
C6    O14   A    
C99   O47   A    
C50   C154  A    
C89   C141  S    
C97   O45   A    
Cu1   O2    S    
C24   C40   S    
Cu7   O43   S    
C92   C144  S    
Cu8   O44   S    
C197  H151  S    
C114  H74   S    
C84   C138  A    
C82   C154  A    
C166  H86   S    
C83   C159  A    
Cu10  O62   S    
O69   C197  S    
C29   H37   S    
C162  H90   S    
C86   C101  S    
C42   C108  A    
C23   C39   S    
C32   H40   S    
C34   H18   S    
C44   C110  A    
