data_mof_unit_19640.cif
_audit_creation_date              2012-12-11T17:24:08-0500
_audit_creation_method            fapswitch 2.2
_symmetry_space_group_name_H-M    P1
_symmetry_Int_Tables_number       1
_space_group_crystal_system       triclinic
_cell_length_a                    22.785863
_cell_length_b                    7.20899
_cell_length_c                    20.954592
_cell_angle_alpha                 89.998742
_cell_angle_beta                  93.699978
_cell_angle_gamma                 90.000103
_cell_volume                      3434.89087801

loop_
_atom_site_label
_atom_site_type_symbol
_atom_type_description
_atom_site_fract_x
_atom_site_fract_y
_atom_site_fract_z
_atom_type_partial_charge
O1    O     O_R   0.307200 0.614510 0.194080 -0.534905
O2    O     O_R   0.692800 0.385490 0.805920 -0.534905
O3    O     O_R   0.192800 0.114510 0.305920 -0.534796
O4    O     O_R   0.807200 0.885490 0.694080 -0.534793
O5    O     O_R   0.188140 0.283260 0.181690 -0.549184
O6    O     O_R   0.811860 0.716740 0.818310 -0.549185
O7    O     O_R   0.311860 0.783260 0.318310 -0.549325
O8    O     O_R   0.688140 0.216740 0.681690 -0.549325
C1    C     C_R   0.169199 0.453365 0.165322 0.785706
C2    C     C_R   0.830801 0.546635 0.834678 0.785705
C3    C     C_R   0.330776 0.953369 0.334708 0.785289
C4    C     C_R   0.669223 0.046631 0.665293 0.785290
O9    O     O_R   0.306460 0.284700 0.186400 -0.532579
O10   O     O_R   0.693540 0.715300 0.813600 -0.532580
O11   O     O_R   0.193540 0.784700 0.313600 -0.532724
O12   O     O_R   0.806460 0.215300 0.686400 -0.532726
O13   O     O_R   0.311970 0.115840 0.310660 -0.520711
O14   O     O_R   0.688030 0.884160 0.689340 -0.520715
O15   O     O_R   0.188030 0.615840 0.189340 -0.521234
O16   O     O_R   0.811970 0.384160 0.810660 -0.521233
C5    C     C_R   0.325153 0.453365 0.171525 0.720201
C6    C     C_R   0.674847 0.546635 0.828475 0.720194
C7    C     C_R   0.174847 0.953364 0.328476 0.719705
C8    C     C_R   0.825153 0.046636 0.671524 0.719704
O17   O     O_3   0.251670 0.448440 0.290760 -0.380924
O18   O     O_3   0.748330 0.551560 0.709240 -0.380923
O19   O     O_3   0.248330 0.948440 0.209240 -0.381023
O20   O     O_3   0.751670 0.051560 0.790760 -0.381022
V1    V     V_3+5 0.249690 0.173030 0.242440 1.487652
V2    V     V_3+5 0.750310 0.826970 0.757560 1.487653
V3    V     V_3+5 0.250310 0.673030 0.257560 1.486969
V4    V     V_3+5 0.749690 0.326970 0.742440 1.486971
H1    H     H_    0.044526 0.286535 0.458592 0.119667
H2    H     H_    0.955473 0.713464 0.541407 0.119667
H3    H     H_    0.455447 0.786533 0.041373 0.119602
H4    H     H_    0.544553 0.213467 0.958627 0.119603
C9    C     C_R   0.980533 0.174106 0.519308 -0.144961
C10   C     C_R   0.019466 0.825893 0.480691 -0.144961
C11   C     C_R   0.519451 0.674106 0.980672 -0.144904
C12   C     C_R   0.480548 0.325895 0.019327 -0.144903
H5    H     H_    0.965983 0.309886 0.533841 0.118207
H6    H     H_    0.034016 0.690114 0.466158 0.118207
H7    H     H_    0.533989 0.809886 0.966124 0.118176
H8    H     H_    0.466010 0.190115 0.033875 0.118175
C13   C     C_R   0.954811 0.013421 0.543175 0.130755
C14   C     C_R   0.045188 0.986579 0.456824 0.130754
C15   C     C_R   0.545188 0.513422 0.956824 0.130784
C16   C     C_R   0.454811 0.486578 0.043176 0.130785
C17   C     C_R   0.974638 0.839226 0.523549 -0.146662
C18   C     C_R   0.025361 0.160774 0.476450 -0.146662
C19   C     C_R   0.525376 0.339227 0.976470 -0.146833
C20   C     C_R   0.474623 0.660773 0.023530 -0.146835
C21   C     C_1   0.908628 0.026953 0.587994 -0.042922
C22   C     C_1   0.091372 0.973047 0.412005 -0.042920
C23   C     C_1   0.591372 0.526953 0.912005 -0.043091
C24   C     C_1   0.408628 0.473047 0.087995 -0.043096
C25   C     C_1   0.129629 0.963011 0.374223 -0.141401
C26   C     C_1   0.870371 0.036989 0.625776 -0.141403
C27   C     C_1   0.370372 0.463011 0.125777 -0.141514
C28   C     C_1   0.629628 0.536989 0.874222 -0.141510
C29   C     C_R   0.434710 0.020702 0.367202 0.529726
C30   C     C_R   0.565288 0.979318 0.632801 0.529729
C31   C     C_R   0.065103 0.518690 0.132940 0.529581
C32   C     C_R   0.934898 0.481307 0.867058 0.529585
C33   C     C_R   0.379350 0.963029 0.385134 -0.211860
C34   C     C_R   0.620650 0.036972 0.614867 -0.211872
C35   C     C_R   0.120624 0.462999 0.114899 -0.211577
C36   C     C_R   0.879377 0.537000 0.885100 -0.211573
C37   C     C_R   0.370942 0.919336 0.450086 0.013956
C38   C     C_R   0.629057 0.080667 0.549916 0.013962
C39   C     C_R   0.129191 0.421160 0.049846 0.013819
C40   C     C_R   0.870811 0.578842 0.950152 0.013824
C41   C     C_R   0.419560 0.935484 0.496504 0.088073
C42   C     C_R   0.580438 0.064537 0.503499 0.088084
C43   C     C_R   0.080596 0.437477 0.003406 0.087949
C44   C     C_R   0.919406 0.562523 0.996591 0.087943
C45   C     C_R   0.475495 0.992206 0.477206 -0.014485
C46   C     C_R   0.524503 0.007810 0.522797 -0.014491
C47   C     C_R   0.024500 0.492188 0.022802 -0.014456
C48   C     C_R   0.975502 0.507812 0.977195 -0.014454
C49   C     C_R   0.482647 0.034118 0.412454 -0.014257
C50   C     C_R   0.517350 0.965908 0.587550 -0.014255
C51   C     C_R   0.017170 0.532036 0.087673 -0.014173
C52   C     C_R   0.982831 0.467963 0.912325 -0.014177
C53   C     C_R   0.414081 0.896995 0.561902 -0.187194
C54   C     C_R   0.585914 0.103064 0.438104 -0.187185
C55   C     C_R   0.086254 0.401119 0.937897 -0.187193
C56   C     C_R   0.913748 0.598880 0.062101 -0.187198
C57   C     C_R   0.462072 0.911265 0.606332 -0.118893
C58   C     C_R   0.537923 0.088793 0.393673 -0.118896
C59   C     C_R   0.038274 0.415392 0.893447 -0.118761
C60   C     C_R   0.961727 0.584606 0.106551 -0.118759
H9    H     H_    0.372835 0.856056 0.580214 0.135534
H10   H     H_    0.627156 0.144044 0.419793 0.135526
H11   H     H_    0.127634 0.361915 0.919515 0.135498
H12   H     H_    0.872367 0.638084 0.080484 0.135503
H13   H     H_    0.455536 0.879515 0.655914 0.183639
H14   H     H_    0.544456 0.120573 0.344093 0.183640
H15   H     H_    0.044946 0.385290 0.843777 0.183636
H16   H     H_    0.955054 0.614706 0.156221 0.183636
F1    F     F_    0.441885 0.062136 0.304824 -0.695756
F2    F     F_    0.558112 0.937900 0.695179 -0.695757
F3    F     F_    0.057776 0.558280 0.195425 -0.695812
F4    F     F_    0.942224 0.441716 0.804573 -0.695812
C61   C     C_3   0.310034 0.863346 0.469544 -0.341839
C62   C     C_3   0.277585 0.029104 0.495836 -0.758980
H17   H     H_    0.302430 0.088541 0.538325 0.234129
H18   H     H_    0.271414 0.138159 0.458531 0.223141
H19   H     H_    0.233636 0.984348 0.509985 0.218324
H20   H     H_    0.282293 0.805954 0.428968 0.173984
H21   H     H_    0.312837 0.748202 0.504695 0.176389
C63   C     C_3   0.689965 0.136663 0.530457 -0.341833
C64   C     C_3   0.722407 0.970932 0.504139 -0.758991
H22   H     H_    0.728562 0.861810 0.541420 0.223160
H23   H     H_    0.697566 0.911602 0.461631 0.234133
H24   H     H_    0.766365 0.015676 0.490011 0.218310
H25   H     H_    0.687162 0.251845 0.495320 0.176392
H26   H     H_    0.717715 0.194000 0.571037 0.173978
C65   C     C_3   0.190217 0.366655 0.030365 -0.342004
C66   C     C_3   0.222546 0.533710 0.004816 -0.758660
H27   H     H_    0.197732 0.594146 0.962481 0.234013
H28   H     H_    0.228488 0.641624 0.042540 0.223385
H29   H     H_    0.266595 0.490033 0.990644 0.218199
H30   H     H_    0.217897 0.308250 0.070820 0.173435
H31   H     H_    0.187643 0.252661 0.994769 0.176471
C67   C     C_3   0.809785 0.633366 0.969634 -0.342028
C68   C     C_3   0.777453 0.466334 0.995190 -0.758673
H32   H     H_    0.771490 0.358433 0.957464 0.223385
H33   H     H_    0.802275 0.405864 0.037515 0.234017
H34   H     H_    0.733414 0.510058 0.009382 0.218209
H35   H     H_    0.812365 0.747366 0.005227 0.176478
H36   H     H_    0.782106 0.691769 0.929179 0.173446

loop_
_geom_bond_atom_site_label_1
_geom_bond_atom_site_label_2
_ccdc_geom_bond_type
O17   V3    S    
C63   H26   S    
C61   H20   S    
C56   H12   S    
O1    C5    A    
C67   C68   S    
C55   C59   A    
O19   V1    S    
O13   V1    S    
O3    C7    A    
C16   C24   S    
C40   C44   A    
O15   V3    S    
C68   H33   S    
C10   C17   A    
C65   H30   S    
O7    C3    A    
C51   C60   A    
C50   C57   A    
C32   C36   A    
O9    V1    S    
C5    C27   S    
C16   C20   A    
C6    C28   S    
C63   H25   S    
O4    C8    A    
C62   H17   S    
O1    V3    S    
O2    V4    S    
O3    V1    S    
C38   C42   A    
C32   C52   A    
C54   H10   S    
C53   H9    S    
C1    O15   A    
C56   C60   A    
C2    O16   A    
C55   H11   S    
O2    C6    A    
C37   C41   A    
O14   V2    S    
C52   C59   A    
C67   H36   S    
C44   C56   A    
C66   H29   S    
C48   C52   A    
C64   H24   S    
O11   C7    A    
C11   C20   A    
C61   H21   S    
C13   C21   S    
O12   C8    A    
C23   C28   T    
C9    H5    S    
O10   V2    S    
C63   C64   S    
C66   H28   S    
O5    V1    S    
C31   C35   A    
C39   C43   A    
O7    V3    S    
C30   C34   A    
O8    V4    S    
C31   F3    S    
C54   C58   A    
C53   C57   A    
O18   V4    S    
C15   C19   A    
H1    C18   S    
C45   C46   A    
C11   C15   A    
C4    C34   S    
C57   H13   S    
C36   C40   A    
C29   F1    S    
C1    C35   S    
O5    C1    A    
C29   C33   A    
C46   C50   A    
C13   C17   A    
O8    C4    A    
C14   C22   S    
C4    O14   A    
O9    C5    A    
C42   C54   A    
C65   C66   S    
C41   C53   A    
H4    C19   S    
C38   C63   S    
C7    C25   S    
C49   C58   A    
C65   H31   S    
C43   C55   A    
O6    V2    S    
C62   H19   S    
C9    C13   A    
C68   H32   S    
C66   H27   S    
C60   H16   S    
C15   C23   S    
C64   H22   S    
O16   V4    S    
C12   C16   A    
C3    O13   A    
H2    C17   S    
C37   C61   S    
C32   F4    S    
C44   C48   A    
O6    C2    A    
C11   H7    S    
C21   C26   T    
O11   V3    S    
C2    C36   S    
O12   V4    S    
C12   C19   A    
C61   C62   S    
C14   C18   A    
C24   C27   T    
C39   C65   S    
O10   C6    A    
O20   V2    S    
C68   H34   S    
C29   C49   A    
C47   C51   A    
C9    C18   A    
C34   C38   A    
C64   H23   S    
C62   H18   S    
C67   H35   S    
C33   C37   A    
C35   C39   A    
C30   C50   A    
C10   C14   A    
C47   C48   A    
C10   H6    S    
C40   C67   S    
C12   H8    S    
C8    C26   S    
C45   C49   A    
C42   C46   A    
C31   C51   A    
H3    C20   S    
C41   C45   A    
C59   H15   S    
C43   C47   A    
C58   H14   S    
O4    V2    S    
C3    C33   S    
C30   F2    S    
C22   C25   T    
