data_mof_unit_15233.cif
_audit_creation_date              2012-12-11T15:08:29-0500
_audit_creation_method            fapswitch 2.2
_symmetry_space_group_name_H-M    P1
_symmetry_Int_Tables_number       1
_space_group_crystal_system       triclinic
_cell_length_a                    26.022861
_cell_length_b                    27.484574
_cell_length_c                    8.380034
_cell_angle_alpha                 90.0
_cell_angle_beta                  96.046875
_cell_angle_gamma                 89.940123
_cell_volume                      5960.27709406

loop_
_atom_site_label
_atom_site_type_symbol
_atom_type_description
_atom_site_fract_x
_atom_site_fract_y
_atom_site_fract_z
_atom_type_partial_charge
Ba1   Ba    Ba6+2 0.999910 0.465960 0.844870 1.670505
Ba2   Ba    Ba6+2 0.999910 0.534040 0.344870 1.670798
Ba3   Ba    Ba6+2 0.499910 0.965960 0.844870 1.670381
Ba4   Ba    Ba6+2 0.499910 0.034040 0.344870 1.670676
C1    C     C_3   0.042919 0.241126 0.624678 -0.350934
C2    C     C_R   0.845027 0.641950 0.600401 -0.127305
C3    C     C_3   0.518066 0.208786 0.112643 0.389170
C4    C     C_R   0.914042 0.383511 0.299205 -0.267051
C5    C     C_R   0.914153 0.616553 0.799099 -0.266643
C6    C     C_R   0.414020 0.883524 0.299233 -0.267113
C7    C     C_R   0.414126 0.116538 0.799136 -0.266673
C8    C     C_3   0.977711 0.165281 0.122656 0.289077
C9    C     C_3   0.003353 0.122445 0.047716 -0.324886
C10   C     C_3   0.980728 0.835696 0.625773 0.289374
C11   C     C_3   0.007460 0.878064 0.552062 -0.325330
C12   C     C_3   0.474290 0.665975 0.117897 0.288898
C13   C     C_R   0.344967 0.858162 0.100421 -0.129298
C14   C     C_3   0.499178 0.622725 0.042875 -0.324669
C15   C     C_3   0.476589 0.334912 0.619220 0.289204
C16   C     C_3   0.502257 0.377743 0.544545 -0.325147
C17   C     C_3   0.221153 0.434093 0.205542 0.273188
C18   C     C_3   0.257573 0.393089 0.264175 -0.388275
C19   C     C_3   0.218151 0.562422 0.772052 0.307405
C20   C     C_3   0.257724 0.597996 0.850145 -0.378477
C21   C     C_3   0.721150 0.934091 0.205767 0.273329
C22   C     C_3   0.757576 0.893104 0.264502 -0.388008
C23   C     C_3   0.718092 0.062507 0.771823 0.307190
C24   C     C_R   0.345002 0.141935 0.600431 -0.128517
C25   C     C_3   0.757595 0.098124 0.850056 -0.378186
C26   C     C_R   0.833258 0.318454 0.198130 -0.017020
C27   C     C_R   0.833584 0.681846 0.697631 -0.017585
C28   C     C_R   0.333229 0.818474 0.198169 -0.016845
C29   C     C_R   0.333542 0.181816 0.697699 -0.017488
C30   C     C_R   0.862148 0.313147 0.350102 -0.137836
C31   C     C_R   0.862585 0.687332 0.849190 -0.138349
C32   C     C_R   0.362107 0.813175 0.350164 -0.137392
C33   C     C_3   0.042735 0.758921 0.123421 -0.351682
C34   C     C_R   0.362531 0.187293 0.849279 -0.137870
C35   C     C_R   0.901805 0.346035 0.401034 -0.000194
C36   C     C_R   0.902046 0.654211 0.900615 -0.000987
C37   C     C_R   0.401775 0.846055 0.401074 -0.000020
C38   C     C_R   0.402009 0.154185 0.900671 -0.000832
C39   C     C_R   0.792945 0.234450 0.189245 -0.074663
C40   C     C_R   0.794275 0.766266 0.681677 -0.075013
C41   C     C_R   0.292960 0.734452 0.189167 -0.074481
C42   C     C_R   0.294255 0.266245 0.681697 -0.074729
C43   C     C_R   0.252486 0.702160 0.141529 -0.077981
C44   C     C_3   0.542867 0.741088 0.624313 -0.350457
C45   C     C_R   0.253703 0.298511 0.633588 -0.081101
C46   C     C_R   0.752455 0.202171 0.141655 -0.077826
C47   C     C_R   0.753712 0.798525 0.633607 -0.080896
C48   C     C_R   0.207724 0.717906 0.045930 0.061345
C49   C     C_R   0.207745 0.281995 0.546539 0.057808
C50   C     C_R   0.707705 0.217920 0.046003 0.061293
C51   C     C_R   0.707757 0.782005 0.546548 0.057750
C52   C     C_R   0.204529 0.767408 0.002360 -0.079404
C53   C     C_R   0.203645 0.232094 0.509512 -0.078450
C54   C     C_R   0.704535 0.267416 0.002363 -0.079370
C55   C     C_3   0.542662 0.258978 0.122997 -0.351031
C56   C     C_R   0.703669 0.732104 0.509498 -0.078404
C57   C     C_R   0.744839 0.299880 0.051586 -0.075271
C58   C     C_R   0.744194 0.699771 0.558145 -0.075126
C59   C     C_R   0.244821 0.799881 0.051615 -0.075423
C60   C     C_R   0.244162 0.199755 0.558179 -0.075286
C61   C     C_3   0.000101 0.278892 0.154912 0.407036
C62   C     C_3   0.999936 0.721566 0.653608 0.407037
C63   C     C_3   0.499636 0.779122 0.154030 0.406836
C64   C     C_3   0.499377 0.221289 0.652645 0.407108
C65   C     C_R   0.789917 0.283899 0.145203 0.061290
C66   C     C_R   0.884901 0.390878 0.151629 0.075698
C67   C     C_R   0.790233 0.716340 0.644793 0.061677
C68   C     C_R   0.289905 0.783907 0.145206 0.061459
C69   C     C_R   0.290200 0.216317 0.644839 0.061865
C70   C     C_R   0.137684 0.687046 0.835874 -0.150779
C71   C     C_R   0.137620 0.312640 0.337240 -0.152149
C72   C     C_R   0.637662 0.187064 0.835930 -0.150987
C73   C     C_R   0.637625 0.812642 0.337248 -0.152324
C74   C     C_R   0.099538 0.652890 0.782511 -0.010349
C75   C     C_R   0.100203 0.347386 0.282540 -0.002681
C76   C     C_R   0.599527 0.152900 0.782542 -0.009982
C77   C     C_R   0.884950 0.609163 0.651603 0.076382
C78   C     C_R   0.600207 0.847387 0.282546 -0.002338
C79   C     C_R   0.116270 0.608229 0.032084 0.042226
C80   C     C_R   0.116924 0.391946 0.532284 0.034837
C81   C     C_R   0.616265 0.108232 0.032099 0.042264
C82   C     C_R   0.616926 0.891949 0.532281 0.034994
C83   C     C_R   0.153311 0.643229 0.087875 -0.149578
C84   C     C_R   0.153435 0.356572 0.589258 -0.137491
C85   C     C_R   0.653285 0.143245 0.087930 -0.149581
C86   C     C_R   0.653439 0.856577 0.589260 -0.137296
C87   C     C_R   0.165274 0.682720 0.990002 -0.002380
C88   C     C_R   0.384889 0.890884 0.151639 0.075344
C89   C     C_R   0.165098 0.316943 0.491503 -0.000559
C90   C     C_R   0.665248 0.182739 0.990070 -0.002441
C91   C     C_R   0.665104 0.816948 0.491512 -0.000691
C92   C     C_R   0.088947 0.614007 0.881160 -0.234583
C93   C     C_R   0.090162 0.386614 0.380330 -0.208610
C94   C     C_R   0.588946 0.114008 0.881169 -0.234492
C95   C     C_R   0.590164 0.886615 0.380331 -0.208745
C96   C     C_3   0.955369 0.246708 0.085802 0.373386
C97   C     C_3   0.956004 0.755005 0.586085 0.373617
C98   C     C_3   0.454336 0.747966 0.082878 0.374306
C99   C     C_R   0.384934 0.109155 0.651620 0.075960
C100  C     C_3   0.454649 0.253434 0.582704 0.375057
C101  C     C_3   0.188786 0.507866 0.299974 0.681920
C102  C     C_3   0.197705 0.478808 0.780015 0.693546
C103  C     C_3   0.688815 0.007905 0.299967 0.681810
C104  C     C_3   0.697674 0.978889 0.780061 0.693569
C105  C     C_3   0.234706 0.542068 0.287518 -0.391592
C106  C     C_3   0.240797 0.454743 0.696359 -0.371741
C107  C     C_3   0.734738 0.042085 0.287262 -0.391604
C108  C     C_3   0.740839 0.954863 0.696619 -0.371481
C109  C     C_3   0.851942 0.531363 0.968129 0.313204
C110  C     C_R   0.844984 0.358152 0.100404 -0.128318
C111  C     C_3   0.851823 0.468784 0.467913 0.313162
C112  C     C_3   0.351926 0.031357 0.968111 0.313208
C113  C     C_3   0.351812 0.968788 0.467895 0.313170
C114  C     C_3   0.803150 0.562293 0.951694 -0.394570
C115  C     C_3   0.802987 0.438012 0.451753 -0.394323
C116  C     C_3   0.303127 0.062276 0.951694 -0.394573
C117  C     C_3   0.302971 0.938024 0.451747 -0.394331
C118  C     C_3   0.018202 0.291313 0.614155 0.390655
C119  C     C_3   0.018118 0.708737 0.113170 0.389054
C120  C     C_3   0.518163 0.791279 0.613715 0.390555
H1    H     H_    0.040610 0.315396 0.702151 0.094596
H2    H     H_    0.271301 0.441019 0.787947 0.060371
H3    H     H_    0.482031 0.188129 0.701046 -0.140642
H4    H     H_    0.022963 0.259497 0.254682 -0.056993
H5    H     H_    0.023329 0.740133 0.754021 -0.059185
H6    H     H_    0.521900 0.759025 0.253378 -0.054975
H7    H     H_    0.522091 0.240767 0.752439 -0.057094
H8    H     H_    0.931697 0.267714 0.991361 0.079223
H9    H     H_    0.931694 0.734825 0.491138 0.078391
H10   H     H_    0.431422 0.769584 0.988395 0.080802
H11   H     H_    0.431156 0.232387 0.488104 0.080002
H12   H     H_    0.169557 0.519900 0.404017 0.061977
H13   H     H_    0.766666 0.033037 0.381092 0.086419
H14   H     H_    0.187155 0.452342 0.870358 0.009275
H15   H     H_    0.669619 0.019991 0.404014 0.061975
H16   H     H_    0.687136 0.952427 0.870434 0.009278
H17   H     H_    0.938452 0.153850 0.149433 0.036591
H18   H     H_    0.001482 0.174991 0.236576 0.011563
H19   H     H_    0.042757 0.132801 0.020228 0.121838
H20   H     H_    0.006430 0.091220 0.132470 0.055336
H21   H     H_    0.980027 0.111250 0.935007 0.121440
H22   H     H_    0.004412 0.824992 0.738844 0.011698
H23   H     H_    0.941918 0.848096 0.653821 0.036363
H24   H     H_    0.771531 0.941531 0.788388 0.061056
H25   H     H_    0.984256 0.890277 0.440321 0.121273
H26   H     H_    0.011669 0.908906 0.638103 0.055452
H27   H     H_    0.046429 0.866720 0.523248 0.121980
H28   H     H_    0.434525 0.655420 0.142228 0.036591
H29   H     H_    0.497749 0.674868 0.233155 0.011542
H30   H     H_    0.539084 0.632182 0.017958 0.121750
H31   H     H_    0.500889 0.591232 0.126456 0.055202
H32   H     H_    0.476142 0.612382 0.928706 0.121545
H33   H     H_    0.500139 0.325298 0.733669 0.011710
H34   H     H_    0.437200 0.346306 0.644938 0.036175
H35   H     H_    0.249443 0.539270 0.168672 0.143105
H36   H     H_    0.479151 0.388832 0.431289 0.121402
H37   H     H_    0.504993 0.409030 0.628951 0.055304
H38   H     H_    0.541792 0.367428 0.518144 0.121858
H39   H     H_    0.241770 0.457232 0.124246 0.064479
H40   H     H_    0.186251 0.417992 0.137647 0.076337
H41   H     H_    0.268295 0.371656 0.160297 0.074073
H42   H     H_    0.238588 0.368685 0.345159 0.134558
H43   H     H_    0.293165 0.408300 0.330453 0.126005
H44   H     H_    0.179489 0.579806 0.763164 0.055621
H45   H     H_    0.228111 0.555106 0.648614 0.017544
H46   H     H_    0.258979 0.480537 0.618038 0.127001
H47   H     H_    0.297119 0.582253 0.853001 0.119521
H48   H     H_    0.249391 0.605694 0.974448 0.118483
H49   H     H_    0.256097 0.632571 0.781222 0.080492
H50   H     H_    0.741753 0.957198 0.124342 0.064081
H51   H     H_    0.686239 0.917975 0.137964 0.076219
H52   H     H_    0.768256 0.871625 0.160698 0.074039
H53   H     H_    0.738619 0.868745 0.345675 0.134538
H54   H     H_    0.793186 0.908329 0.330607 0.126201
H55   H     H_    0.679416 0.079886 0.762483 0.055632
H56   H     H_    0.728175 0.055134 0.648542 0.017351
H57   H     H_    0.749434 0.039255 0.168340 0.143366
H58   H     H_    0.797005 0.082375 0.853394 0.119762
H59   H     H_    0.749130 0.105884 0.974202 0.118536
H60   H     H_    0.756036 0.132664 0.780935 0.080489
H61   H     H_    0.758756 0.980586 0.617382 0.127325
H62   H     H_    0.866407 0.527976 0.849269 0.009065
H63   H     H_    0.866152 0.472208 0.348876 0.009170
H64   H     H_    0.366383 0.027967 0.849241 0.009173
H65   H     H_    0.040822 0.684570 0.200365 0.094577
H66   H     H_    0.366135 0.972216 0.348850 0.009269
H67   H     H_    0.881309 0.549379 0.054189 0.059648
H68   H     H_    0.881253 0.450643 0.553597 0.059090
H69   H     H_    0.381295 0.049379 0.054150 0.059614
H70   H     H_    0.381243 0.950642 0.553561 0.059070
H71   H     H_    0.773428 0.545297 0.864354 0.122982
H72   H     H_    0.773156 0.455225 0.365150 0.123138
H73   H     H_    0.273402 0.045268 0.864395 0.122975
H74   H     H_    0.273136 0.955248 0.365182 0.123130
H75   H     H_    0.811482 0.599203 0.908804 0.064754
H76   H     H_    0.540633 0.815390 0.701490 0.094074
H77   H     H_    0.811177 0.401153 0.408043 0.064882
H78   H     H_    0.311444 0.099184 0.908759 0.064835
H79   H     H_    0.311149 0.901168 0.407994 0.064940
H80   H     H_    0.787721 0.565532 0.069891 0.124328
H81   H     H_    0.787764 0.434634 0.570213 0.124144
H82   H     H_    0.287709 0.065521 0.069906 0.124281
H83   H     H_    0.287757 0.934639 0.570220 0.124100
H84   H     H_    0.020386 0.305766 0.491237 -0.104146
H85   H     H_    0.019961 0.694408 0.989939 -0.101099
H86   H     H_    0.520269 0.805668 0.490673 -0.104030
H87   H     H_    0.540846 0.184585 0.199562 0.093919
H88   H     H_    0.519816 0.194538 0.989263 -0.101067
H89   H     H_    0.083582 0.243638 0.596524 0.059264
H90   H     H_    0.083259 0.756456 0.093821 0.060112
H91   H     H_    0.583516 0.743578 0.596014 0.059102
H92   H     H_    0.583171 0.256543 0.093240 0.059861
H93   H     H_    0.042446 0.226215 0.747709 0.171967
H94   H     H_    0.042656 0.773702 0.246757 0.172233
H95   H     H_    0.542432 0.726214 0.747407 0.171613
H96   H     H_    0.542624 0.273713 0.246407 0.171755
H97   H     H_    0.929408 0.238563 0.180321 -0.118770
H98   H     H_    0.223213 0.580123 0.307216 0.029736
H99   H     H_    0.930388 0.763543 0.681197 -0.120562
H100  H     H_    0.427888 0.740213 0.176362 -0.119740
H101  H     H_    0.428529 0.261611 0.676762 -0.121801
H102  H     H_    0.172544 0.639862 0.207754 0.077688
H103  H     H_    0.173276 0.360432 0.708735 0.060114
H104  H     H_    0.672507 0.139881 0.207823 0.077707
H105  H     H_    0.673275 0.860436 0.708745 0.060099
H106  H     H_    0.256967 0.664512 0.177753 0.053558
H107  H     H_    0.258921 0.336728 0.661770 0.054945
H108  H     H_    0.756919 0.164529 0.177957 0.053685
H109  H     H_    0.225795 0.423680 0.622474 0.092273
H110  H     H_    0.758922 0.836740 0.661824 0.055051
H111  H     H_    0.827092 0.220298 0.258898 0.062836
H112  H     H_    0.829278 0.780687 0.745661 0.063171
H113  H     H_    0.327116 0.720306 0.258796 0.062586
H114  H     H_    0.329257 0.280662 0.745695 0.062989
H115  H     H_    0.822942 0.364148 0.985250 0.080982
H116  H     H_    0.822709 0.635898 0.485714 0.080786
H117  H     H_    0.322932 0.864151 0.985250 0.081168
H118  H     H_    0.322693 0.135891 0.485725 0.081024
H119  H     H_    0.170419 0.781376 0.932024 0.059975
H120  H     H_    0.723258 0.080152 0.306894 0.029686
H121  H     H_    0.168726 0.217834 0.444551 0.060055
H122  H     H_    0.670434 0.281390 0.931993 0.060058
H123  H     H_    0.668753 0.717840 0.444535 0.060141
H124  H     H_    0.740142 0.337772 0.018097 0.058596
H125  H     H_    0.739011 0.661548 0.529910 0.058703
H126  H     H_    0.240108 0.837777 0.018178 0.058613
H127  H     H_    0.238973 0.161531 0.529956 0.058736
H128  H     H_    0.146423 0.716085 0.755836 0.070970
H129  H     H_    0.146082 0.283239 0.258108 0.070690
H130  H     H_    0.646401 0.216103 0.755897 0.071025
H131  H     H_    0.725989 0.923538 0.623619 0.091222
H132  H     H_    0.646090 0.783243 0.258117 0.070803
H133  H     H_    0.852769 0.284726 0.431544 0.077408
H134  H     H_    0.853346 0.716062 0.929816 0.077770
H135  H     H_    0.352724 0.784755 0.431603 0.077335
H136  H     H_    0.353286 0.216018 0.929914 0.077729
H137  H     H_    0.060441 0.587159 0.837904 0.074711
H138  H     H_    0.062116 0.413830 0.336213 0.066349
H139  H     H_    0.560451 0.087153 0.837890 0.074733
H140  H     H_    0.562115 0.913829 0.336213 0.066420
H141  H     H_    0.021410 0.216161 0.537421 0.097336
H142  H     H_    0.266604 0.533008 0.381402 0.086360
H143  H     H_    0.020891 0.783968 0.037055 0.097489
H144  H     H_    0.521324 0.716103 0.537189 0.097640
H145  H     H_    0.520779 0.284047 0.036787 0.097841
H146  H     H_    0.944216 0.409069 0.339878 0.060515
H147  H     H_    0.944249 0.590884 0.839992 0.060508
H148  H     H_    0.444200 0.909076 0.339894 0.060639
H149  H     H_    0.444232 0.090876 0.840010 0.060655
H150  H     H_    0.982755 0.312100 0.203216 -0.142464
H151  H     H_    0.981812 0.688572 0.700424 -0.138393
H152  H     H_    0.482881 0.812445 0.203496 -0.144035
O1    O     O_2   0.898940 0.431940 0.867860 -0.459984
O2    O     O_3   0.031763 0.710762 0.532610 -0.584048
O3    O     O_3   0.532330 0.789246 0.034705 -0.585748
O4    O     O_3   0.531753 0.210775 0.532792 -0.584508
O5    O     O_3   0.058810 0.523750 0.066650 -0.452007
O6    O     O_3   0.058810 0.476250 0.566650 -0.457288
O7    O     O_3   0.558810 0.023750 0.066650 -0.452006
O8    O     O_3   0.558810 0.976250 0.566650 -0.457251
O9    O     O_3   0.941140 0.476130 0.123050 -0.495585
O10   O     O_3   0.941140 0.523870 0.623050 -0.495022
O11   O     O_3   0.441140 0.976130 0.123050 -0.495539
O12   O     O_2   0.898940 0.568060 0.367860 -0.460415
O13   O     O_3   0.441140 0.023870 0.623050 -0.494978
O14   O     O_3   0.982430 0.389880 0.635700 -0.496548
O15   O     O_3   0.982430 0.610120 0.135700 -0.495699
O16   O     O_3   0.482430 0.889880 0.635700 -0.496508
O17   O     O_3   0.482430 0.110120 0.135700 -0.495661
O18   O     O_2   0.898145 0.349363 0.733847 -0.479432
O19   O     O_2   0.898057 0.650706 0.233330 -0.478942
O20   O     O_2   0.398156 0.849358 0.733897 -0.480118
O21   O     O_2   0.398072 0.150712 0.233398 -0.479706
O22   O     O_3   0.839335 0.485439 0.023544 -0.638226
O23   O     O_2   0.398940 0.931940 0.867860 -0.460013
O24   O     O_3   0.839319 0.514698 0.523793 -0.638412
O25   O     O_3   0.339331 0.985434 0.023554 -0.638182
O26   O     O_3   0.339317 0.014701 0.523799 -0.638352
O27   O     O_3   0.966765 0.287817 0.650094 -0.581857
O28   O     O_3   0.966832 0.712173 0.150663 -0.581764
O29   O     O_3   0.466760 0.787816 0.650004 -0.581561
O30   O     O_3   0.466822 0.212176 0.150558 -0.581211
O31   O     O_2   0.100770 0.431440 0.821660 -0.468239
O32   O     O_2   0.100770 0.568560 0.321660 -0.488487
O33   O     O_2   0.600770 0.931440 0.821660 -0.468343
O34   O     O_2   0.398940 0.068060 0.367860 -0.460449
O35   O     O_2   0.600770 0.068560 0.321660 -0.488491
O36   O     O_3   0.017130 0.389790 0.053700 -0.461063
O37   O     O_3   0.017130 0.610210 0.553700 -0.460416
O38   O     O_3   0.517130 0.889790 0.053700 -0.461249
O39   O     O_3   0.517130 0.110210 0.553700 -0.460575
O40   O     O_2   0.101025 0.349789 0.948879 -0.498219
O41   O     O_2   0.100941 0.650145 0.449231 -0.494859
O42   O     O_2   0.601018 0.849770 0.948859 -0.498069
O43   O     O_2   0.600927 0.150175 0.449211 -0.494745
O44   O     O_3   0.974098 0.204631 0.013508 -0.621832
O45   O     O_3   0.154615 0.491961 0.669890 -0.652670
O46   O     O_3   0.975731 0.796806 0.515047 -0.622259
O47   O     O_3   0.472334 0.705640 0.010171 -0.621582
O48   O     O_3   0.473392 0.295485 0.510492 -0.621752
O49   O     O_3   0.206481 0.460035 0.339326 -0.689463
O50   O     O_3   0.217866 0.519952 0.867956 -0.673270
O51   O     O_3   0.706500 0.960080 0.339489 -0.689337
O52   O     O_3   0.717730 0.020083 0.867955 -0.673303
O53   O     O_3   0.154540 0.507730 0.156987 -0.629915
O54   O     O_3   0.654605 0.991969 0.669751 -0.652545
O55   O     O_3   0.654537 0.007725 0.157044 -0.629846
O56   O     O_3   0.032312 0.289267 0.034534 -0.585270
P1    P     P_3+3 0.893960 0.447890 0.040050 0.985912
P2    P     P_3+3 0.063949 0.655996 0.580652 0.971616
P3    P     P_3+3 0.564292 0.844171 0.081102 0.971121
P4    P     P_3+3 0.563946 0.155999 0.580679 0.971581
P5    P     P_3+3 0.936222 0.656468 0.104962 0.958457
P6    P     P_3+3 0.936183 0.343638 0.605075 0.957972
P7    P     P_3+3 0.436216 0.156463 0.104966 0.958196
P8    P     P_3+3 0.436178 0.843643 0.605075 0.957623
P9    P     P_3+3 0.893960 0.552110 0.540050 0.985955
P10   P     P_3+3 0.393960 0.947890 0.040050 0.985863
P11   P     P_3+3 0.393960 0.052110 0.540050 0.985907
P12   P     P_3+3 0.105800 0.447360 0.649510 1.001537
P13   P     P_3+3 0.105800 0.552640 0.149510 1.006287
P14   P     P_3+3 0.605800 0.947360 0.649510 1.001745
P15   P     P_3+3 0.605800 0.052640 0.149510 1.006431
P16   P     P_3+3 0.064289 0.344171 0.081083 0.971174

loop_
_geom_bond_atom_site_label_1
_geom_bond_atom_site_label_2
_ccdc_geom_bond_type
Ba2   P13   S    
Ba2   P9    S    
C1    H141  S    
C109  O22   S    
C17   H39   S    
C100  H11   S    
C83   C87   A    
C15   C16   S    
C11   H27   S    
C3    H88   S    
C98   H100  S    
C86   C91   A    
C107  H13   S    
C115  H72   S    
C40   H112  S    
O34   P11   D    
C84   H103  S    
O21   P7    D    
Ba4   O7    S    
C55   H145  S    
C56   C58   A    
O27   P6    S    
C85   C90   A    
C20   H47   S    
C7    H149  S    
C72   C90   A    
C1    H93   S    
C35   P6    S    
C74   C92   A    
C86   H105  S    
C115  H81   S    
C54   C57   A    
C22   H54   S    
C13   H117  S    
O11   P10   S    
C17   C18   S    
C6    C37   A    
C62   H151  S    
C73   H132  S    
C24   H118  S    
C33   H94   S    
C3    C55   S    
Ba1   O10   S    
Ba2   O5    S    
C41   C43   A    
C10   O46   S    
Ba3   O38   S    
O42   P3    D    
C15   O48   S    
C23   H56   S    
O19   P5    D    
Ba2   O6    S    
C82   C86   A    
C108  H131  S    
C77   P9    S    
C23   O52   S    
C30   H133  S    
C64   H7    S    
Ba1   O1    S    
C118  H84   S    
C1    H89   S    
C116  H73   S    
C81   P15   S    
C46   C50   A    
C114  H71   S    
Ba3   O23   S    
C61   O56   S    
C53   H121  S    
C24   C29   A    
C33   H90   S    
C11   H25   S    
C26   C65   S    
C14   H32   S    
C71   C89   A    
O23   P10   D    
C101  O53   S    
C75   C93   A    
C114  H80   S    
C80   C84   A    
C34   H136  S    
C96   H8    S    
C43   C48   A    
C64   O4    S    
C97   H9    S    
O5    P13   S    
C29   C34   A    
C31   C36   A    
Ba1   O5    S    
C73   C78   A    
C45   C49   A    
C1    C118  S    
C76   P4    S    
C47   C51   A    
C41   H113  S    
C18   H42   S    
O36   P16   S    
C59   H126  S    
O6    P12   S    
C16   H36   S    
O1    P1    D    
O33   P14   D    
C13   C28   A    
C48   C87   S    
O8    P14   S    
O3    P3    S    
C71   C75   A    
C44   H95   S    
C23   C25   S    
C116  H78   S    
C9    H21   S    
O15   P5    S    
C28   C32   A    
C78   P3    S    
Ba4   O35   S    
C32   H135  S    
C111  H63   S    
C8    H17   S    
C9    H20   S    
C63   H152  S    
C4    H146  S    
C33   C119  S    
O4    P4    S    
C113  O26   S    
C104  O52   S    
C60   C69   A    
C46   H108  S    
C72   H130  S    
C14   H30   S    
C106  H109  S    
C27   C67   S    
C44   H91   S    
C39   C65   A    
C2    C77   A    
C62   C97   S    
Ba3   O16   S    
Ba4   O11   S    
C25   H58   S    
C26   C30   A    
C30   C35   A    
Ba4   O17   S    
O2    P2    S    
C108  H61   S    
C21   C22   S    
C10   H23   S    
C112  C116  S    
Ba1   P1    S    
C21   H51   S    
C19   H45   S    
C22   H52   S    
O41   P2    D    
C102  O50   S    
C83   H102  S    
C16   H38   S    
C59   C68   A    
O56   P16   S    
Ba2   O9    S    
Ba3   O8    S    
Ba1   O36   S    
C106  H2    S    
C111  C115  S    
C85   H104  S    
C63   O3    S    
Ba3   Ba4   S    
C105  H35   S    
C22   H53   S    
C101  C105  S    
C15   H34   S    
C103  C107  S    
O37   P2    S    
C72   C76   A    
C71   H129  S    
C3    H87   S    
C39   C46   A    
C4    C66   A    
C3    O30   S    
O54   P14   S    
C118  H1    S    
C119  O28   S    
C100  O48   S    
C39   H111  S    
C120  H86   S    
O16   P8    S    
C79   C92   A    
Ba4   O8    S    
C58   C67   A    
C103  H15   S    
C20   H48   S    
C117  H74   S    
C105  H98   S    
C8    C9    S    
C56   H123  S    
C82   P14   S    
Ba3   O13   S    
C10   C11   S    
O17   P7    S    
C42   C69   A    
C79   C83   A    
C25   H60   S    
C78   C95   A    
O32   P13   D    
C100  H101  S    
C28   C68   S    
C43   H106  S    
C57   H124  S    
Ba1   O31   S    
C42   C45   A    
C75   P16   S    
C92   H137  S    
Ba2   O32   S    
C53   C60   A    
C80   C93   A    
O29   P8    S    
C23   H55   S    
C55   H96   S    
C102  C106  S    
C57   C65   A    
C107  H57   S    
O28   P5    S    
C7    C38   A    
Ba4   O34   S    
C36   P5    S    
C38   P7    S    
C80   P12   S    
C62   H5    S    
C2    C27   A    
C5    H147  S    
C6    C88   A    
C17   H40   S    
C6    H148  S    
C51   C56   A    
C31   H134  S    
C32   C37   A    
C20   H49   S    
Ba4   O39   S    
O30   P7    S    
C117  H79   S    
O43   P4    D    
C118  O27   S    
C61   H4    S    
C54   H122  S    
C81   C85   A    
C55   H92   S    
C5    C36   A    
C104  C108  S    
C111  O24   S    
C70   C87   A    
Ba2   O37   S    
C12   H28   S    
Ba4   P11   S    
O10   P9    S    
C64   H3    S    
C93   H138  S    
Ba3   P14   S    
C111  H68   S    
C106  H46   S    
C95   H140  S    
C102  O45   S    
C27   C31   A    
C63   H6    S    
C117  H83   S    
Ba2   O12   S    
O26   P11   S    
C26   C110  A    
C49   C53   A    
C76   C94   A    
C64   C100  S    
C61   C96   S    
O39   P4    S    
C70   H128  S    
C21   O51   S    
C120  H76   S    
C98   O47   S    
C104  O54   S    
C66   P1    S    
C24   C99   A    
C112  O25   S    
C8    H18   S    
Ba1   O14   S    
C9    H19   S    
C16   H37   S    
C19   H44   S    
O9    P1    S    
C97   O46   S    
C70   C74   A    
C44   H144  S    
C11   H26   S    
C14   H31   S    
C110  H115  S    
C107  H120  S    
O20   P8    D    
C115  H77   S    
C12   O47   S    
C66   C110  A    
C88   P10   S    
C112  H64   S    
C47   H110  S    
C34   C38   A    
Ba1   O6    S    
C102  H14   S    
O12   P9    D    
C40   C67   A    
Ba1   Ba2   S    
C33   H143  S    
C113  C117  S    
O35   P15   D    
C113  H70   S    
C18   H41   S    
C94   H139  S    
C58   H125  S    
C74   P2    S    
C103  O55   S    
C81   C94   A    
C4    C35   A    
C119  H65   S    
O55   P15   S    
C97   H99   S    
Ba3   O7    S    
O18   P6    D    
C41   C68   A    
Ba3   O33   S    
C120  O29   S    
C13   C88   A    
C114  H75   S    
C21   H50   S    
O40   P16   D    
C109  H67   S    
C49   C89   S    
C15   H33   S    
C99   P11   S    
C51   C91   S    
C104  H16   S    
C2    H116  S    
C73   C91   A    
C108  H24   S    
Ba2   O15   S    
C45   H107  S    
C98   H10   S    
C82   C95   A    
C60   H127  S    
C19   C20   S    
C101  O49   S    
C52   C59   A    
C103  O51   S    
C96   O44   S    
C101  H12   S    
C112  H69   S    
O38   P3    S    
C40   C47   A    
C52   H119  S    
C8    O44   S    
C18   H43   S    
O24   P9    S    
O45   P12   S    
C50   C54   A    
C29   C69   S    
C84   C89   A    
C25   H59   S    
C61   H150  S    
C105  H142  S    
O31   P12   D    
C44   C120  S    
C10   H22   S    
Ba4   P15   S    
C116  H82   S    
Ba1   P12   S    
O25   P10   S    
O13   P11   S    
O53   P13   S    
Ba3   P10   S    
C96   H97   S    
C19   O50   S    
C109  H62   S    
C119  H85   S    
C62   O2    S    
C42   H114  S    
C79   P13   S    
O7    P15   S    
C50   C90   S    
C113  H66   S    
C109  C114  S    
O22   P1    S    
C12   C14   S    
C17   O49   S    
C12   H29   S    
C7    C99   A    
O14   P6    S    
C37   P8    S    
C48   C52   A    
C63   C98   S    
C5    C77   A    
