data_mof_unit_13496.cif
_audit_creation_date              2013-03-05T16:00:46-0500
_audit_creation_method            fapswitch 2.2
_symmetry_space_group_name_H-M    P1
_symmetry_Int_Tables_number       1
_space_group_crystal_system       triclinic
_cell_length_a                    20.733337
_cell_length_b                    21.526244
_cell_length_c                    14.176153
_cell_angle_alpha                 90.011521
_cell_angle_beta                  90.057961
_cell_angle_gamma                 90.010439
_cell_volume                      6326.96772512

loop_
_atom_site_label
_atom_site_type_symbol
_atom_site_description
_atom_site_fract_x
_atom_site_fract_y
_atom_site_fract_z
_atom_type_partial_charge
O1    O     O_R   0.066090 0.433930 0.580280 -0.609969
O2    O     O_R   0.933910 0.566070 0.419720 -0.594632
O3    O     O_R   0.933910 0.566070 0.580280 -0.608738
O4    O     O_R   0.066090 0.433930 0.419720 -0.598305
O5    O     O_R   0.933910 0.433930 0.419720 -0.621119
O6    O     O_R   0.066090 0.566070 0.580280 -0.658937
O7    O     O_R   0.066090 0.566070 0.419720 -0.607727
O8    O     O_R   0.933910 0.433930 0.580280 -0.656804
O9    O     O_R   0.566090 0.933930 0.580280 -0.611821
O10   O     O_R   0.433910 0.066070 0.419720 -0.669393
O11   O     O_R   0.433910 0.066070 0.580280 -0.612799
O12   O     O_R   0.566090 0.933930 0.419720 -0.667484
O13   O     O_R   0.433910 0.933930 0.419720 -0.609350
O14   O     O_R   0.566090 0.066070 0.580280 -0.596848
O15   O     O_R   0.566090 0.066070 0.419720 -0.612716
O16   O     O_R   0.433910 0.933930 0.580280 -0.585453
C1    C     C_R   0.086141 0.413509 0.499979 0.950132
C2    C     C_R   0.913851 0.586509 0.499954 0.949013
C3    C     C_R   0.913096 0.414264 0.499884 0.932006
C4    C     C_R   0.087112 0.585652 0.499805 0.932252
C5    C     C_R   0.585857 0.913323 0.500197 0.936583
C6    C     C_R   0.414221 0.086768 0.500126 0.942497
C7    C     C_R   0.413321 0.913762 0.499998 0.943419
C8    C     C_R   0.586791 0.085941 0.500311 0.938621
Zn1   Zn    Zn3+2 1.000000 0.500000 0.607200 0.974237
Zn2   Zn    Zn3+2 1.000000 0.500000 0.392800 0.993921
Zn3   Zn    Zn3+2 0.500000 1.000000 0.607200 0.998315
Zn4   Zn    Zn3+2 0.500000 1.000000 0.392800 0.963769
C9    C     C_R   0.124734 0.685988 0.449310 0.416350
C10   C     C_R   0.879094 0.310793 0.458714 0.399432
C11   C     C_R   0.882112 0.692626 0.542444 0.372687
C12   C     C_R   0.117378 0.306964 0.540505 0.381094
C13   C     C_R   0.621183 0.188117 0.548872 0.398099
C14   C     C_R   0.378062 0.811318 0.549401 0.398310
C15   C     C_R   0.385482 0.196408 0.476030 0.363814
C16   C     C_R   0.614489 0.803811 0.475494 0.364006
C17   C     C_R   0.137598 0.630842 0.497027 -0.244746
C18   C     C_R   0.864074 0.367833 0.499290 -0.227188
C19   C     C_R   0.867350 0.635399 0.500032 -0.220840
C20   C     C_R   0.132616 0.364641 0.500031 -0.226222
C21   C     C_R   0.635697 0.132627 0.502687 -0.225568
C22   C     C_R   0.365478 0.865690 0.499095 -0.280857
C23   C     C_R   0.367929 0.135737 0.501936 -0.249485
C24   C     C_R   0.632040 0.864301 0.502304 -0.244940
C25   C     C_R   0.198386 0.617560 0.535921 0.351185
C26   C     C_R   0.803346 0.380400 0.538589 0.341954
C27   C     C_R   0.807260 0.622980 0.460432 0.382963
C28   C     C_R   0.193050 0.377471 0.462141 0.382440
C29   C     C_R   0.697364 0.120360 0.466324 0.375335
C30   C     C_R   0.310347 0.872694 0.442554 0.435916
C31   C     C_R   0.306466 0.120813 0.534188 0.390523
C32   C     C_R   0.693346 0.878993 0.535566 0.392207
C33   C     C_R   0.247348 0.662371 0.529044 -0.044892
C34   C     C_R   0.755888 0.334133 0.535073 -0.049566
C35   C     C_R   0.757029 0.665736 0.473520 -0.078944
C36   C     C_R   0.243152 0.334585 0.475319 -0.078574
C37   C     C_R   0.745549 0.165154 0.478174 -0.060855
C38   C     C_R   0.268038 0.822554 0.432677 0.000691
C39   C     C_R   0.259744 0.167586 0.542216 -0.070929
C40   C     C_R   0.739933 0.832113 0.543659 -0.072228
C41   C     C_R   0.234131 0.719300 0.482308 -0.145175
C42   C     C_R   0.773487 0.273446 0.505451 -0.140388
C43   C     C_R   0.772193 0.725579 0.509390 -0.143532
C44   C     C_R   0.227687 0.274405 0.509519 -0.143998
C45   C     C_R   0.728090 0.225440 0.509515 -0.143851
C46   C     C_R   0.279931 0.767101 0.484000 -0.173909
C47   C     C_R   0.275665 0.228595 0.512339 -0.151727
C48   C     C_R   0.724203 0.771366 0.512252 -0.152468
C49   C     C_R   0.174420 0.729124 0.435748 -0.044155
C50   C     C_R   0.836297 0.261016 0.470276 -0.081966
C51   C     C_R   0.835550 0.739799 0.541146 -0.050634
C52   C     C_R   0.164037 0.259858 0.539487 -0.052236
C53   C     C_R   0.665091 0.237591 0.543922 -0.084082
C54   C     C_R   0.337098 0.759817 0.538053 -0.074503
C55   C     C_R   0.339711 0.243897 0.485474 -0.058314
C56   C     C_R   0.660318 0.756286 0.484049 -0.056972
C57   C     C_R   0.309683 0.651501 0.566597 0.349547
C58   C     C_R   0.691232 0.347189 0.560428 0.350918
C59   C     C_R   0.692182 0.648747 0.457011 0.401138
C60   C     C_R   0.308124 0.351723 0.460543 0.400674
C61   C     C_R   0.810838 0.151171 0.458341 0.385240
C62   C     C_R   0.214680 0.826358 0.371061 0.394401
C63   C     C_R   0.198123 0.154741 0.579733 0.404643
C64   C     C_R   0.801239 0.844613 0.582686 0.406326
C65   C     C_R   0.856047 0.199375 0.452122 0.407521
C66   C     C_R   0.166036 0.780946 0.375969 0.301837
C67   C     C_R   0.149198 0.199162 0.571375 0.353959
C68   C     C_R   0.850172 0.800206 0.574555 0.360183
C69   C     C_R   0.353684 0.700796 0.574543 0.398054
C70   C     C_R   0.646291 0.298750 0.567532 0.396703
C71   C     C_R   0.643594 0.693622 0.465843 0.373407
C72   C     C_R   0.356617 0.306728 0.469146 0.372395
C73   C     C_R   0.943866 0.511582 0.798602 0.486635
C74   C     C_R   0.056150 0.488386 0.201130 0.477370
C75   C     C_R   0.056123 0.488358 0.798772 0.485943
C76   C     C_R   0.943835 0.511553 0.200965 0.473226
C77   C     C_R   0.443866 0.988139 0.798768 0.476574
C78   C     C_R   0.556051 0.011870 0.201357 0.479859
C79   C     C_R   0.556079 0.011926 0.798960 0.473207
C80   C     C_R   0.443913 0.988328 0.201226 0.476451
N1    N     N_R   1.000000 0.500000 0.750030 -0.224220
N2    N     N_R   1.000000 0.500000 0.249970 -0.230802
N3    N     N_R   0.500000 1.000000 0.750030 -0.234348
N4    N     N_R   0.500000 1.000000 0.249970 -0.224991
C81   C     C_R   0.057401 0.488048 0.899169 -0.117400
C82   C     C_R   0.943227 0.514327 0.100625 -0.117292
C83   C     C_R   0.942573 0.511784 0.898993 -0.117853
C84   C     C_R   0.056733 0.485532 0.100801 -0.116526
C85   C     C_R   0.556613 0.014804 0.899273 -0.111508
C86   C     C_R   0.442562 0.988119 0.100813 -0.119004
C87   C     C_R   0.443179 0.985653 0.899136 -0.109970
C88   C     C_R   0.557329 0.012343 0.100928 -0.119990
C89   C     C_R   0.999987 0.499923 0.949485 -0.164330
C90   C     C_R   0.999982 0.499928 0.050303 -0.162646
C91   C     C_R   0.499905 0.000225 0.949627 -0.164224
C92   C     C_R   0.499930 0.000231 0.050455 -0.161641
C93   C     C_R   0.115006 0.477239 0.950515 0.387819
C94   C     C_R   0.886621 0.529469 0.049323 0.385359
C95   C     C_R   0.884945 0.522464 0.950157 0.387505
C96   C     C_R   0.113309 0.470297 0.049682 0.385608
C97   C     C_R   0.613101 0.030263 0.950497 0.379610
C98   C     C_R   0.384894 0.977318 0.049523 0.380083
C99   C     C_R   0.386552 0.970644 0.950268 0.377770
C100  C     C_R   0.614910 0.023502 0.049707 0.383207
O17   O     O_3   0.062195 0.697210 0.420320 -0.717623
H1    H     H_    0.050450 0.739251 0.443245 0.357123
O18   O     O_3   0.936617 0.305036 0.410397 -0.725155
H2    H     H_    0.927444 0.281600 0.351659 0.365037
O19   O     O_3   0.940254 0.702647 0.588338 -0.708741
H3    H     H_    0.974109 0.675297 0.562236 0.343021
O20   O     O_3   0.058584 0.296415 0.584122 -0.685631
H4    H     H_    0.025076 0.323951 0.557391 0.357137
O21   O     O_3   0.562865 0.192971 0.595255 -0.709507
H5    H     H_    0.571821 0.211692 0.657830 0.361752
O22   O     O_3   0.431347 0.809909 0.607801 -0.702240
H6    H     H_    0.416856 0.793277 0.669410 0.362043
O23   O     O_3   0.445061 0.210129 0.436639 -0.692091
H7    H     H_    0.475505 0.175193 0.443743 0.360380
O24   O     O_3   0.554848 0.790506 0.435859 -0.698881
H8    H     H_    0.523588 0.824131 0.448276 0.354669
O25   O     O_3   0.209580 0.563135 0.585246 -0.734298
H9    H     H_    0.182399 0.529416 0.559339 0.352089
O26   O     O_3   0.789845 0.436476 0.582297 -0.730312
H10   H     H_    0.817170 0.469791 0.555663 0.350895
O27   O     O_3   0.798792 0.567619 0.412716 -0.717740
H11   H     H_    0.773347 0.576731 0.355119 0.376703
O28   O     O_3   0.201889 0.433261 0.415783 -0.718506
H12   H     H_    0.227823 0.424675 0.358538 0.376883
O29   O     O_3   0.711486 0.066525 0.416851 -0.708019
H13   H     H_    0.680568 0.033329 0.432964 0.337033
O30   O     O_3   0.295227 0.928853 0.400244 -0.656525
H14   H     H_    0.315860 0.963380 0.435004 0.325682
O31   O     O_3   0.292708 0.059182 0.551872 -0.728262
H15   H     H_    0.254464 0.048483 0.513027 0.367988
O32   O     O_3   0.707090 0.940515 0.554266 -0.729627
H16   H     H_    0.745776 0.951308 0.516555 0.368954
O33   O     O_3   0.329734 0.592973 0.593044 -0.717471
H17   H     H_    0.319348 0.564600 0.540012 0.397512
O34   O     O_3   0.669498 0.407223 0.572457 -0.707879
H18   H     H_    0.684438 0.431513 0.517174 0.393802
O35   O     O_3   0.676908 0.586878 0.441694 -0.718072
H19   H     H_    0.631169 0.582472 0.422862 0.389019
O36   O     O_3   0.323525 0.413741 0.447070 -0.721238
H20   H     H_    0.369430 0.418338 0.429375 0.388656
O37   O     O_3   0.832487 0.090769 0.450078 -0.723507
H21   H     H_    0.811215 0.065911 0.500070 0.372619
O38   O     O_3   0.211816 0.873598 0.305059 -0.676126
H22   H     H_    0.189674 0.858088 0.247742 0.341804
O39   O     O_3   0.186649 0.098432 0.623978 -0.709813
H23   H     H_    0.144338 0.098994 0.656259 0.387973
O40   O     O_3   0.812378 0.900555 0.628247 -0.713808
H24   H     H_    0.854438 0.899729 0.661328 0.387664
O41   O     O_3   0.920770 0.186909 0.436691 -0.732535
H25   H     H_    0.927063 0.142971 0.418414 0.384829
O42   O     O_3   0.111483 0.785331 0.320245 -0.735177
H26   H     H_    0.100221 0.829789 0.312593 0.341953
O43   O     O_3   0.086884 0.180842 0.590629 -0.702177
H27   H     H_    0.060703 0.191266 0.534188 0.388027
O44   O     O_3   0.912335 0.818313 0.595461 -0.714372
H28   H     H_    0.939061 0.808022 0.539586 0.360505
O45   O     O_3   0.415128 0.691007 0.610061 -0.726776
H29   H     H_    0.418065 0.649900 0.640976 0.384787
O46   O     O_3   0.582257 0.311063 0.588268 -0.721673
H30   H     H_    0.577230 0.353852 0.612679 0.386442
O47   O     O_3   0.580217 0.674272 0.461337 -0.701465
H31   H     H_    0.557186 0.693562 0.515200 0.397199
O48   O     O_3   0.420041 0.326076 0.466349 -0.698763
H32   H     H_    0.442807 0.305785 0.519651 0.399725
O49   O     O_3   0.888148 0.524957 0.750388 -0.691313
H33   H     H_    0.887880 0.499144 0.693223 0.370202
O50   O     O_3   0.113394 0.480271 0.248429 -0.706060
H34   H     H_    0.110870 0.502951 0.308219 0.392358
O51   O     O_3   0.111868 0.475115 0.750714 -0.692480
H35   H     H_    0.111988 0.500852 0.693501 0.370590
O52   O     O_3   0.886597 0.519643 0.248110 -0.707190
H36   H     H_    0.889196 0.497054 0.307968 0.390877
O53   O     O_3   0.386803 0.979291 0.751234 -0.699242
H37   H     H_    0.388903 0.002573 0.691908 0.395488
O54   O     O_3   0.611767 0.024934 0.249666 -0.682208
H38   H     H_    0.612151 0.998311 0.305978 0.360163
O55   O     O_3   0.613293 0.020216 0.751736 -0.702816
H39   H     H_    0.610886 0.997400 0.692022 0.396333
O56   O     O_3   0.388226 0.975196 0.249375 -0.666896
H40   H     H_    0.387930 0.001549 0.306002 0.364902
O57   O     O_3   0.173341 0.470005 0.903962 -0.586474
C101  C     C_3   0.213820 0.522151 0.920137 0.118241
H41   H     H_    0.262793 0.504439 0.937180 0.175711
H42   H     H_    0.198863 0.552095 0.980682 0.133372
C102  C     C_3   0.217843 0.561886 0.830762 -0.285985
H43   H     H_    0.233950 0.532470 0.770824 0.301405
H44   H     H_    0.169350 0.580940 0.814067 0.223990
C103  C     C_3   0.264971 0.615803 0.842548 -0.896348
H45   H     H_    0.249512 0.646423 0.901412 0.255785
H46   H     H_    0.266211 0.643640 0.776626 0.288306
H47   H     H_    0.314299 0.598069 0.857035 0.274601
O58   O     O_3   0.830624 0.546606 0.096074 -0.590025
C104  C     C_3   0.818144 0.610779 0.082534 0.138323
H48   H     H_    0.765035 0.617336 0.085346 0.168901
H49   H     H_    0.833945 0.628635 0.012380 0.149746
C105  C     C_3   0.849007 0.649479 0.161388 -0.324357
H50   H     H_    0.832345 0.632162 0.230970 0.261525
H51   H     H_    0.902336 0.644875 0.158128 0.232083
C106  C     C_3   0.831106 0.718008 0.152771 -0.961184
H52   H     H_    0.848162 0.736994 0.084344 0.279584
H53   H     H_    0.854153 0.744624 0.210846 0.279353
H54   H     H_    0.778002 0.723969 0.157869 0.267540
O59   O     O_3   0.826576 0.529425 0.903439 -0.586138
C107  C     C_3   0.786527 0.476912 0.919007 0.119984
H55   H     H_    0.737439 0.494198 0.936203 0.176104
H56   H     H_    0.801781 0.446815 0.979248 0.128622
C108  C     C_3   0.782720 0.437551 0.829174 -0.287307
H57   H     H_    0.766581 0.467174 0.769456 0.299810
H58   H     H_    0.831289 0.418715 0.812522 0.223412
C109  C     C_3   0.735757 0.383436 0.840095 -0.905884
H59   H     H_    0.751346 0.352513 0.898546 0.255801
H60   H     H_    0.734541 0.355994 0.773757 0.286387
H61   H     H_    0.686387 0.400944 0.854769 0.274318
O60   O     O_3   0.169286 0.453104 0.096586 -0.589398
C110  C     C_3   0.181586 0.388873 0.083326 0.140793
H62   H     H_    0.234738 0.382379 0.084131 0.168882
H63   H     H_    0.164395 0.370516 0.014096 0.146344
C111  C     C_3   0.152331 0.350698 0.163921 -0.324905
H64   H     H_    0.170356 0.368513 0.232553 0.261729
H65   H     H_    0.098956 0.355273 0.162674 0.226760
C112  C     C_3   0.170099 0.282120 0.155665 -0.969309
H66   H     H_    0.151701 0.262647 0.088241 0.278819
H67   H     H_    0.148233 0.255909 0.215046 0.278186
H68   H     H_    0.223288 0.276211 0.158753 0.269843
O61   O     O_3   0.668853 0.048022 0.903720 -0.587407
C113  C     C_3   0.680241 0.112507 0.916021 0.160602
H69   H     H_    0.732383 0.118603 0.931690 0.169299
H70   H     H_    0.653396 0.133886 0.976157 0.127129
C114  C     C_3   0.664189 0.147525 0.824863 -0.311182
H71   H     H_    0.690861 0.126380 0.764895 0.265332
H72   H     H_    0.611644 0.143758 0.810355 0.232597
C115  C     C_3   0.682369 0.216088 0.831953 -0.991294
H73   H     H_    0.655446 0.238683 0.890341 0.279224
H74   H     H_    0.670086 0.240013 0.764929 0.267967
H75   H     H_    0.734995 0.221171 0.844610 0.275887
O62   O     O_3   0.326708 0.969242 0.096251 -0.576595
C116  C     C_3   0.285722 0.021105 0.080956 0.168464
H76   H     H_    0.235571 0.003373 0.074780 0.171448
H77   H     H_    0.295825 0.047041 0.014397 0.136965
C117  C     C_3   0.289071 0.065816 0.164926 -0.339110
H78   H     H_    0.276377 0.040520 0.230697 0.276970
H79   H     H_    0.338952 0.084150 0.171934 0.218492
C118  C     C_3   0.242813 0.120372 0.152698 -0.953032
H80   H     H_    0.255305 0.147316 0.088435 0.272781
H81   H     H_    0.246394 0.151600 0.214862 0.273257
H82   H     H_    0.192345 0.103463 0.146895 0.277170
O63   O     O_3   0.330525 0.953724 0.903285 -0.587938
C119  C     C_3   0.316927 0.889841 0.917757 0.161657
H83   H     H_    0.264652 0.885615 0.933679 0.168694
H84   H     H_    0.343226 0.868404 0.978400 0.131349
C120  C     C_3   0.331619 0.853133 0.827795 -0.313129
H85   H     H_    0.305323 0.874098 0.767285 0.267494
H86   H     H_    0.384188 0.855452 0.813063 0.234155
C121  C     C_3   0.311619 0.785164 0.837296 -0.989641
H87   H     H_    0.338642 0.762620 0.895679 0.280342
H88   H     H_    0.322335 0.760071 0.770713 0.268317
H89   H     H_    0.259054 0.781606 0.851356 0.276307
O64   O     O_3   0.673110 0.031829 0.096463 -0.581353
C122  C     C_3   0.714384 0.980223 0.080829 0.163706
H90   H     H_    0.764557 0.998111 0.076522 0.172615
H91   H     H_    0.705107 0.955161 0.013220 0.141262
C123  C     C_3   0.710239 0.934416 0.163334 -0.345434
H92   H     H_    0.722427 0.958813 0.230131 0.272182
H93   H     H_    0.660280 0.916070 0.168741 0.220381
C124  C     C_3   0.756521 0.879957 0.150398 -0.946229
H94   H     H_    0.744507 0.853854 0.085096 0.272571
H95   H     H_    0.752405 0.847949 0.211536 0.272676
H96   H     H_    0.807054 0.896861 0.146112 0.277158

loop_
_geom_bond_atom_site_label_1
_geom_bond_atom_site_label_2
_geom_bond_distance
_ccdc_geom_bond_type
C79   N3    1.377352 A    
O56   H40   0.982898 S    
C27   O27   1.381272 S    
C80   C86   1.423723 A    
O37   H21   0.991863 S    
C8    C21   1.427893 S    
C9    O17   1.381161 S    
C122  H91   1.116255 S    
C40   C64   1.411561 A    
O39   H23   0.989909 S    
C84   C96   1.417894 A    
C63   C67   1.399119 A    
C106  H52   1.110789 S    
C14   C22   1.395208 A    
C88   C92   1.412192 A    
C2    C19   1.427387 S    
C64   O40   1.385618 S    
C85   C97   1.416966 A    
C102  C103  1.526088 S    
C105  H51   1.111146 S    
O35   H19   0.989451 S    
O15   Zn4   2.010979 S    
C106  H54   1.110924 S    
C95   O59   1.387108 S    
O22   H6    0.990879 S    
C12   C52   1.401668 A    
O57   C101  1.419920 S    
O10   C6    1.290436 A    
C104  C105  1.533309 S    
C74   C84   1.423661 A    
O64   C122  1.419905 S    
O33   H17   0.991970 S    
O7    Zn2   2.010979 S    
C78   O54   1.371392 S    
C82   C90   1.411173 A    
C13   C53   1.402742 A    
C54   C69   1.414256 A    
C81   C89   1.411700 A    
C120  H86   1.111091 S    
C110  H62   1.110924 S    
C39   C63   1.411710 A    
C53   C70   1.413326 A    
C88   C100  1.418425 A    
C93   O57   1.387165 S    
C38   C62   1.411259 A    
C114  H71   1.112012 S    
C77   C87   1.423937 A    
C118  H82   1.110773 S    
C101  H42   1.117462 S    
O6    Zn1   2.011614 S    
O2    C2    1.288828 A    
C76   N2    1.378043 A    
C84   C90   1.411200 A    
O63   C119  1.418692 S    
C46   C54   1.419453 A    
C115  H75   1.110964 S    
O45   H29   0.989402 S    
C80   N4    1.375172 A    
C124  H96   1.110773 S    
C29   C37   1.398330 A    
O13   C7    1.291101 A    
O3    C2    1.289392 A    
C20   C28   1.391438 A    
C66   O42   1.382223 S    
O55   H39   0.979820 S    
O14   C8    1.285867 A    
C14   C54   1.405540 A    
O59   C107  1.419902 S    
C119  C120  1.531048 S    
C94   C95   1.414216 A    
C83   C89   1.411729 A    
C97   C100  1.414423 A    
Zn1   N1    2.024780 S    
C16   C56   1.401563 A    
C32   C40   1.401666 A    
C39   C47   1.418938 A    
C89   C90   1.429209 A    
C33   C41   1.419810 A    
C30   O30   1.385453 S    
C38   C46   1.419567 A    
C76   O52   1.373680 S    
O28   H12   0.991320 S    
C11   C19   1.404247 A    
C117  H78   1.111641 S    
C121  H89   1.110771 S    
C115  H74   1.110238 S    
C75   N1    1.375795 A    
C65   O41   1.386136 S    
O30   H14   0.988705 S    
C36   C44   1.420023 A    
O13   Zn4   2.011616 S    
O14   Zn3   2.011614 S    
C108  C109  1.526119 S    
C15   C23   1.404744 A    
C104  H49   1.115739 S    
C59   C71   1.401511 A    
C123  C124  1.526237 S    
C12   C20   1.403935 A    
C24   C32   1.391624 A    
O16   Zn3   2.010982 S    
C11   C51   1.401362 A    
C71   O47   1.379794 S    
C27   C35   1.402449 A    
C25   C33   1.403703 A    
O54   H38   0.982813 S    
C75   O51   1.372178 S    
C112  H66   1.110787 S    
C82   C94   1.418104 A    
C122  C123  1.532419 S    
O1    Zn1   2.011860 S    
O8    Zn1   2.010982 S    
C42   C50   1.420391 A    
C81   C93   1.417345 A    
O49   H33   0.982494 S    
C99   O63   1.387023 S    
C109  H60   1.110714 S    
C59   O35   1.385921 S    
C41   C46   1.400238 A    
C107  H56   1.117496 S    
C107  H55   1.111018 S    
C10   C50   1.400850 A    
O27   H11   0.991305 S    
C9    C49   1.400182 A    
C62   O38   1.383248 S    
C72   O48   1.379919 S    
O8    C3    1.289621 A    
C78   C88   1.423997 A    
C122  H90   1.110911 S    
C87   C99   1.417713 A    
O50   H34   0.979496 S    
C111  C112  1.526073 S    
C44   C47   1.401382 A    
C77   O53   1.374159 S    
O3    Zn1   2.011442 S    
C120  C121  1.526681 S    
O58   C104  1.418536 S    
C102  H43   1.111255 S    
O60   C110  1.418524 S    
C45   C53   1.419079 A    
C73   N1    1.375675 A    
O38   H22   0.990718 S    
C116  H77   1.116436 S    
C85   C91   1.411397 A    
C101  H41   1.111033 S    
C119  H83   1.111044 S    
C34   C42   1.419959 A    
C94   O58   1.387400 S    
C113  H69   1.111187 S    
O41   H25   0.989314 S    
O12   C5    1.290589 A    
O7    C4    1.286587 A    
O18   H2    0.991717 S    
C58   C70   1.401963 A    
O52   H36   0.979532 S    
C35   C43   1.419893 A    
C32   O32   1.380193 S    
C109  H61   1.110686 S    
C69   O45   1.385525 S    
C60   C72   1.401430 A    
C33   C57   1.416786 A    
O46   H30   0.989440 S    
C60   O36   1.385933 S    
C3    C18   1.425372 S    
C6    C23   1.425979 S    
C67   O43   1.378336 S    
C5    C24   1.425351 S    
C35   C59   1.412545 A    
Zn4   N4    2.024781 S    
C111  H65   1.111167 S    
O34   H18   0.992029 S    
C103  H47   1.110701 S    
O11   Zn3   2.011442 S    
C22   C30   1.403574 A    
C118  H80   1.110876 S    
C15   C55   1.401463 A    
C115  H73   1.110919 S    
C26   C34   1.400751 A    
C116  C117  1.532154 S    
C111  H64   1.110126 S    
O61   C113  1.418705 S    
C30   C38   1.397636 A    
C110  H63   1.115992 S    
C70   O46   1.385692 S    
C51   C68   1.416486 A    
C7    C22   1.433378 S    
O40   H24   0.989894 S    
C40   C48   1.419117 A    
C77   N3    1.377927 A    
C55   C72   1.416291 A    
C25   O25   1.384001 S    
O5    C3    1.287639 A    
O4    C1    1.288365 A    
C15   O23   1.387900 S    
C98   O62   1.387804 S    
O15   C8    1.292730 A    
C120  H85   1.111773 S    
C103  H46   1.110554 S    
O43   H27   0.992182 S    
O16   C7    1.290232 A    
C73   O49   1.372299 S    
C80   O56   1.371285 S    
C108  H58   1.111206 S    
O17   H1    0.991984 S    
C37   C61   1.415242 A    
C16   C24   1.404180 A    
C31   C39   1.401989 A    
C109  H59   1.110806 S    
C17   C25   1.404632 A    
O20   H4    0.988593 S    
O9    C5    1.286221 A    
C117  H79   1.111216 S    
C86   C92   1.412114 A    
C108  H57   1.111291 S    
C52   C67   1.416484 A    
C123  H92   1.111564 S    
O9    Zn3   2.011860 S    
C68   O44   1.378360 S    
C19   C27   1.391837 A    
O19   H3    0.988334 S    
O10   Zn4   2.011859 S    
C28   C36   1.402236 A    
C76   C82   1.423753 A    
C10   O18   1.381511 S    
C31   O31   1.380015 S    
C42   C45   1.398905 A    
C121  H87   1.110737 S    
C64   C68   1.398890 A    
C37   C45   1.418725 A    
O62   C116  1.419706 S    
C36   C60   1.412450 A    
O2    Zn2   2.011859 S    
C114  C115  1.526465 S    
O4    Zn2   2.011442 S    
O24   H8    0.987590 S    
C106  H53   1.110541 S    
C98   C99   1.414801 A    
C26   O26   1.385471 S    
C57   C69   1.403693 A    
C100  O64   1.387731 S    
O44   H28   0.992159 S    
C48   C56   1.420682 A    
C21   C29   1.404112 A    
O6    C4    1.292388 A    
O23   H7    0.987023 S    
C43   C48   1.401269 A    
O11   C6    1.286708 A    
O1    C1    1.289469 A    
C83   C95   1.417163 A    
C91   C92   1.429344 A    
C29   O29   1.385927 S    
C96   O60   1.387346 S    
C74   O50   1.373767 S    
C41   C49   1.418282 A    
C107  C108  1.531409 S    
C93   C96   1.414230 A    
C112  H67   1.110564 S    
C104  H48   1.110916 S    
C13   C21   1.395074 A    
O48   H32   0.991979 S    
C11   O19   1.386094 S    
O42   H26   0.991067 S    
C62   C66   1.406208 A    
O29   H13   0.986875 S    
Zn2   N2    2.024781 S    
C123  H93   1.111200 S    
C4    C17   1.429429 S    
C118  H81   1.110683 S    
C101  C102  1.531153 S    
C23   C31   1.391858 A    
O47   H31   0.992033 S    
O21   H5    0.991601 S    
C14   O22   1.380237 S    
C113  C114  1.532508 S    
C117  C118  1.526188 S    
C78   N4    1.375618 A    
C97   O61   1.386899 S    
C63   O39   1.385541 S    
Zn3   N3    2.024780 S    
C102  H44   1.111227 S    
C75   C81   1.423480 A    
C105  H50   1.109993 S    
C110  C111  1.533029 S    
C121  H88   1.110105 S    
C105  C106  1.526107 S    
O53   H37   0.980100 S    
C16   O24   1.387525 S    
C61   C65   1.401027 A    
C86   C98   1.417870 A    
C18   C26   1.403701 A    
O36   H20   0.989448 S    
C73   C83   1.423441 A    
C56   C71   1.416312 A    
O5    Zn2   2.011616 S    
C13   O21   1.380909 S    
C58   O34   1.379305 S    
C47   C55   1.420469 A    
C103  H45   1.110827 S    
C74   N2    1.377985 A    
C119  H84   1.117408 S    
O51   H35   0.982308 S    
C114  H72   1.111420 S    
C112  H68   1.110921 S    
C9    C17   1.392098 A    
O32   H16   0.991943 S    
C116  H76   1.110950 S    
C61   O37   1.380598 S    
C124  H94   1.110869 S    
C124  H95   1.110664 S    
C87   C91   1.411406 A    
C10   C18   1.391281 A    
O12   Zn4   2.011442 S    
O31   H15   0.991977 S    
O25   H9    0.989263 S    
C50   C65   1.412400 A    
C113  H70   1.117694 S    
C43   C51   1.421440 A    
C1    C20   1.426686 S    
C12   O20   1.386112 S    
C79   O55   1.374330 S    
C49   C66   1.411708 A    
O26   H10   0.989052 S    
C44   C52   1.421659 A    
C57   O33   1.378680 S    
C28   O28   1.381378 S    
C34   C58   1.416438 A    
C79   C85   1.423412 A    
