data_mof_unit_49604.cif
_audit_creation_date              2012-12-11T15:32:14-0500
_audit_creation_method            fapswitch 2.2
_symmetry_space_group_name_H-M    P1
_symmetry_Int_Tables_number       1
_space_group_crystal_system       triclinic
_cell_length_a                    13.587554
_cell_length_b                    13.581305
_cell_length_c                    27.621509
_cell_angle_alpha                 90.467813
_cell_angle_beta                  90.22103
_cell_angle_gamma                 119.981553
_cell_volume                      4414.77731412

loop_
_atom_site_label
_atom_site_type_symbol
_atom_type_description
_atom_site_fract_x
_atom_site_fract_y
_atom_site_fract_z
_atom_type_partial_charge
C1    C     C_R   0.619432 0.898220 0.431295 0.562012
C2    C     C_R   0.100487 0.866333 0.270320 -0.096668
C3    C     C_R   0.082080 0.862886 0.219906 0.089387
C4    C     C_R   0.599726 0.218599 0.431372 0.546554
C5    C     C_R   0.234189 0.818850 0.208305 -0.132681
C6    C     C_R   0.251678 0.823642 0.258230 -0.109190
C7    C     C_R   0.184218 0.846181 0.289321 0.011139
C8    C     C_R   0.149719 0.837539 0.188755 0.024156
C9    C     C_1   0.126507 0.818339 0.137495 0.022418
C10   C     C_1   0.205457 0.853331 0.340646 -0.046707
C11   C     C_1   0.098386 0.796227 0.095588 0.048130
C12   C     C_R   0.624953 0.235000 0.208495 -0.172559
C13   C     C_1   0.634077 0.866170 0.383458 0.000031
C14   C     C_R   0.636136 0.732123 0.270684 -0.041269
C15   C     C_R   0.640725 0.719239 0.220554 0.449625
C16   C     C_R   0.279255 0.878640 0.430618 0.546268
C17   C     C_R   0.666957 0.907758 0.208802 -0.162595
C18   C     C_R   0.662085 0.920373 0.258856 -0.116876
C19   C     C_R   0.647627 0.833048 0.289931 -0.013370
C20   C     C_R   0.656645 0.807377 0.189499 0.055242
C21   C     C_1   0.672073 0.798201 0.138469 0.010092
C22   C     C_1   0.641731 0.847505 0.341311 -0.047046
C23   C     C_R   0.613822 0.217548 0.258437 -0.127007
C24   C     C_1   0.691404 0.788123 0.096736 0.024792
C25   C     C_R   0.617709 0.243414 0.620686 0.048504
C26   C     C_R   0.717221 0.334228 0.639900 -0.107636
C27   C     C_R   0.731771 0.345935 0.690050 -0.090320
C28   C     C_R   0.620962 0.901043 0.568820 0.603523
C29   C     C_R   0.648044 0.265063 0.720534 0.057434
C30   C     C_R   0.551900 0.171326 0.700709 -0.072637
C31   C     C_R   0.536431 0.161391 0.651138 -0.117963
C32   C     C_R   0.563815 0.279432 0.797828 0.406805
C33   C     C_R   0.577732 0.316247 0.845594 -0.057700
C34   C     C_R   0.666647 0.310223 0.290712 -0.021595
C35   C     C_R   0.772098 0.353679 0.844971 -0.132716
C36   C     C_R   0.758124 0.315956 0.797223 -0.178500
C37   C     C_R   0.655762 0.283586 0.772842 0.029617
C38   C     C_R   0.683749 0.359720 0.868490 -0.033689
C39   C     C_R   0.219621 0.860942 0.614056 0.018967
C40   C     C_R   0.599915 0.220168 0.569342 0.537137
C41   C     C_R   0.227524 0.953370 0.640446 -0.131155
C42   C     C_R   0.202806 0.942611 0.689475 -0.116089
C43   C     C_R   0.165672 0.838099 0.712301 0.031145
C44   C     C_R   0.145896 0.742692 0.684615 -0.110837
C45   C     C_R   0.689305 0.345268 0.190605 0.049777
C46   C     C_R   0.173502 0.754198 0.635845 -0.114409
C47   C     C_R   0.177408 0.758655 0.791835 -0.117102
C48   C     C_R   0.150543 0.740465 0.840703 -0.119287
C49   C     C_R   0.078293 0.871502 0.837333 -0.109696
C50   C     C_R   0.102825 0.887713 0.788429 -0.094930
C51   C     C_R   0.149377 0.828819 0.764937 0.034091
C52   C     C_R   0.278751 0.881037 0.567934 0.533579
C53   C     C_R   0.097358 0.793973 0.863318 0.020975
C54   C     C_R   0.634345 0.875974 0.618745 -0.036206
C55   C     C_R   0.626355 0.773024 0.633836 0.045511
C56   C     C_1   0.695116 0.365023 0.139339 0.026108
C57   C     C_R   0.629532 0.755313 0.684021 0.382566
C58   C     C_R   0.636403 0.836902 0.717947 0.020102
C59   C     C_R   0.641432 0.936464 0.701751 -0.188303
C60   C     C_R   0.642716 0.956521 0.652895 -0.165420
C61   C     C_R   0.716360 0.914401 0.799620 -0.139330
C62   C     C_R   0.724770 0.901992 0.849240 0.026192
C63   C     C_R   0.579216 0.701276 0.841233 0.016986
C64   C     C_1   0.631242 0.264721 0.383823 -0.000864
C65   C     C_R   0.570054 0.717397 0.791841 -0.065711
C66   C     C_R   0.642401 0.821713 0.770421 0.004943
C67   C     C_1   0.650600 0.290579 0.341889 -0.045124
C68   C     C_R   0.666377 0.791368 0.869301 -0.022338
C69   C     C_R   0.049666 0.761471 0.048122 0.553915
C70   C     C_R   0.714322 0.435697 0.049655 0.550330
C71   C     C_R   0.723410 0.770994 0.049402 0.563364
C72   C     C_R   0.043909 0.756007 0.910497 0.539859
C73   C     C_R   0.707347 0.427351 0.912826 0.545077
C74   C     C_R   0.714393 0.767144 0.913083 0.569652
C75   C     C_R   0.732272 0.420385 0.272904 -0.056703
C76   C     C_R   0.743777 0.437997 0.222928 0.443105
C77   C     C_2   0.617927 0.686000 0.598231 0.602456
C78   C     C_1   0.701851 0.390506 0.097323 0.034602
C79   C     C_2   0.792693 0.006725 0.878981 0.594149
C80   C     C_2   0.493974 0.590685 0.861759 0.585453
C81   C     C_2   0.992409 0.886067 0.201391 0.609787
C82   C     C_1   0.232261 0.862309 0.382767 -0.002270
Cr1   Cr    Cr6+3 0.417720 0.831920 0.499820 1.053679
Cr2   Cr    Cr6+3 0.668190 0.085770 0.500360 1.043817
Cr3   Cr    Cr6+3 0.414060 0.082260 0.499840 1.043770
Cr4   Cr    Cr6+3 0.908000 0.821090 0.979770 1.079282
Cr5   Cr    Cr6+3 0.912420 0.571130 0.979880 1.048544
Cr6   Cr    Cr6+3 0.657970 0.566940 0.980940 1.103253
F1    F     F_    0.631832 0.621881 0.202410 -0.586867
F2    F     F_    0.464052 0.250027 0.774947 -0.621000
F3    F     F_    0.806503 0.545486 0.206089 -0.586121
F4    F     F_    0.631147 0.661609 0.699833 -0.588927
H1    H     H_    0.773398 0.492457 0.297568 0.138614
H2    H     H_    0.462573 0.087282 0.636262 0.117617
H3    H     H_    0.261691 0.036456 0.624333 0.147459
H4    H     H_    0.217032 0.715284 0.774800 0.114448
H5    H     H_    0.166790 0.681051 0.860175 0.142259
H6    H     H_    0.218636 0.017608 0.709878 0.147279
H7    H     H_    0.079776 0.941800 0.768621 0.128593
H8    H     H_    0.036749 0.913661 0.853785 0.152655
H9    H     H_    0.112743 0.660018 0.700997 0.110913
H10   H     H_    0.164601 0.681088 0.615939 0.137304
H11   H     H_    0.582216 0.162920 0.183926 0.119945
H12   H     H_    0.680394 0.976776 0.185276 0.119863
H13   H     H_    0.767921 0.997193 0.783626 0.158748
H14   H     H_    0.505181 0.648780 0.769999 0.201120
H15   H     H_    0.643781 0.999186 0.726938 0.125078
H16   H     H_    0.646497 0.034468 0.641548 0.144010
H17   H     H_    0.562844 0.131906 0.271901 0.124886
H18   H     H_    0.050409 0.885768 0.294944 0.151036
H19   H     H_    0.285529 0.798521 0.184872 0.120386
H20   H     H_    0.317568 0.809063 0.272639 0.122830
H21   H     H_    0.624312 0.663932 0.294379 0.134901
H22   H     H_    0.645423 0.650031 0.530241 0.338977
H23   H     H_    0.670306 0.998548 0.273370 0.127374
H24   H     H_    0.921752 0.169054 0.881931 0.341035
H25   H     H_    0.395511 0.421323 0.851700 0.345689
H26   H     H_    0.927584 0.931266 0.145553 0.343313
H27   H     H_    0.781925 0.395835 0.616385 0.117193
H28   H     H_    0.507954 0.318387 0.863388 0.165858
H29   H     H_    0.806585 0.419121 0.705056 0.123225
H30   H     H_    0.828866 0.317497 0.778563 0.129239
H31   H     H_    0.854383 0.385314 0.862184 0.154155
H32   H     H_    0.488281 0.106538 0.723600 0.154059
O1    O     O_R   0.302900 0.805360 0.446400 -0.504080
O2    O     O_R   0.638120 0.455970 0.034270 -0.493146
O3    O     O_R   0.667540 0.672320 0.030160 -0.478321
O4    O     O_R   0.522090 0.841370 0.450730 -0.488279
O5    O     O_R   0.814460 0.840990 0.926980 -0.487892
O6    O     O_R   0.001710 0.811400 0.930110 -0.508665
O7    O     O_R   0.023410 0.659800 0.926210 -0.514013
O8    O     O_R   0.806940 0.473170 0.931090 -0.502829
O9    O     O_R   0.633420 0.451310 0.927930 -0.504138
O10   O     O_R   0.663190 0.668000 0.931580 -0.462932
O11   O     O_3   0.826130 0.653050 0.980200 -0.268509
O12   O     O_R   0.657980 0.180990 0.549630 -0.510047
O13   O     O_R   0.693280 0.995650 0.447220 -0.497265
O14   O     O_R   0.657260 0.178740 0.451050 -0.494863
O15   O     O_R   0.502640 0.195380 0.446850 -0.498082
O16   O     O_R   0.319630 0.976590 0.450330 -0.490888
O17   O     O_R   0.303680 0.807790 0.552740 -0.514086
O18   O     O_R   0.522820 0.843620 0.549310 -0.480386
O19   O     O_R   0.694060 0.998080 0.553560 -0.501544
O20   O     O_2   0.578597 0.587039 0.610421 -0.427403
O21   O     O_R   0.655785 0.716825 0.550784 -0.709152
O22   O     O_2   0.766735 0.010664 0.921020 -0.496980
O23   O     O_R   0.503420 0.197810 0.553190 -0.496028
O24   O     O_R   0.883558 0.102641 0.858325 -0.713374
O25   O     O_2   0.452855 0.587294 0.901447 -0.502891
O26   O     O_R   0.455819 0.490841 0.834422 -0.662945
O27   O     O_2   0.919759 0.881270 0.228859 -0.512363
O28   O     O_R   0.991858 0.916138 0.153139 -0.687885
O29   O     O_R   0.320350 0.978840 0.548910 -0.508445
O30   O     O_3   0.499990 0.999990 0.500010 -0.266824
O31   O     O_R   0.819150 0.845650 0.033320 -0.491256
O32   O     O_R   0.006060 0.815720 0.028680 -0.478959
O33   O     O_R   0.028100 0.664460 0.032550 -0.503667
O34   O     O_R   0.811290 0.477490 0.029660 -0.492415

loop_
_geom_bond_atom_site_label_1
_geom_bond_atom_site_label_2
_ccdc_geom_bond_type
C25   C31   A    
C7    C10   S    
C63   C65   A    
C57   F4    S    
C70   C78   S    
C41   C42   A    
C2    C7    A    
C1    O4    A    
Cr1   O4    S    
C75   C76   A    
C27   H29   S    
C39   C41   A    
Cr1   O30   S    
C54   C60   A    
C80   O26   S    
C48   H5    S    
C46   H10   S    
C12   C23   A    
C50   H7    S    
C45   C76   A    
C36   C37   A    
C17   H12   S    
Cr6   O9    S    
Cr6   O3    S    
C42   H6    S    
C25   C40   S    
C30   C31   A    
C55   C77   S    
C27   C29   A    
C68   C74   S    
C17   C20   A    
C56   C78   T    
C18   C19   A    
Cr5   O7    S    
C41   H3    S    
Cr4   O32   S    
Cr6   O2    S    
C63   C68   A    
Cr2   O30   S    
C61   C66   A    
C58   C66   S    
C32   F2    S    
C35   C36   A    
C45   C56   S    
C8    C9    S    
C3    C81   S    
C69   O33   A    
C47   H4    S    
H25   O26   S    
C61   H13   S    
C16   O1    A    
Cr3   O15   S    
C60   H16   S    
C34   C75   A    
C70   O2    A    
C39   C52   S    
C73   O8    A    
Cr2   O14   S    
C59   C60   A    
C71   O3    A    
C16   O16   A    
Cr1   O1    S    
C44   C46   A    
C50   C51   A    
C79   O22   D    
C63   C80   S    
C80   O25   D    
C23   H17   S    
C69   O32   A    
C64   C67   T    
Cr5   O11   S    
C62   C79   S    
C35   C38   A    
C26   H27   S    
Cr6   O11   S    
C12   H11   S    
C3    C8    A    
H24   O24   S    
C28   C54   S    
Cr4   O6    S    
C47   C51   A    
C5    H19   S    
Cr2   O19   S    
C25   C26   A    
C81   O27   D    
C10   C82   T    
C59   H15   S    
Cr5   O33   S    
C15   C20   A    
C70   O34   A    
Cr5   O8    S    
C34   C67   S    
C36   H30   S    
Cr4   O31   S    
C29   C30   A    
C15   F1    S    
C40   O12   A    
C47   C48   A    
C23   C34   A    
C71   O31   A    
C19   C22   S    
C16   C82   S    
C17   C18   A    
C26   C27   A    
C28   O19   A    
Cr3   O29   S    
C32   C37   A    
H26   O28   S    
C9    C11   T    
Cr3   O16   S    
C79   O24   S    
C39   C46   A    
C30   H32   S    
Cr2   O13   S    
C49   C50   A    
C55   C57   A    
C43   C44   A    
C58   C59   A    
C5    C8    A    
C28   O18   A    
C42   C43   A    
C21   C24   T    
C14   H21   S    
C77   O21   S    
C65   H14   S    
C1    O13   A    
C75   H1    S    
C72   O7    A    
Cr1   O17   S    
C54   C55   A    
Cr2   O12   S    
C40   O23   A    
C6    H20   S    
C14   C19   A    
Cr3   O23   S    
H22   O21   S    
C73   O9    A    
C12   C45   A    
C18   H23   S    
Cr1   O18   S    
C44   H9    S    
C11   C69   S    
Cr4   O5    S    
C72   O6    A    
C6    C7    A    
C48   C53   A    
C81   O28   S    
C4    C64   S    
C52   O17   A    
Cr5   O34   S    
C62   C68   A    
C32   C33   A    
C35   H31   S    
C2    C3    A    
C52   O29   A    
C77   O20   D    
Cr6   O10   S    
C4    O15   A    
C43   C51   S    
C57   C58   A    
C5    C6    A    
C49   C53   A    
C74   O10   A    
C13   C22   T    
C31   H2    S    
Cr3   O30   S    
C61   C62   A    
C76   F3    S    
C4    O14   A    
Cr4   O11   S    
C1    C13   S    
C20   C21   S    
C33   H28   S    
C65   C66   A    
C74   O5    A    
C29   C37   S    
C14   C15   A    
C33   C38   A    
C53   C72   S    
C24   C71   S    
C49   H8    S    
C38   C73   S    
C2    H18   S    
