data_mof_unit_50773.cif
_audit_creation_date              2012-12-11T14:06:30-0500
_audit_creation_method            fapswitch 2.2
_symmetry_space_group_name_H-M    P1
_symmetry_Int_Tables_number       1
_space_group_crystal_system       triclinic
_cell_length_a                    11.911509
_cell_length_b                    11.933675
_cell_length_c                    19.424024
_cell_angle_alpha                 89.817792
_cell_angle_beta                  90.075947
_cell_angle_gamma                 119.795027
_cell_volume                      2396.08335827

loop_
_atom_site_label
_atom_site_type_symbol
_atom_type_description
_atom_site_fract_x
_atom_site_fract_y
_atom_site_fract_z
_atom_type_partial_charge
C1    C     C_R   0.553526 0.475218 0.597688 0.551203
C2    C     C_R   0.410150 0.849559 0.134361 0.551934
C3    C     C_R   0.073176 0.526068 0.121851 0.551362
C4    C     C_R   0.474295 0.546899 0.121769 0.549912
C5    C     C_R   0.590297 0.445833 0.397193 0.560511
C6    C     C_R   0.521695 0.072927 0.405383 0.533128
C7    C     C_R   0.920930 0.445483 0.402458 0.535680
C8    C     C_1   0.034707 0.515205 0.858887 0.002640
C9    C     C_1   0.485696 0.520377 0.858937 0.003087
C10   C     C_1   0.479951 0.965623 0.858980 -0.000237
C11   C     C_1   0.992595 0.493974 0.726815 -0.029123
C12   C     C_R   0.524626 0.077895 0.597659 0.540781
C13   C     C_1   0.505852 0.498180 0.726880 -0.029487
C14   C     C_1   0.501811 0.007332 0.726877 -0.028744
C15   C     C_1   0.012998 0.506430 0.798208 -0.032425
C16   C     C_1   0.494152 0.506983 0.798289 -0.032123
C17   C     C_1   0.493225 0.987185 0.798293 -0.033121
C18   C     C_1   0.968586 0.477196 0.666464 0.010357
C19   C     C_1   0.522199 0.490539 0.666501 0.009279
C20   C     C_1   0.509314 0.031178 0.666472 0.010768
C21   C     C_2   0.968287 0.472662 0.333026 -0.070316
C22   C     C_2   0.576298 0.440993 0.322816 -0.065451
C23   C     C_R   0.921791 0.446211 0.597695 0.544251
C24   C     C_2   0.483780 0.987188 0.347928 -0.061688
C25   C     C_2   0.988422 0.496969 0.181444 0.258570
C26   C     C_2   0.498797 0.492885 0.183633 0.241578
C27   C     C_2   0.450200 0.901374 0.203176 0.261206
C28   C     C_2   0.960125 0.390850 0.217512 -0.106506
C29   C     C_2   0.618234 0.555166 0.211238 -0.115804
C30   C     C_2   0.366784 0.921731 0.239239 -0.142283
C31   C     C_3   0.031892 0.703442 0.208215 -0.006928
C32   C     C_3   0.986086 0.771498 0.257124 -0.393190
C33   C     C_3   0.349392 0.278371 0.187591 -0.011113
C34   C     C_2   0.913645 0.375251 0.287448 -0.107215
C35   C     C_3   0.228626 0.177047 0.224467 -0.373038
C36   C     C_3   0.623155 0.871818 0.228997 -0.021683
C37   C     C_3   0.748757 0.933142 0.269973 -0.380386
C38   C     C_2   0.646559 0.545114 0.283698 -0.108147
C39   C     C_2   0.399364 0.989757 0.303438 -0.129475
C40   C     C_R   0.451403 0.924049 0.928728 0.568643
C41   C     C_R   0.076284 0.527856 0.928637 0.557162
C42   C     C_R   0.472491 0.548967 0.928633 0.550042
Cr1   Cr    Cr6+3 0.468420 0.238090 0.499960 1.031493
Cr2   Cr    Cr6+3 0.761910 0.230330 0.499960 1.026945
Cr3   Cr    Cr6+3 0.769670 0.531580 0.499960 1.023446
Cr4   Cr    Cr6+3 0.515700 0.760130 0.026360 1.024661
Cr5   Cr    Cr6+3 0.239870 0.755570 0.026360 1.012275
Cr6   Cr    Cr6+3 0.244430 0.484300 0.026360 1.023535
H1    H     H_    0.985402 0.320228 0.199203 0.109764
H2    H     H_    0.052861 0.754558 0.157927 0.162890
H3    H     H_    0.121316 0.710601 0.230283 0.104249
H4    H     H_    0.955359 0.718915 0.306906 0.167148
H5    H     H_    0.065742 0.871159 0.267073 0.093267
H6    H     H_    0.904461 0.777179 0.233449 0.135215
H7    H     H_    0.424729 0.249134 0.190643 0.133472
H8    H     H_    0.323745 0.279604 0.132603 0.144815
H9    H     H_    0.150041 0.201100 0.219621 0.159063
H10   H     H_    0.195826 0.080834 0.201169 0.089665
H11   H     H_    0.249573 0.173381 0.279881 0.156238
H12   H     H_    0.696011 0.633513 0.182539 0.112413
H13   H     H_    0.644912 0.846387 0.177930 0.182836
H14   H     H_    0.550958 0.782553 0.256406 0.117707
H15   H     H_    0.735448 0.967726 0.320600 0.162552
H16   H     H_    0.779972 0.861060 0.279095 0.089623
H17   H     H_    0.825674 0.016254 0.241016 0.151542
H18   H     H_    0.276536 0.904135 0.216697 0.081260
H19   H     H_    0.840823 0.278411 0.303158 0.155344
H20   H     H_    0.723585 0.632164 0.306599 0.135938
H21   H     H_    0.353338 0.047296 0.312753 0.136212
H22   H     H_    0.044009 0.568714 0.319464 0.103537
H23   H     H_    0.505721 0.349652 0.300957 0.146216
H24   H     H_    0.525745 0.925826 0.341677 0.133148
O1    O     O_R   0.434830 0.101190 0.575190 -0.504085
O2    O     O_R   0.664850 0.560590 0.424150 -0.513602
O3    O     O_R   0.484380 0.363570 0.430280 -0.490308
O4    O     O_R   0.636430 0.120810 0.430280 -0.505509
O5    O     O_R   0.879190 0.515620 0.430280 -0.516227
O6    O     O_3   0.666667 0.333333 0.499980 -0.306037
O7    O     O_R   0.548200 0.655360 0.951320 -0.506329
O8    O     O_R   0.344640 0.892840 0.951320 -0.501975
O9    O     O_R   0.107160 0.451800 0.951320 -0.504511
O10   O     O_R   0.505020 0.871000 0.955840 -0.487023
O11   O     O_R   0.129000 0.634020 0.955840 -0.493903
O12   O     O_R   0.898810 0.333640 0.575190 -0.500910
O13   O     O_R   0.365980 0.494980 0.955840 -0.497662
O14   O     O_R   0.543640 0.655270 0.102360 -0.574055
O15   O     O_R   0.344730 0.888370 0.102360 -0.533061
O16   O     O_R   0.111630 0.456360 0.102360 -0.529712
O17   O     O_R   0.500790 0.870920 0.095850 -0.469253
O18   O     O_R   0.129080 0.629870 0.095850 -0.532787
O19   O     O_R   0.370130 0.499210 0.095850 -0.484610
O20   O     O_3   0.934765 0.573179 0.200463 -0.567112
O21   O     O_3   0.393128 0.399310 0.219664 -0.567767
O22   O     O_3   0.580364 0.962435 0.221874 -0.556955
O23   O     O_R   0.666360 0.565170 0.575190 -0.499965
O24   O     O_3   0.333333 0.666667 0.026340 -0.249741
O25   O     O_R   0.480130 0.360720 0.570290 -0.491015
O26   O     O_R   0.639280 0.119410 0.570290 -0.496005
O27   O     O_R   0.880590 0.519870 0.570290 -0.496447
O28   O     O_R   0.439410 0.104260 0.424150 -0.530482
O29   O     O_R   0.895740 0.335150 0.424150 -0.513032

loop_
_geom_bond_atom_site_label_1
_geom_bond_atom_site_label_2
_ccdc_geom_bond_type
C33   H7    S    
C23   O27   A    
C11   C18   T    
Cr1   O1    S    
C32   H5    S    
Cr4   O17   S    
Cr1   O6    S    
C9    C42   S    
C3    O18   A    
C10   C40   S    
C36   C37   S    
C9    C16   T    
Cr4   O7    S    
C4    O14   A    
C10   C17   T    
C22   C38   D    
C24   C39   D    
Cr6   O9    S    
C35   H11   S    
C5    O2    A    
Cr2   O4    S    
C32   H4    S    
Cr4   O10   S    
C11   C15   S    
C5    C22   S    
Cr6   O19   S    
C37   H17   S    
C29   C38   S    
Cr5   O24   S    
C40   O8    A    
Cr3   O6    S    
Cr5   O11   S    
C12   O26   A    
C7    O5    A    
C4    O19   A    
C26   O21   S    
C28   C34   S    
C42   O7    A    
C12   O1    A    
C27   C30   D    
C14   C17   S    
Cr2   O26   S    
Cr5   O8    S    
C36   H14   S    
C32   H6    S    
C37   H15   S    
Cr1   O3    S    
C1    C19   S    
C23   O12   A    
C13   C19   T    
C18   C23   S    
C40   O10   A    
C3    C25   S    
Cr1   O28   S    
Cr3   O27   S    
C1    O25   A    
C21   C34   D    
C7    C21   S    
Cr3   O2    S    
C25   C28   D    
Cr5   O15   S    
C5    O3    A    
C2    O17   A    
C14   C20   T    
C28   H1    S    
C31   C32   S    
C29   H12   S    
C1    O23   A    
C41   O9    A    
C12   C20   S    
Cr6   O16   S    
C39   H21   S    
C2    O15   A    
C42   O13   A    
C8    C41   S    
C30   H18   S    
C38   H20   S    
C8    C15   T    
C35   H10   S    
C2    C27   S    
Cr5   O18   S    
C31   H2    S    
C36   H13   S    
Cr3   O23   S    
C22   H23   S    
C37   H16   S    
C24   H24   S    
C25   O20   S    
Cr6   O24   S    
C3    O16   A    
Cr1   O25   S    
C31   H3    S    
Cr2   O12   S    
C33   O21   S    
C34   H19   S    
C4    C26   S    
Cr2   O29   S    
C6    O4    A    
C6    C24   S    
C21   H22   S    
C35   H9    S    
Cr2   O6    S    
C33   H8    S    
C33   C35   S    
C30   C39   S    
C36   O22   S    
Cr4   O24   S    
C26   C29   D    
C31   O20   S    
C7    O29   A    
C13   C16   S    
Cr6   O13   S    
C27   O22   S    
Cr3   O5    S    
C6    O28   A    
Cr4   O14   S    
C41   O11   A    
