data_mof_unit_56518.cif
_audit_creation_date              2012-12-10T17:43:32-0500
_audit_creation_method            fapswitch 2.2
_symmetry_space_group_name_H-M    P1
_symmetry_Int_Tables_number       1
_space_group_crystal_system       triclinic
_cell_length_a                    14.971516
_cell_length_b                    10.649094
_cell_length_c                    9.961193
_cell_angle_alpha                 89.483868
_cell_angle_beta                  90.821992
_cell_angle_gamma                 93.715052
_cell_volume                      1584.59138695

loop_
_atom_site_label
_atom_site_type_symbol
_atom_type_description
_atom_site_fract_x
_atom_site_fract_y
_atom_site_fract_z
_atom_type_partial_charge
C1    C     C_R   0.509068 0.261020 0.501605 0.958047
C2    C     C_R   0.182852 0.370153 0.448514 -0.141110
C3    C     C_R   0.230550 0.478042 0.500539 -0.100099
C4    C     C_R   0.326877 0.493446 0.499491 0.966979
C5    C     C_R   0.187011 0.564131 0.575534 -0.262288
C6    C     C_R   0.591714 0.130601 0.740376 -0.131861
C7    C     C_R   0.622480 0.064278 0.850662 -0.066376
C8    C     C_R   0.639366 0.938843 0.837851 -0.185061
C9    C     C_R   0.624574 0.879228 0.714468 0.017019
C10   C     C_R   0.575908 0.938046 0.610420 0.095598
C11   C     C_R   0.564299 0.068173 0.619427 0.050646
C12   C     C_R   0.909749 0.527219 0.607598 0.075626
C13   C     C_R   0.530338 0.130190 0.503930 -0.151998
C14   C     C_R   0.523787 0.068394 0.380805 -0.156103
C15   C     C_R   0.534237 0.941663 0.372369 -0.033700
C16   C     C_R   0.514265 0.739646 0.498754 0.917505
C17   C     C_R   0.544244 0.873440 0.493198 -0.179020
C18   C     C_R   0.344397 0.418961 0.132877 0.003051
C19   C     C_R   0.263870 0.447154 0.069541 -0.123966
C20   C     C_R   0.261774 0.446359 0.929483 -0.250363
C21   C     C_R   0.341344 0.422107 0.863924 -0.031940
C22   C     C_R   0.422464 0.465471 0.927332 0.119472
C23   C     C_R   0.944438 0.289650 0.343205 -0.026789
C24   C     C_R   0.422802 0.466378 0.070529 0.043755
C25   C     C_R   0.575196 0.531518 0.072701 -0.085977
C26   C     C_R   0.575327 0.530330 0.930007 -0.102705
C27   C     C_R   0.672563 0.490504 0.500783 0.956230
C28   C     C_R   0.817781 0.523227 0.609929 -0.170708
C29   C     C_R   0.767505 0.469261 0.504500 -0.124245
C30   C     C_R   0.808574 0.397705 0.406548 -0.108559
C31   C     C_R   0.901180 0.378538 0.420730 -0.051580
C32   C     C_R   0.952287 0.454809 0.513286 0.070847
C33   C     C_2   0.681155 0.774938 0.687489 0.426997
C34   C     C_R   0.038805 0.294694 0.340928 -0.079505
C35   C     C_2   0.538287 0.886007 0.236062 0.461083
C36   C     C_2   0.347981 0.287760 0.181178 0.504103
C37   C     C_2   0.337887 0.298723 0.796257 1.009702
C38   C     C_2   0.757622 0.354388 0.284635 0.898323
C39   C     C_2   0.891729 0.178429 0.285365 0.457360
C40   C     C_2   0.082987 0.226550 0.233843 0.551678
C41   C     C_2   0.221943 0.244723 0.461150 0.999853
C42   C     C_2   0.101655 0.700512 0.791319 0.455934
C43   C     C_R   0.089487 0.374841 0.431131 -0.022686
C44   C     C_R   0.045594 0.458602 0.513209 0.096704
C45   C     C_R   0.095409 0.546905 0.595706 0.040897
C46   C     C_R   0.052003 0.617784 0.691901 -0.045751
C47   C     C_R   0.958948 0.604438 0.698145 -0.148840
H1    H     H_    0.785838 0.571188 0.689117 0.161480
H2    H     H_    0.924218 0.656975 0.771779 0.189633
H3    H     H_    0.510692 0.118958 0.288861 0.197823
H4    H     H_    0.705526 0.720112 0.770536 0.023388
H5    H     H_    0.578020 0.806132 0.219127 0.086760
H6    H     H_    0.411688 0.249071 0.199811 0.097574
H7    H     H_    0.394532 0.134009 0.771715 0.353097
H8    H     H_    0.653621 0.248495 0.206290 0.338427
H9    H     H_    0.833262 0.138894 0.337816 0.073989
H10   H     H_    0.118738 0.143704 0.256225 0.140401
H11   H     H_    0.331165 0.144258 0.473284 0.342326
H12   H     H_    0.594273 0.230688 0.753540 0.193631
H13   H     H_    0.172131 0.691551 0.812422 0.065589
H14   H     H_    0.640658 0.113130 0.942979 0.161745
H15   H     H_    0.673469 0.892888 0.919514 0.142303
H16   H     H_    0.636611 0.557956 0.126639 0.169519
H17   H     H_    0.201529 0.434831 0.122875 0.204087
H18   H     H_    0.197433 0.431401 0.878942 0.207001
H19   H     H_    0.637118 0.553386 0.878495 0.133294
H20   H     H_    0.226336 0.641613 0.621205 0.142601
N1    N     N_R   0.499150 0.498800 0.142780 -0.131569
N2    N     N_R   0.499120 0.498720 0.857170 -0.116681
O1    O     O_R   0.500000 0.316780 0.614690 -0.617160
O2    O     O_2   0.499393 0.931095 0.140249 -0.570731
O3    O     O_2   0.280857 0.216607 0.185535 -0.586543
O4    O     O_2   0.269975 0.260749 0.736109 -0.606464
O5    O     O_R   0.407163 0.218539 0.816561 -0.799056
O6    O     O_2   0.783127 0.390022 0.173739 -0.603341
O7    O     O_R   0.682093 0.271162 0.296559 -0.822958
O8    O     O_2   0.911499 0.130883 0.179711 -0.500637
O9    O     O_2   0.075783 0.260447 0.117015 -0.503748
O10   O     O_2   0.173206 0.150873 0.485932 -0.602030
O11   O     O_R   0.314240 0.234197 0.459505 -0.809607
O12   O     O_R   0.499990 0.316750 0.385360 -0.623398
O13   O     O_2   0.063537 0.779119 0.853544 -0.512941
O14   O     O_R   0.367850 0.499980 0.614680 -0.634583
O15   O     O_R   0.367840 0.499960 0.385350 -0.612035
O16   O     O_R   0.500010 0.683250 0.614640 -0.612778
O17   O     O_R   0.500000 0.683220 0.385310 -0.633025
O18   O     O_R   0.632160 0.500040 0.614650 -0.652670
O19   O     O_R   0.632150 0.500020 0.385320 -0.613636
O20   O     O_2   0.707960 0.757721 0.574393 -0.605797
Zn1   Zn    Zn3+2 0.500010 0.500020 0.653130 0.972805
Zn2   Zn    Zn3+2 0.499990 0.499980 0.346870 0.977734

loop_
_geom_bond_atom_site_label_1
_geom_bond_atom_site_label_2
_ccdc_geom_bond_type
C9    C33   S    
C37   O5    S    
C27   C29   S    
C19   C20   A    
C42   O13   D    
C5    H20   S    
C41   O11   S    
C7    C8    A    
C47   H2    S    
C38   O7    S    
C45   C46   A    
C12   C28   A    
C34   C40   S    
C39   O8    D    
C28   C29   A    
O17   Zn2   S    
C25   H16   S    
C30   C31   A    
C10   C17   A    
C1    O12   A    
N1    Zn2   S    
C30   C38   S    
C18   C19   A    
C42   C46   S    
C7    H14   S    
C36   H6    S    
H7    O5    S    
C39   H9    S    
C8    C9    A    
C18   C24   A    
O15   Zn2   S    
C9    C10   A    
C19   H17   S    
C22   N2    A    
H11   O11   S    
C35   O2    D    
C13   C14   A    
C12   C32   A    
C16   O17   A    
O1    Zn1   S    
C25   N1    A    
C12   C47   A    
C15   C35   S    
C38   O6    D    
C26   H19   S    
C20   H18   S    
C42   H13   S    
C6    C11   A    
C16   C17   S    
C25   C26   A    
C5    C45   A    
C23   C31   A    
C43   C44   A    
C29   C30   A    
C33   O20   D    
C31   C32   A    
C4    O15   A    
O19   Zn2   S    
C2    C43   A    
C23   C34   A    
C32   C44   A    
C27   O18   A    
H8    O7    S    
C16   O16   A    
C40   O9    D    
C1    C13   S    
N2    Zn1   S    
C44   C45   A    
C15   C17   A    
O14   Zn1   S    
C37   O4    D    
C46   C47   A    
C28   H1    S    
C40   H10   S    
C6    H12   S    
C34   C43   A    
C3    C5    A    
C41   O10   D    
O16   Zn1   S    
C6    C7    A    
C33   H4    S    
C1    O1    A    
C2    C3    A    
C11   C13   A    
C14   H3    S    
C4    O14   A    
C23   C39   S    
C22   C24   A    
C27   O19   A    
C10   C11   A    
C24   N1    A    
O12   Zn2   S    
C36   O3    D    
C21   C37   S    
C20   C21   A    
O18   Zn1   S    
C35   H5    S    
C26   N2    A    
C14   C15   A    
C2    C41   S    
C21   C22   A    
C18   C36   S    
C3    C4    S    
C8    H15   S    
