data_mof_unit_14317.cif
_audit_creation_date              2012-12-10T17:52:17-0500
_audit_creation_method            fapswitch 2.2
_symmetry_space_group_name_H-M    P1
_symmetry_Int_Tables_number       1
_space_group_crystal_system       triclinic
_cell_length_a                    19.102748
_cell_length_b                    10.732236
_cell_length_c                    9.865975
_cell_angle_alpha                 90.139927
_cell_angle_beta                  89.122694
_cell_angle_gamma                 91.765981
_cell_volume                      2021.47321115

loop_
_atom_site_label
_atom_site_type_symbol
_atom_type_description
_atom_site_fract_x
_atom_site_fract_y
_atom_site_fract_z
_atom_type_partial_charge
C1    C     C_R   0.506875 0.260833 0.500392 0.866925
C2    C     C_R   0.853302 0.428918 0.511167 0.037025
C3    C     C_R   0.542686 0.119180 0.749721 -0.156772
C4    C     C_R   0.365277 0.497858 0.501141 0.841662
C5    C     C_R   0.529902 0.061407 0.874311 -0.155833
C6    C     C_R   0.493047 0.947943 0.879187 -0.175218
C7    C     C_R   0.475037 0.887334 0.758908 -0.177050
C8    C     C_R   0.494642 0.939473 0.631037 0.095072
C9    C     C_R   0.518757 0.063572 0.627746 0.087081
C10   C     C_R   0.515298 0.128127 0.502979 -0.125948
C11   C     C_R   0.506942 0.063656 0.380999 -0.229266
C12   C     C_R   0.289430 0.479872 0.504662 -0.050743
C13   C     C_R   0.497684 0.936762 0.382299 -0.219486
C14   C     C_R   0.491756 0.873647 0.505879 -0.130152
C15   C     C_R   0.408705 0.335374 0.142675 -0.276592
C16   C     C_R   0.495103 0.739950 0.501303 0.895255
C17   C     C_R   0.361487 0.258235 0.073926 -0.272246
C18   C     C_R   0.360405 0.257452 0.933501 0.513355
C19   C     C_R   0.407259 0.337330 0.861744 -0.290664
C20   C     C_R   0.454996 0.418491 0.928690 0.112903
C21   C     C_R   0.455318 0.418130 0.073442 0.171804
C22   C     C_R   0.542347 0.578987 0.070592 -0.129890
C23   C     C_R   0.928599 0.409962 0.516681 0.318208
C24   C     C_R   0.542525 0.578620 0.927152 -0.138226
C25   C     C_R   0.634920 0.497839 0.499035 0.894332
C26   C     C_R   0.253096 0.481767 0.629222 -0.197371
C27   C     C_R   0.181832 0.453254 0.634680 -0.152039
C28   C     C_R   0.145920 0.422990 0.515574 0.077618
C29   C     C_R   0.182493 0.420110 0.391179 -0.157093
C30   C     C_R   0.253745 0.448821 0.385709 -0.199348
C31   C     C_3   0.331241 0.113285 0.764735 0.062204
C32   C     C_3   0.298264 0.151381 0.631312 -0.328829
C33   C     C_3   0.311542 0.056835 0.518974 -0.957517
C34   C     C_R   0.069780 0.405782 0.519012 0.288758
C35   C     C_3   0.733484 0.380336 0.161799 0.080334
C36   C     C_3   0.682402 0.380303 0.044357 -0.304594
C37   C     C_3   0.701387 0.283336 0.937771 -0.991182
C38   C     C_R   0.814361 0.444766 0.630555 -0.161305
C39   C     C_R   0.744105 0.471635 0.624400 -0.273812
C40   C     C_R   0.710803 0.480512 0.498859 -0.128429
C41   C     C_R   0.749311 0.462738 0.377148 0.478376
C42   C     C_R   0.821149 0.440496 0.385404 -0.284142
H1    H     H_    0.279796 0.503892 0.722731 0.167586
H2    H     H_    0.403687 0.335683 0.754636 0.214850
H3    H     H_    0.154887 0.456343 0.731932 0.157906
H4    H     H_    0.577294 0.642572 0.872077 0.157297
H5    H     H_    0.156041 0.397536 0.297579 0.156032
H6    H     H_    0.280898 0.444995 0.288704 0.165163
H7    H     H_    0.838266 0.437873 0.728989 0.158303
H8    H     H_    0.715705 0.484397 0.718981 0.187139
H9    H     H_    0.852592 0.435522 0.293742 0.149779
H10   H     H_    0.506234 0.111198 0.284242 0.174747
H11   H     H_    0.314213 0.015813 0.788868 0.173787
H12   H     H_    0.571650 0.206898 0.750017 0.165261
H13   H     H_    0.389203 0.113357 0.752482 0.144479
H14   H     H_    0.240807 0.160032 0.646120 0.251389
H15   H     H_    0.320873 0.243145 0.599344 0.211930
H16   H     H_    0.368521 0.047942 0.501104 0.275730
H17   H     H_    0.287651 0.088629 0.423661 0.267893
H18   H     H_    0.287997 0.964287 0.546658 0.268244
H19   H     H_    0.729373 0.287492 0.212620 0.134585
H20   H     H_    0.787050 0.396026 0.118303 0.144170
H21   H     H_    0.628354 0.359661 0.083132 0.229874
H22   H     H_    0.683996 0.473974 0.996265 0.224232
H23   H     H_    0.546513 0.106717 0.967106 0.143670
H24   H     H_    0.756721 0.297194 0.903355 0.268518
H25   H     H_    0.667546 0.293608 0.848673 0.264588
H26   H     H_    0.693567 0.187807 0.979567 0.270487
H27   H     H_    0.479263 0.905922 0.976009 0.141333
H28   H     H_    0.443785 0.802157 0.768388 0.169949
H29   H     H_    0.494504 0.888409 0.285919 0.171084
H30   H     H_    0.577073 0.643050 0.123890 0.165244
H31   H     H_    0.405706 0.329092 0.250082 0.230862
H32   H     H_    0.324698 0.199166 0.130884 0.173451
N1    N     N_R   0.034669 0.382459 0.402972 -0.177850
N2    N     N_R   0.965319 0.384420 0.401865 -0.178063
N3    N     N_R   0.963521 0.428697 0.633885 -0.176943
N4    N     N_R   0.032945 0.426753 0.634979 -0.177017
N5    N     N_R   0.499340 0.498800 0.142780 -0.114064
N6    N     N_R   0.499320 0.498720 0.857170 -0.108450
O1    O     O_R   0.500000 0.316780 0.614690 -0.650395
O2    O     O_3   0.717260 0.477895 0.252713 -0.631970
O3    O     O_R   0.499990 0.316750 0.385360 -0.640622
O4    O     O_R   0.398140 0.500000 0.614700 -0.641638
O5    O     O_R   0.398130 0.499970 0.385370 -0.630636
O6    O     O_R   0.500010 0.683250 0.614640 -0.624995
O7    O     O_R   0.500000 0.683220 0.385310 -0.616680
O8    O     O_R   0.601870 0.500030 0.614630 -0.633169
O9    O     O_R   0.601860 0.500000 0.385300 -0.558830
O10   O     O_3   0.306658 0.190289 0.870889 -0.643546
Zn1   Zn    Zn3+2 0.500000 0.500020 0.653130 0.918575
Zn2   Zn    Zn3+2 0.500000 0.499980 0.346870 0.949563

loop_
_geom_bond_atom_site_label_1
_geom_bond_atom_site_label_2
_ccdc_geom_bond_type
C6    H27   S    
C33   H16   S    
C41   C42   A    
C19   C20   A    
C23   N2    A    
C7    H28   S    
C7    C8    A    
C38   H7    S    
N3    N4    A    
O3    Zn2   S    
C26   C27   A    
C29   H5    S    
C30   H6    S    
C28   C29   A    
C22   N5    A    
O6    Zn1   S    
C25   C40   S    
C38   C39   A    
C3    H12   S    
C1    O1    A    
C37   H26   S    
C18   C19   A    
C11   H10   S    
O5    Zn2   S    
C35   C36   S    
C8    C9    A    
C16   O7    A    
O4    Zn1   S    
C4    C12   S    
C36   H21   S    
C9    C10   A    
C34   N1    A    
C27   H3    S    
C28   C34   S    
C33   H17   S    
O7    Zn2   S    
C16   O6    A    
C32   H15   S    
C22   H30   S    
C35   O2    S    
C24   N6    A    
C26   H1    S    
C20   N6    A    
C18   O10   S    
C5    H23   S    
C39   C40   A    
C4    O5    A    
C13   H29   S    
C25   O8    A    
C23   N3    A    
C12   C26   A    
N1    N2    A    
C29   C30   A    
C3    C9    A    
C2    C38   A    
C31   C32   S    
C4    O4    A    
O8    Zn1   S    
C31   O10   S    
C37   H24   S    
C21   N5    A    
C17   C18   A    
C35   H19   S    
C31   H11   S    
O9    Zn2   S    
N5    Zn2   S    
C40   C41   A    
C15   H31   S    
C33   H18   S    
C17   H32   S    
C14   C16   S    
C2    C23   S    
C19   H2    S    
C15   C17   A    
C36   C37   S    
C8    C14   A    
C12   C30   A    
C1    C10   S    
C3    C5    A    
C6    C7    A    
C1    O3    A    
C42   H9    S    
C25   O9    A    
C24   H4    S    
C32   C33   S    
N6    Zn1   S    
C36   H22   S    
C34   N4    A    
C11   C13   A    
C5    C6    A    
C2    C42   A    
C41   O2    S    
C37   H25   S    
C35   H20   S    
C22   C24   A    
C10   C11   A    
O1    Zn1   S    
C15   C21   A    
C39   H8    S    
C20   C21   A    
C27   C28   A    
C31   H13   S    
C13   C14   A    
C32   H14   S    
