data_mof_unit_19183.cif
_audit_creation_date              2012-12-10T19:15:19-0500
_audit_creation_method            fapswitch 2.2
_symmetry_space_group_name_H-M    P1
_symmetry_Int_Tables_number       1
_space_group_crystal_system       triclinic
_cell_length_a                    13.462938
_cell_length_b                    14.760449
_cell_length_c                    15.987924
_cell_angle_alpha                 90.230391
_cell_angle_beta                  90.144709
_cell_angle_gamma                 72.302602
_cell_volume                      3026.72156931

loop_
_atom_site_label
_atom_site_type_symbol
_atom_type_description
_atom_site_fract_x
_atom_site_fract_y
_atom_site_fract_z
_atom_type_partial_charge
C1    C     C_R   0.500305 0.500132 0.659118 0.823885
C2    C     C_R   0.980214 0.456649 0.495462 0.090781
C3    C     C_R   0.873899 0.476580 0.472337 0.029437
C4    C     C_R   0.032438 0.524898 0.477265 0.096305
C5    C     C_R   0.980527 0.607460 0.430921 0.149663
C6    C     C_R   0.880735 0.619470 0.399888 -0.243466
C7    C     C_R   0.828628 0.554493 0.419203 -0.180097
C8    C     C_R   0.134421 0.514158 0.504487 -0.269245
C9    C     C_R   0.131957 0.663905 0.440632 -0.018917
C10   C     C_R   0.815765 0.417724 0.502398 -0.208819
C11   C     C_R   0.580819 0.443619 0.043042 -0.179658
C12   C     C_R   0.700848 0.449342 0.498356 0.800825
C13   C     C_R   0.496227 0.502289 0.087364 0.139476
C14   C     C_R   0.410000 0.561382 0.044855 -0.226651
C15   C     C_R   0.407101 0.561952 0.957071 0.010975
C16   C     C_R   0.493487 0.502500 0.912729 0.108107
C17   C     C_R   0.579491 0.443854 0.955985 -0.198759
C18   C     C_1   0.497573 0.501289 0.176783 -0.066763
C19   C     C_1   0.497082 0.501859 0.823122 -0.073602
C20   C     C_1   0.499164 0.500986 0.748126 -0.181540
C21   C     C_1   0.498697 0.500376 0.251804 -0.184702
C22   C     C_R   0.516938 0.043619 0.425216 -0.198354
C23   C     C_R   0.499782 0.499965 0.340862 0.814126
C24   C     C_R   0.500533 0.097148 0.499534 0.025117
C25   C     C_R   0.484730 0.052833 0.573663 -0.212853
C26   C     C_R   0.483899 0.957036 0.574318 0.016575
C27   C     C_R   0.500651 0.902754 0.499114 -0.047282
C28   C     C_R   0.518103 0.947132 0.423961 0.004318
C29   C     C_1   0.500262 0.197248 0.499794 0.132178
C30   C     C_1   0.500203 0.802510 0.499523 0.140918
C31   C     C_R   0.299394 0.550599 0.497408 0.794919
C32   C     C_R   0.029393 0.676892 0.414839 -0.237257
C33   C     C_R   0.186211 0.579728 0.483312 -0.100343
C34   C     C_R   0.867322 0.333025 0.545606 0.445800
C35   C     C_R   0.974619 0.307766 0.558108 -0.236229
C36   C     C_R   0.030093 0.369126 0.535368 -0.270557
Cu1   Cu    Cu3+1 0.499970 0.410790 0.500000 0.983146
Cu2   Cu    Cu3+1 0.500030 0.589210 0.500000 0.977994
H1    H     H_    0.647781 0.397780 0.075791 0.138772
H2    H     H_    0.344539 0.606066 0.080159 0.137737
H3    H     H_    0.530330 0.076909 0.367798 0.139071
H4    H     H_    0.472057 0.093338 0.631482 0.133642
H5    H     H_    0.842636 0.679723 0.360636 0.137979
H6    H     H_    0.988322 0.740631 0.380551 0.142426
H7    H     H_    0.176693 0.454387 0.541954 0.151217
H8    H     H_    0.112378 0.344725 0.548670 0.153049
H9    H     H_    0.014767 0.241216 0.588532 0.153727
H10   H     H_    0.752953 0.565761 0.390787 0.160137
H11   H     H_    0.645858 0.398364 0.922238 0.137825
N1    N     N_1   0.499970 0.723300 0.500020 -0.144227
N2    N     N_1   0.500030 0.276700 0.499980 -0.154531
O1    O     O_R   0.499950 0.424690 0.619690 -0.581069
O2    O     O_R   0.500000 0.575360 0.619690 -0.561006
O3    O     O_R   0.650940 0.387890 0.499980 -0.521695
O4    O     O_R   0.650990 0.538570 0.499980 -0.587763
O5    O     O_R   0.500000 0.424640 0.380310 -0.567191
O6    O     O_R   0.500050 0.575310 0.380310 -0.575021
O7    O     O_R   0.349010 0.461430 0.500020 -0.578101
O8    O     O_R   0.349060 0.612110 0.500020 -0.565949
C37   C     C_R   0.179928 0.738671 0.420581 0.131200
C38   C     C_R   0.159857 0.819771 0.471626 -0.138001
C39   C     C_R   0.204416 0.891266 0.452807 -0.154664
C40   C     C_R   0.268865 0.882226 0.382960 -0.111196
C41   C     C_R   0.289631 0.801326 0.332068 -0.113419
C42   C     C_R   0.244982 0.729698 0.350561 -0.108993
H12   H     H_    0.109938 0.827425 0.525899 0.123566
H13   H     H_    0.188902 0.953750 0.492289 0.130070
H14   H     H_    0.302500 0.938077 0.368489 0.131866
H15   H     H_    0.340036 0.794211 0.278239 0.141656
H16   H     H_    0.261255 0.667329 0.310778 0.108908
C43   C     C_R   0.313932 0.625185 0.913871 0.115496
C44   C     C_R   0.275743 0.721995 0.935666 -0.175591
C45   C     C_R   0.188213 0.781803 0.895189 -0.144306
C46   C     C_R   0.137703 0.745540 0.832974 -0.123061
C47   C     C_R   0.174185 0.649243 0.811545 -0.143774
C48   C     C_R   0.261429 0.589092 0.852100 -0.133875
H17   H     H_    0.314517 0.751456 0.983231 0.117973
H18   H     H_    0.159863 0.856407 0.911783 0.129534
H19   H     H_    0.070184 0.792010 0.801499 0.124154
H20   H     H_    0.134615 0.621083 0.763698 0.129217
H21   H     H_    0.287477 0.514331 0.835686 0.126206
C49   C     C_R   0.536968 0.894678 0.342922 0.104945
C50   C     C_R   0.612839 0.805127 0.336261 -0.128992
C51   C     C_R   0.627536 0.754877 0.260661 -0.127277
C52   C     C_R   0.567969 0.794077 0.190619 -0.112023
C53   C     C_R   0.494212 0.883944 0.195889 -0.149503
C54   C     C_R   0.478988 0.934288 0.271472 -0.175185
H22   H     H_    0.660590 0.774152 0.389591 0.123122
H23   H     H_    0.685200 0.685543 0.256354 0.121794
H24   H     H_    0.579239 0.754991 0.132189 0.125372
H25   H     H_    0.448322 0.914399 0.141503 0.126832
H26   H     H_    0.420495 0.003316 0.274652 0.122789
C55   C     C_R   0.467782 0.914392 0.655130 0.101752
C56   C     C_R   0.534001 0.914296 0.723247 -0.150356
C57   C     C_R   0.521693 0.871015 0.798525 -0.141692
C58   C     C_R   0.443218 0.827738 0.806483 -0.103925
C59   C     C_R   0.376101 0.828577 0.739486 -0.114275
C60   C     C_R   0.387677 0.872301 0.664292 -0.142108
H27   H     H_    0.596167 0.946320 0.717607 0.125896
H28   H     H_    0.573505 0.870441 0.850530 0.126622
H29   H     H_    0.434560 0.793604 0.864566 0.128778
H30   H     H_    0.315299 0.795115 0.745635 0.148773
H31   H     H_    0.334680 0.872788 0.613122 0.126204
O9    O     O_3   0.813558 0.272771 0.573735 -0.561691
C61   C     C_3   0.790526 0.291419 0.659407 0.079908
H32   H     H_    0.746316 0.367732 0.670159 0.123294
H33   H     H_    0.863357 0.272395 0.697417 0.127534
C62   C     C_3   0.723363 0.231613 0.689155 -0.757055
H34   H     H_    0.766343 0.154838 0.681788 0.236800
H35   H     H_    0.703286 0.246875 0.756146 0.186223
H36   H     H_    0.650216 0.248589 0.652037 0.265996

loop_
_geom_bond_atom_site_label_1
_geom_bond_atom_site_label_2
_ccdc_geom_bond_type
C55   C56   A    
C18   C21   T    
C45   C46   A    
C19   C20   T    
C4    C8    A    
C35   H9    S    
C59   C60   A    
C23   O5    A    
C52   C53   A    
C61   H33   S    
C26   C27   A    
C39   C40   A    
C39   H13   S    
C31   O7    A    
Cu1   Cu2   S    
C3    C7    A    
C53   H25   S    
C5    C6    A    
Cu1   N2    S    
C22   H3    S    
C60   H31   S    
C62   H34   S    
C34   C35   A    
C31   O8    A    
C1    O2    A    
C24   C29   S    
C9    C32   A    
C8    H7    S    
Cu1   O5    S    
C38   H12   S    
Cu2   O4    S    
C57   C58   A    
C16   C17   A    
C45   H18   S    
C31   C33   S    
C36   H8    S    
C47   H20   S    
Cu1   O7    S    
C5    C32   A    
C26   C55   S    
C50   H22   S    
C30   N1    T    
C22   C28   A    
C13   C14   A    
C27   C30   S    
C9    C33   A    
C38   C39   A    
O9    C61   S    
C61   C62   S    
C46   C47   A    
C28   C49   S    
C24   C25   A    
C17   H11   S    
Cu1   O1    S    
C57   H28   S    
C4    C5    A    
C25   C26   A    
C34   O9    S    
Cu2   O8    S    
C37   C38   A    
C35   C36   A    
C48   H21   S    
C2    C4    A    
C47   C48   A    
C44   H17   S    
Cu2   O6    S    
C50   C51   A    
C58   C59   A    
C32   H6    S    
C10   C34   A    
C41   H15   S    
C51   C52   A    
C11   H1    S    
C10   C12   S    
Cu1   O3    S    
C13   C18   S    
C37   C42   A    
C46   H19   S    
C21   C23   S    
C22   C24   A    
C51   H23   S    
C54   H26   S    
C29   N2    T    
C2    C36   A    
C23   O6    A    
C40   H14   S    
C11   C17   A    
C1    C20   S    
C53   C54   A    
C59   H30   S    
C44   C45   A    
C25   H4    S    
C52   H24   S    
C6    C7    A    
Cu2   N1    S    
C15   C43   S    
C61   H32   S    
C62   H36   S    
C6    H5    S    
C9    C37   S    
C41   C42   A    
C2    C3    A    
C43   C44   A    
C3    C10   A    
C7    H10   S    
C11   C13   A    
C43   C48   A    
Cu2   O2    S    
C56   H27   S    
C16   C19   S    
C15   C16   A    
C62   H35   S    
C8    C33   A    
C56   C57   A    
C1    O1    A    
C12   O4    A    
C14   H2    S    
C40   C41   A    
C49   C50   A    
C27   C28   A    
C14   C15   A    
C42   H16   S    
C58   H29   S    
C55   C60   A    
C12   O3    A    
C49   C54   A    
