data_mof_unit_39056.cif
_audit_creation_date              2012-12-10T17:43:34-0500
_audit_creation_method            fapswitch 2.2
_symmetry_space_group_name_H-M    P1
_symmetry_Int_Tables_number       1
_space_group_crystal_system       triclinic
_cell_length_a                    15.00375
_cell_length_b                    10.722202
_cell_length_c                    9.872556
_cell_angle_alpha                 88.794335
_cell_angle_beta                  89.96931
_cell_angle_gamma                 91.818946
_cell_volume                      1587.07717944

loop_
_atom_site_label
_atom_site_type_symbol
_atom_type_description
_atom_site_fract_x
_atom_site_fract_y
_atom_site_fract_z
_atom_type_partial_charge
C1    C     C_R   0.504252 0.259520 0.502576 0.866370
C2    C     C_R   0.907268 0.491257 0.375734 0.119951
C3    C     C_R   0.953399 0.485420 0.747533 -0.220117
C4    C     C_R   0.045991 0.484736 0.747566 -0.222574
C5    C     C_R   0.092510 0.487106 0.624526 0.120890
C6    C     C_R   0.046226 0.488254 0.500149 0.061965
C7    C     C_R   0.092680 0.490457 0.375786 0.125438
C8    C     C_R   0.046357 0.490926 0.252737 -0.221676
C9    C     C_R   0.953764 0.491388 0.252709 -0.221768
C10   C     C_R   0.184731 0.489756 0.623594 -0.267202
C11   C     C_R   0.230632 0.494249 0.500146 -0.076168
C12   C     C_R   0.326600 0.498586 0.500068 0.866527
C13   C     C_R   0.184874 0.493628 0.376714 -0.279065
C14   C     C_R   0.497242 0.103156 0.764134 -0.168851
C15   C     C_R   0.462129 0.037094 0.876277 -0.153401
C16   C     C_R   0.417077 0.923518 0.858703 -0.158444
C17   C     C_R   0.415506 0.870218 0.731333 -0.151793
C18   C     C_R   0.458733 0.931394 0.619623 0.098165
C19   C     C_R   0.487594 0.055896 0.631350 0.100006
C20   C     C_R   0.506130 0.125247 0.509194 -0.123394
C21   C     C_R   0.513474 0.065026 0.385614 -0.239975
C22   C     C_R   0.502439 0.938167 0.380907 -0.213617
C23   C     C_R   0.490571 0.738664 0.498978 0.888177
C24   C     C_R   0.478119 0.870704 0.498058 -0.125986
C25   C     C_R   0.381016 0.338400 0.143686 -0.197268
C26   C     C_R   0.320942 0.258593 0.075604 0.111018
C27   C     C_R   0.320745 0.262207 0.934644 -0.255418
C28   C     C_R   0.380400 0.340403 0.863026 -0.202566
C29   C     C_R   0.440980 0.421096 0.929326 0.153390
C30   C     C_R   0.441086 0.420714 0.073901 0.134382
C31   C     C_R   0.556153 0.576030 0.069862 -0.125512
C32   C     C_R   0.556185 0.575913 0.926454 -0.117564
C33   C     C_R   0.673410 0.499435 0.499968 0.906898
C34   C     C_R   0.815168 0.494608 0.376618 -0.260002
C35   C     C_R   0.769309 0.495599 0.500007 -0.079648
C36   C     C_R   0.814991 0.491671 0.623469 -0.260435
C37   C     C_R   0.907087 0.488273 0.624462 0.120286
C38   C     C_R   0.953507 0.488764 0.500120 0.059033
H1    H     H_    0.779425 0.497054 0.281173 0.161161
H2    H     H_    0.535049 0.187544 0.785597 0.174837
H3    H     H_    0.468692 0.075201 0.976627 0.147853
H4    H     H_    0.386402 0.874489 0.944553 0.137715
H5    H     H_    0.380919 0.780781 0.721173 0.156958
H6    H     H_    0.515283 0.892896 0.286049 0.170289
H7    H     H_    0.601931 0.638039 0.122545 0.142798
H8    H     H_    0.379825 0.334596 0.250534 0.211083
H9    H     H_    0.275496 0.201260 0.879201 0.158820
H10   H     H_    0.378456 0.332570 0.755841 0.220226
H11   H     H_    0.779114 0.491745 0.718878 0.160957
H12   H     H_    0.601987 0.637861 0.870834 0.151119
H13   H     H_    0.918097 0.484611 0.843385 0.140634
H14   H     H_    0.081182 0.483421 0.843427 0.142540
H15   H     H_    0.220540 0.489270 0.719013 0.166148
H16   H     H_    0.220799 0.496006 0.281257 0.168057
H17   H     H_    0.081701 0.491987 0.156891 0.142505
H18   H     H_    0.918606 0.492813 0.156826 0.140859
H19   H     H_    0.529115 0.115721 0.292013 0.174625
N1    N     N_R   0.499150 0.498800 0.142780 -0.116726
N2    N     N_R   0.499120 0.498720 0.857170 -0.123149
O1    O     O_R   0.500000 0.316780 0.614690 -0.652918
O2    O     O_R   0.499990 0.316750 0.385360 -0.642327
O3    O     O_R   0.367850 0.499980 0.614680 -0.649846
O4    O     O_R   0.367840 0.499960 0.385350 -0.646337
O5    O     O_R   0.500010 0.683250 0.614640 -0.620522
O6    O     O_R   0.500000 0.683220 0.385310 -0.619466
O7    O     O_R   0.632160 0.500040 0.614650 -0.624245
O8    O     O_R   0.632150 0.500020 0.385320 -0.621982
Zn1   Zn    Zn3+2 0.500010 0.500020 0.653130 0.923365
Zn2   Zn    Zn3+2 0.499990 0.499980 0.346870 0.928954
C39   C     C_3   0.256382 0.167068 0.147175 -0.422410
C40   C     C_3   0.265982 0.156966 0.302073 -0.366745
C41   C     C_3   0.201638 0.057749 0.362494 -0.849898
H20   H     H_    0.131643 0.081456 0.339433 0.263705
H21   H     H_    0.215447 0.964784 0.321029 0.260264
H22   H     H_    0.210155 0.053049 0.474209 0.249370
H23   H     H_    0.335001 0.131319 0.328717 0.234131
H24   H     H_    0.251514 0.247741 0.348041 0.225564
H25   H     H_    0.187297 0.194324 0.122287 0.205903
H26   H     H_    0.266256 0.073052 0.105043 0.206080

loop_
_geom_bond_atom_site_label_1
_geom_bond_atom_site_label_2
_ccdc_geom_bond_type
O7    Zn1   S    
C39   H25   S    
C35   C36   A    
C7    C8    A    
C26   C27   A    
C29   C30   A    
C4    H14   S    
C18   C24   A    
O5    Zn1   S    
C31   N1    A    
C36   C37   A    
C34   C35   A    
C5    C6    A    
C16   C17   A    
C27   H9    S    
C15   C16   A    
C18   C19   A    
C10   H15   S    
C28   H10   S    
C29   N2    A    
C8    C9    A    
C23   C24   S    
C6    C38   A    
C39   C40   S    
C2    C34   A    
C21   C22   A    
C41   H22   S    
C8    H17   S    
C33   O7    A    
C22   H6    S    
C34   H1    S    
O4    Zn2   S    
C15   H3    S    
C41   H21   S    
C1    O1    A    
C12   O4    A    
C3    H13   S    
C4    C5    A    
C25   C26   A    
O8    Zn2   S    
C17   H5    S    
C21   H19   S    
C37   C38   A    
N2    Zn1   S    
C12   O3    A    
C2    C38   A    
C31   C32   A    
C17   C18   A    
C9    H18   S    
C32   H12   S    
C23   O5    A    
C26   C39   S    
C22   C24   A    
C3    C4    A    
C16   H4    S    
C40   H24   S    
C33   O8    A    
C13   H16   S    
O2    Zn2   S    
C25   C30   A    
C28   C29   A    
C1    C20   S    
C39   H26   S    
C14   C19   A    
C41   H20   S    
C1    O2    A    
C11   C12   S    
N1    Zn2   S    
C6    C7    A    
O3    Zn1   S    
C23   O6    A    
C19   C20   A    
C5    C10   A    
C11   C13   A    
C40   H23   S    
O6    Zn2   S    
C30   N1    A    
C33   C35   S    
C10   C11   A    
C14   H2    S    
C7    C13   A    
C40   C41   S    
C20   C21   A    
O1    Zn1   S    
C31   H7    S    
C27   C28   A    
C14   C15   A    
C32   N2    A    
C2    C9    A    
C25   H8    S    
C36   H11   S    
C3    C37   A    
