data_mof_unit_59757.cif
_audit_creation_date              2012-12-10T19:00:11-0500
_audit_creation_method            fapswitch 2.2
_symmetry_space_group_name_H-M    P1
_symmetry_Int_Tables_number       1
_space_group_crystal_system       triclinic
_cell_length_a                    9.548988
_cell_length_b                    10.855388
_cell_length_c                    13.417143
_cell_angle_alpha                 90.94454
_cell_angle_beta                  71.967214
_cell_angle_gamma                 90.934879
_cell_volume                      1322.20569929

loop_
_atom_site_label
_atom_site_type_symbol
_atom_type_description
_atom_site_fract_x
_atom_site_fract_y
_atom_site_fract_z
_atom_type_partial_charge
C1    C     C_R   0.499431 0.737647 0.504529 0.892621
C2    C     C_R   0.433840 0.488294 0.979805 0.050347
C3    C     C_R   0.466636 0.455174 0.872518 -0.032653
C4    C     C_R   0.542475 0.470540 0.030870 -0.066174
C5    C     C_R   0.667934 0.397495 0.980426 -0.204214
C6    C     C_R   0.688134 0.351683 0.878768 0.679981
C7    C     C_R   0.590006 0.381214 0.825624 -0.253093
C8    C     C_R   0.533105 0.526019 0.128897 0.420181
C9    C     C_R   0.744894 0.409832 0.136151 -0.275527
C10   C     C_R   0.371800 0.493291 0.816001 -0.161050
C11   C     C_R   0.369561 0.933729 0.521877 -0.104816
C12   C     C_R   0.420648 0.495216 0.700428 0.829640
C13   C     C_R   0.495328 0.870522 0.521040 -0.174147
C14   C     C_R   0.612613 0.937615 0.540989 0.307918
C15   C     C_R   0.606497 0.068544 0.547160 0.306366
C16   C     C_R   0.490908 0.129497 0.522806 -0.218192
C17   C     C_R   0.366777 0.060016 0.522890 -0.005286
C18   C     C_3   0.265587 0.062579 0.457484 0.391236
C19   C     C_3   0.270308 0.922417 0.454830 0.224658
C20   C     C_R   0.963824 0.466329 0.412065 0.170202
C21   C     C_R   0.890766 0.548335 0.581854 -0.079592
C22   C     C_R   0.039361 0.548792 0.581813 0.691106
C23   C     C_R   0.497128 0.262302 0.505512 0.833546
C24   C     C_R   0.111455 0.467645 0.411553 0.194401
C25   C     C_3   0.139647 0.347356 0.354539 0.177832
C26   C     C_3   0.980179 0.345369 0.355931 -0.406671
C27   C     C_R   0.579191 0.499564 0.299728 0.796655
C28   C     C_R   0.769951 0.370495 0.033226 0.717052
C29   C     C_R   0.624922 0.484278 0.185495 -0.241299
C30   C     C_R   0.233059 0.540726 0.870822 -0.184039
C31   C     C_R   0.191022 0.555204 0.979037 0.639050
C32   C     C_R   0.290428 0.531048 0.033098 -0.115389
Cu1   Cu    Cu3+1 0.359330 0.500020 0.500010 1.051513
Cu2   Cu    Cu3+1 0.640670 0.499980 0.499990 1.013140
H1    H     H_    0.816626 0.378193 0.178457 0.185857
H2    H     H_    0.314267 0.107352 0.380325 0.051745
H3    H     H_    0.163282 0.876381 0.495079 0.196663
H4    H     H_    0.807195 0.586483 0.648693 0.185886
H5    H     H_    0.167424 0.274181 0.400882 0.173143
H6    H     H_    0.967478 0.352981 0.276945 0.215964
H7    H     H_    0.913655 0.270748 0.405021 0.224003
H8    H     H_    0.157221 0.567850 0.829925 0.242483
H9    H     H_    0.249978 0.540876 0.117228 0.245955
H10   H     H_    0.608785 0.340016 0.748789 0.209569
N1    N     N_R   0.852320 0.499070 0.499340 -0.220339
N2    N     N_R   0.148230 0.499110 0.499340 -0.267630
O1    O     O_R   0.381190 0.680360 0.500000 -0.548057
O2    O     O_R   0.618780 0.680320 0.499990 -0.526424
O3    O     O_R   0.323230 0.500000 0.650990 -0.513121
O4    O     O_R   0.560820 0.499960 0.650980 -0.600730
O5    O     O_R   0.381220 0.319680 0.500010 -0.587221
O6    O     O_R   0.618810 0.319640 0.500000 -0.532265
O7    O     O_R   0.439180 0.500040 0.349020 -0.562679
O8    O     O_R   0.676770 0.500000 0.349010 -0.573268
O9    O     O_3   0.711711 0.137412 0.575185 -0.691935
H11   H     H_    0.748857 0.088428 0.623136 0.371374
F1    F     F_    0.127722 0.104225 0.515591 -0.644633
O10   O     O_3   0.339505 0.872888 0.354126 -0.714604
H12   H     H_    0.436752 0.914382 0.324335 0.313285
F2    F     F_    0.072275 0.599557 0.664705 -0.650884
O11   O     O_3   0.236983 0.360013 0.252724 -0.701063
H13   H     H_    0.328844 0.317663 0.251362 0.324999
F3    F     F_    0.804008 0.278988 0.829176 -0.573533
F4    F     F_    0.889888 0.300244 0.988002 -0.578049
O12   O     O_3   0.441382 0.625304 0.164939 -0.694033
H14   H     H_    0.474150 0.672401 0.217773 0.354610
F5    F     F_    0.054404 0.596471 0.031700 -0.635190
O13   O     O_3   0.733542 0.875116 0.549017 -0.698277
H15   H     H_    0.821951 0.928996 0.524615 0.353098

loop_
_geom_bond_atom_site_label_1
_geom_bond_atom_site_label_2
_ccdc_geom_bond_type
C6    F3    S    
C12   O4    A    
O9    H11   S    
C27   O7    A    
C1    O2    A    
Cu2   O8    S    
C6    C7    A    
C27   C29   S    
C5    C28   A    
Cu1   O5    S    
C10   C30   A    
C18   F1    S    
C23   O5    A    
C31   C32   A    
C9    C29   A    
C30   C31   A    
C4    C8    A    
C22   F2    S    
C24   N2    A    
C20   C24   A    
C18   H2    S    
C17   C18   S    
O10   H12   S    
C27   O8    A    
C8    O12   S    
C3    C10   A    
C25   O11   S    
C13   C14   A    
C25   H5    S    
C31   F5    S    
Cu1   N2    S    
C11   C13   A    
C26   H6    S    
C23   O6    A    
C5    C6    A    
C20   C26   S    
C21   N1    A    
C2    C4    A    
C10   C12   S    
C21   C22   A    
C22   N2    A    
C32   H9    S    
Cu1   Cu2   S    
C12   O3    A    
C16   C23   S    
C2    C3    A    
C11   C19   S    
C19   O10   S    
Cu1   O7    S    
O11   H13   S    
Cu1   O1    S    
Cu2   O4    S    
C1    C13   S    
C8    C29   A    
Cu1   O3    S    
C15   C16   A    
C16   C17   A    
C28   F4    S    
Cu2   O2    S    
C24   C25   S    
C26   H7    S    
C2    C32   A    
O12   H14   S    
Cu2   N1    S    
C9    H1    S    
C18   C19   S    
C14   O13   S    
C14   C15   A    
C30   H8    S    
C19   H3    S    
C3    C7    A    
C25   C26   S    
C7    H10   S    
Cu2   O6    S    
O13   H15   S    
C11   C17   A    
C21   H4    S    
C20   N1    A    
C9    C28   A    
C1    O1    A    
C4    C5    A    
C15   O9    S    
