data_mof_unit_52294.cif
_audit_creation_date              2012-12-11T14:08:32-0500
_audit_creation_method            fapswitch 2.2
_symmetry_space_group_name_H-M    P1
_symmetry_Int_Tables_number       1
_space_group_crystal_system       triclinic
_cell_length_a                    10.961518
_cell_length_b                    10.98967
_cell_length_c                    18.740565
_cell_angle_alpha                 90.21039
_cell_angle_beta                  89.884244
_cell_angle_gamma                 60.329507
_cell_volume                      1961.52544657

loop_
_atom_site_label
_atom_site_type_symbol
_atom_type_description
_atom_site_fract_x
_atom_site_fract_y
_atom_site_fract_z
_atom_type_partial_charge
C1    C     C_R   0.236671 0.644523 0.608651 0.606755
C2    C     C_2   0.784134 0.130433 0.704354 0.362699
C3    C     C_2   0.183753 0.655200 0.681279 0.417805
C4    C     C_R   0.653994 0.621345 0.601518 0.647180
C5    C     C_2   0.200541 0.668015 0.841800 0.344012
C6    C     C_2   0.228484 0.552443 0.803821 0.374437
C7    C     C_2   0.252767 0.544675 0.725828 -0.002606
C8    C     C_2   0.593879 0.594411 0.312396 0.384424
C9    C     C_2   0.639857 0.665514 0.162169 0.416086
C10   C     C_2   0.700559 0.536493 0.191402 0.396798
C11   C     C_2   0.700843 0.514404 0.268705 -0.023543
C12   C     C_3   0.679664 0.540932 0.801408 0.558288
C13   C     C_2   0.634480 0.185788 0.322046 0.311199
C14   C     C_2   0.641581 0.202615 0.162637 0.370504
C15   C     C_2   0.529881 0.235530 0.202751 0.330946
C16   C     C_R   0.627113 0.227919 0.601483 0.673365
C17   C     C_2   0.533194 0.275490 0.276237 0.271412
C18   C     C_2   0.131847 0.680078 0.339914 -0.058278
C19   C     C_2   0.005471 0.746805 0.196236 0.242619
C20   C     C_2   0.018678 0.839587 0.238915 0.301083
C21   C     C_2   0.054176 0.810853 0.315623 -0.047843
C22   C     C_R   0.703546 0.103985 0.898451 0.613162
C23   C     C_3   0.699840 0.670737 0.813505 -0.049564
C24   C     C_R   0.722622 0.686903 0.889255 0.670710
C25   C     C_R   0.120746 0.706123 0.908357 0.660017
C26   C     C_R   0.673848 0.113313 0.101278 0.579344
C27   C     C_R   0.693108 0.688429 0.095093 0.566827
C28   C     C_R   0.217764 0.650764 0.403116 0.567876
C29   C     C_R   0.016207 0.753173 0.117614 0.558945
C30   C     C_R   0.610036 0.582194 0.389742 0.578153
C31   C     C_R   0.616502 0.228854 0.395355 0.634774
C32   C     C_3   0.564105 0.803137 0.785708 0.528733
C33   C     C_3   0.541151 0.780190 0.706359 0.653546
C34   C     C_3   0.673633 0.645627 0.676852 -0.042914
C35   C     C_3   0.831897 0.657711 0.769618 0.488382
C36   C     C_3   0.806013 0.663056 0.687085 0.431007
C37   C     C_3   0.693245 0.511570 0.720273 0.493622
C38   C     C_2   0.660832 0.166467 0.671998 0.249849
C39   C     C_2   0.695631 0.169392 0.829594 0.000483
C40   C     C_2   0.804986 0.107801 0.782981 0.284836
Cr1   Cr    Cr6+3 0.393010 0.398050 0.501480 1.128933
Cr2   Cr    Cr6+3 0.398820 0.707980 0.501630 1.199102
Cr3   Cr    Cr6+3 0.708140 0.393940 0.496850 1.104922
Cr4   Cr    Cr6+3 0.937950 0.938450 0.008940 1.194272
Cr5   Cr    Cr6+3 0.626180 0.937030 0.994750 1.192477
Cr6   Cr    Cr6+3 0.937790 0.625760 0.001410 1.145794
F1    F     F_    0.583332 0.916867 0.792731 -0.616559
F2    F     F_    0.424877 0.763949 0.699280 -0.565516
F3    F     F_    0.512843 0.897823 0.666867 -0.534021
F4    F     F_    0.857496 0.765382 0.789816 -0.590576
F5    F     F_    0.546442 0.572267 0.823250 -0.558139
F6    F     F_    0.590758 0.478328 0.700201 -0.626798
F7    F     F_    0.897058 0.104539 0.663110 -0.593306
F8    F     F_    0.241728 0.437038 0.837481 -0.604541
F9    F     F_    0.075214 0.779077 0.704053 -0.548135
F10   F     F_    0.792777 0.423413 0.152242 -0.560264
F11   F     F_    0.554348 0.782509 0.200631 -0.560295
F12   F     F_    0.463509 0.682197 0.286354 -0.564376
F13   F     F_    0.420931 0.218845 0.180475 -0.577424
F14   F     F_    0.744901 0.225697 0.187845 -0.585847
H1    H     H_    0.592869 0.251057 0.812811 0.159833
H2    H     H_    0.591003 0.085278 0.739045 0.383457
H3    H     H_    0.307277 0.721410 0.781780 0.415370
H4    H     H_    0.369060 0.925231 0.813287 0.408466
H5    H     H_    0.376981 0.460834 0.257170 0.348545
H6    H     H_    0.710576 0.017065 0.262437 0.335920
H7    H     H_    0.024269 0.013731 0.247621 0.368798
H8    H     H_    0.961123 0.595344 0.189097 0.361458
H9    H     H_    0.737072 0.868142 0.688850 0.403416
H10   H     H_    0.870083 0.390850 0.830305 0.388817
H11   H     H_    0.334439 0.444867 0.705043 0.182831
H12   H     H_    0.798357 0.431522 0.290543 0.147142
H13   H     H_    0.040589 0.897713 0.349116 0.156265
H14   H     H_    0.151274 0.589527 0.308506 0.190029
H15   H     H_    0.820388 0.341981 0.666885 0.417993
H16   H     H_    0.999404 0.542917 0.825691 0.403425
H17   H     H_    0.929116 0.575682 0.603387 0.358216
H18   H     H_    0.007100 0.997282 0.770397 0.441087
O1    O     O_R   0.507110 0.256280 0.580300 -0.447767
O2    O     O_R   0.837080 0.593860 0.915300 -0.508571
O3    O     O_R   0.064770 0.636080 0.932550 -0.491778
O4    O     O_R   0.280830 0.527190 0.577940 -0.546405
O5    O     O_R   0.068250 0.829200 0.092940 -0.433594
O6    O     O_R   0.799650 0.057040 0.080330 -0.465076
O7    O     O_R   0.586130 0.079760 0.077080 -0.464579
O8    O     O_R   0.627700 0.809630 0.066580 -0.467700
O9    O     O_R   0.816140 0.597180 0.075920 -0.490753
O10   O     O_R   0.045360 0.639170 0.081440 -0.503240
O11   O     O_3   0.833980 0.833750 0.001700 -0.363422
O12   O     O_R   0.524640 0.695370 0.425100 -0.442946
O13   O     O_R   0.261360 0.738990 0.584270 -0.405685
O14   O     O_R   0.532590 0.694780 0.574370 -0.403070
O15   O     O_R   0.744470 0.503750 0.577000 -0.508060
O16   O     O_R   0.698520 0.277230 0.571620 -0.479737
O17   O     O_R   0.498530 0.256920 0.419280 -0.477079
O18   O     O_R   0.272880 0.527780 0.428680 -0.470820
O19   O     O_R   0.252780 0.739630 0.423250 -0.491468
O20   O     O_3   0.827368 0.395819 0.707082 -0.607493
O21   O     O_3   0.952956 0.529298 0.784128 -0.593964
O22   O     O_3   0.925093 0.551090 0.653955 -0.546755
O23   O     O_R   0.735890 0.504390 0.415980 -0.546734
O24   O     O_3   0.937705 0.018303 0.808976 -0.562291
O25   O     O_3   0.550640 0.163075 0.705671 -0.658265
O26   O     O_3   0.228476 0.768417 0.815235 -0.603916
O27   O     O_3   0.445816 0.831122 0.827194 -0.554834
O28   O     O_3   0.433990 0.408198 0.298906 -0.701550
O29   O     O_3   0.736196 0.049667 0.306171 -0.707686
O30   O     O_3   0.008763 0.959766 0.209710 -0.591959
O31   O     O_3   0.973520 0.651293 0.226868 -0.740530
O32   O     O_3   0.786092 0.788686 0.655508 -0.617413
O33   O     O_3   0.771119 0.421892 0.841842 -0.600848
O34   O     O_R   0.690560 0.277820 0.422350 -0.530949
O35   O     O_3   0.499990 0.499990 0.499980 -0.337955
O36   O     O_R   0.089190 0.825870 0.932320 -0.427735
O37   O     O_R   0.819070 0.053960 0.931440 -0.443935
O38   O     O_R   0.607070 0.076440 0.916460 -0.447754
O39   O     O_R   0.647110 0.806550 0.917690 -0.411583

loop_
_geom_bond_atom_site_label_1
_geom_bond_atom_site_label_2
_ccdc_geom_bond_type
C28   O19   A    
H18   O24   S    
C18   C21   D    
C35   C36   S    
H6    O29   S    
C13   O29   S    
Cr4   O5    S    
H4    O27   S    
Cr6   O11   S    
H16   O21   S    
C12   C23   S    
C24   O39   A    
C29   O5    A    
C3    C7    D    
C8    C11   D    
C7    H11   S    
C5    C6    D    
H7    O30   S    
Cr1   O18   S    
Cr1   O4    S    
C33   F3    S    
C34   C37   S    
C21   H13   S    
Cr3   O16   S    
H17   O22   S    
Cr2   O13   S    
C12   C37   S    
C29   O10   A    
C8    F12   S    
C3    F9    S    
C24   O2    A    
C19   C20   D    
Cr4   O37   S    
C23   C24   S    
Cr5   O11   S    
C9    C10   D    
C9    F11   S    
C30   O12   A    
C4    O14   A    
C22   O38   A    
C5    O26   S    
Cr4   O36   S    
C18   H14   S    
C25   O3    A    
C6    F8    S    
C35   O21   S    
C37   O20   S    
Cr6   O10   S    
C19   O31   S    
C39   H1    S    
C4    C34   S    
C18   C28   S    
H10   O33   S    
Cr2   O19   S    
C39   C40   D    
C37   F6    S    
C11   H12   S    
C1    O4    A    
H15   O20   S    
C1    C3    S    
C27   O8    A    
Cr5   O7    S    
Cr3   O23   S    
C38   O25   S    
Cr6   O3    S    
H9    O32   S    
C2    C38   D    
Cr2   O35   S    
C31   O34   A    
C35   F4    S    
C33   C34   S    
C36   O22   S    
C14   C26   S    
C27   O9    A    
C5    C25   S    
C22   O37   A    
C23   C35   S    
C32   O27   S    
C36   O32   S    
C32   F1    S    
Cr3   O34   S    
C19   C29   S    
H5    O28   S    
C12   F5    S    
C10   F10   S    
C9    C27   S    
Cr6   O9    S    
Cr5   O39   S    
C15   C17   S    
C26   O6    A    
Cr2   O14   S    
C15   F13   S    
C13   C31   S    
Cr1   O35   S    
H3    O26   S    
Cr4   O6    S    
C2    F7    S    
Cr1   O1    S    
C6    C7    S    
C14   F14   S    
C16   O16   A    
C13   C17   D    
C28   O18   A    
C16   O1    A    
C8    C30   S    
C23   C32   S    
Cr5   O8    S    
H2    O25   S    
C25   O36   A    
C32   C33   S    
Cr6   O2    S    
Cr5   O38   S    
Cr1   O17   S    
C26   O7    A    
C31   O17   A    
C22   C39   S    
C30   O23   A    
Cr3   O15   S    
C34   C36   S    
H8    O31   S    
C10   C11   S    
C40   O24   S    
C4    O15   A    
C2    C40   S    
C20   C21   S    
C1    O13   A    
C33   F2    S    
C14   C15   D    
Cr2   O12   S    
C17   O28   S    
C12   O33   S    
Cr3   O35   S    
Cr4   O11   S    
C16   C38   S    
C20   O30   S    
