data_mof_unit_18313.cif
_audit_creation_date              2012-12-11T17:04:33-0500
_audit_creation_method            fapswitch 2.2
_symmetry_space_group_name_H-M    P1
_symmetry_Int_Tables_number       1
_space_group_crystal_system       triclinic
_cell_length_a                    17.510468
_cell_length_b                    24.362791
_cell_length_c                    15.028394
_cell_angle_alpha                 91.02722
_cell_angle_beta                  125.874602
_cell_angle_gamma                 88.681717
_cell_volume                      5193.52824398

loop_
_atom_site_label
_atom_site_type_symbol
_atom_type_description
_atom_site_fract_x
_atom_site_fract_y
_atom_site_fract_z
_atom_type_partial_charge
Br1   Br    Br    0.975164 0.671705 0.401028 -0.569057
Br2   Br    Br    0.129597 0.555430 0.682500 -0.636425
Br3   Br    Br    0.477561 0.170147 0.399088 -0.570373
Br4   Br    Br    0.630509 0.053807 0.679640 -0.629041
Br5   Br    Br    0.810268 0.316214 0.771185 -0.653072
Br6   Br    Br    0.268784 0.335058 0.225914 -0.607112
Br7   Br    Br    0.310105 0.816172 0.771193 -0.653249
Br8   Br    Br    0.767090 0.833852 0.225168 -0.605201
C1    C     C_R   0.854323 0.653889 0.910968 -0.159975
C2    C     C_R   0.929146 0.501857 0.629549 0.060022
C3    C     C_R   0.747971 0.046308 0.309808 0.173945
C4    C     C_R   0.853312 0.349422 0.909194 0.286549
C5    C     C_R   0.187836 0.373395 0.089930 0.318146
C6    C     C_R   0.353484 0.849404 0.909225 0.287002
C7    C     C_R   0.687657 0.873149 0.090077 0.316948
C8    C     C_R   0.941106 0.652504 0.091860 -0.121172
C9    C     C_R   0.096725 0.622171 0.907399 -0.091673
C10   C     C_R   0.441372 0.152724 0.091485 -0.123958
C11   C     C_R   0.597155 0.121149 0.907107 -0.092514
C12   C     C_R   0.882084 0.685182 0.001836 0.089830
C13   C     C_R   0.459923 0.004339 0.284052 0.024317
C14   C     C_R   0.178424 0.643247 0.995690 0.103957
C15   C     C_R   0.382034 0.185259 0.001191 0.089492
C16   C     C_R   0.679814 0.141398 0.994919 0.100469
C17   C     C_3   0.075423 0.735941 0.823180 -0.368635
C18   C     C_3   0.027231 0.753172 0.877674 -0.293469
C19   C     C_3   0.922190 0.764393 0.792046 -0.920677
C20   C     C_3   0.005742 0.778648 0.177454 -0.380296
C21   C     C_3   0.068630 0.771200 0.137873 -0.287015
C22   C     C_3   0.172392 0.779428 0.230345 -0.953673
C23   C     C_3   0.576332 0.234108 0.821510 -0.368302
C24   C     C_R   0.430020 0.001486 0.629647 0.060686
C25   C     C_3   0.527229 0.251190 0.875042 -0.291505
C26   C     C_3   0.421786 0.260690 0.788757 -0.922525
C27   C     C_3   0.506164 0.279144 0.175675 -0.379738
C28   C     C_3   0.568441 0.271334 0.135317 -0.286876
C29   C     C_3   0.672502 0.279086 0.227379 -0.947889
C30   C     C_3   0.036723 0.405886 0.339106 -0.488917
C31   C     C_3   0.103688 0.418956 0.462582 -0.209039
C32   C     C_3   0.144996 0.366519 0.530181 -0.910359
C33   C     C_3   0.904878 0.398704 0.646660 -0.475415
C34   C     C_3   0.796408 0.397178 0.570608 -0.239248
C35   C     C_R   0.673729 0.501595 0.685607 0.007015
C36   C     C_3   0.761659 0.344546 0.501745 -0.856360
C37   C     C_3   0.534422 0.906107 0.337819 -0.491691
C38   C     C_3   0.600949 0.920122 0.460912 -0.208705
C39   C     C_3   0.642055 0.868186 0.530202 -0.906371
C40   C     C_3   0.406286 0.898300 0.647557 -0.477231
C41   C     C_3   0.297951 0.896058 0.571643 -0.239152
C42   C     C_3   0.264490 0.842869 0.504480 -0.858905
C43   C     C_3   0.710945 0.602113 0.661902 -0.469813
C44   C     C_3   0.671019 0.599391 0.540128 -0.286164
C45   C     C_3   0.666916 0.656210 0.496003 -0.888629
C46   C     C_R   0.291107 0.500984 0.374734 -0.028361
C47   C     C_3   0.249812 0.605348 0.345199 -0.469340
C48   C     C_3   0.247936 0.610143 0.445506 -0.287907
C49   C     C_3   0.216763 0.667358 0.456316 -0.824194
C50   C     C_3   0.213685 0.101342 0.658289 -0.467631
C51   C     C_3   0.176110 0.095641 0.537438 -0.283739
C52   C     C_3   0.174502 0.150864 0.489806 -0.883736
C53   C     C_3   0.750965 0.103538 0.352909 -0.484500
C54   C     C_3   0.705462 0.106825 0.414284 -0.276800
C55   C     C_3   0.733962 0.158694 0.485072 -0.817146
C56   C     C_3   0.395966 0.514803 0.655791 -0.454652
C57   C     C_R   0.174198 0.002020 0.683609 0.005782
C58   C     C_3   0.450097 0.554987 0.752532 -0.295426
C59   C     C_3   0.405639 0.560042 0.814412 -0.777095
C60   C     C_3   0.564186 0.468702 0.431329 -0.473446
C61   C     C_3   0.491134 0.468012 0.306439 -0.219689
C62   C     C_3   0.536862 0.451720 0.248959 -0.927584
C63   C     C_3   0.898298 0.033567 0.649096 -0.450861
C64   C     C_3   0.971553 0.034348 0.774027 -0.285704
C65   C     C_3   0.928037 0.055762 0.831349 -0.797360
C66   C     C_3   0.065913 0.962320 0.434419 -0.471328
C67   C     C_3   0.993928 0.958129 0.309661 -0.217525
C68   C     C_R   0.791770 0.000689 0.374170 -0.029898
C69   C     C_3   0.042434 0.943580 0.254637 -0.937180
C70   C     C_3   0.508333 0.460611 0.619205 -0.222136
C71   C     C_3   0.454574 0.448511 0.495017 -0.196643
C72   C     C_3   0.008427 0.965326 0.622967 -0.213386
C73   C     C_R   0.185786 0.630441 0.090392 -0.179290
C74   C     C_3   0.954622 0.948318 0.500628 -0.200451
C75   C     C_3   0.440437 0.509553 0.593239 0.196930
C76   C     C_3   0.519962 0.486890 0.489986 0.197001
C77   C     C_3   0.941894 0.015792 0.589826 0.206144
C78   C     C_3   0.020382 0.983375 0.489873 0.208263
C79   C     C_3   0.388829 0.498122 0.470368 0.117837
C80   C     C_3   0.572057 0.499729 0.611805 0.122451
C81   C     C_3   0.889623 0.999165 0.469098 0.118927
C82   C     C_3   0.072692 0.000805 0.609656 0.117779
C83   C     C_3   0.454872 0.536428 0.465119 -0.215198
C84   C     C_R   0.353695 0.153670 0.910380 -0.158649
C85   C     C_3   0.506488 0.548797 0.588985 -0.213420
C86   C     C_3   0.955839 0.033964 0.457771 -0.230887
C87   C     C_3   0.008006 0.051219 0.579364 -0.222137
C88   C     C_R   0.880591 0.223760 0.053887 0.190300
C89   C     C_R   0.220914 0.304643 0.892609 0.145077
C90   C     C_R   0.379788 0.724109 0.054041 0.189090
C91   C     C_R   0.721549 0.804856 0.892953 0.146149
C92   C     C_R   0.833585 0.270101 0.991328 0.026901
C93   C     C_R   0.254134 0.334646 0.988098 0.047394
C94   C     C_R   0.333295 0.770495 0.991391 0.027454
C95   C     C_R   0.687399 0.128549 0.089735 -0.174066
C96   C     C_R   0.754268 0.834559 0.988612 0.047231
C97   C     C_R   0.736219 0.269443 0.913122 -0.195578
C98   C     C_R   0.349603 0.328714 0.076344 -0.200731
C99   C     C_R   0.235815 0.770383 0.913511 -0.195164
C100  C     C_R   0.849431 0.828369 0.077373 -0.202312
C101  C     C_R   0.940914 0.349877 0.091305 -0.191852
C102  C     C_R   0.099925 0.381733 0.907977 -0.181849
C103  C     C_R   0.441102 0.849845 0.091297 -0.192469
C104  C     C_R   0.600144 0.881766 0.908217 -0.183014
C105  C     C_R   0.181917 0.727724 0.906580 0.125764
C106  C     C_R   0.878706 0.319826 0.999284 0.023346
C107  C     C_R   0.902405 0.782587 0.081588 0.143773
C108  C     C_R   0.682832 0.226263 0.905630 0.126662
C109  C     C_R   0.402539 0.282903 0.080369 0.142005
C110  C     C_R   0.229685 0.683995 0.984100 -0.032754
C111  C     C_R   0.855055 0.743082 0.994842 -0.015483
C112  C     C_R   0.730947 0.182433 0.983103 -0.031531
C113  C     C_R   0.354841 0.243155 0.994040 -0.014950
C114  C     C_R   0.328380 0.681499 0.050975 0.161137
C115  C     C_R   0.770845 0.759686 0.896434 0.105987
C116  C     C_R   0.829743 0.180692 0.050602 0.160247
C117  C     C_R   0.187000 0.365183 0.997636 -0.002193
C118  C     C_R   0.270164 0.259487 0.895943 0.104424
C119  C     C_3   0.399927 0.669424 0.170398 -0.525597
C120  C     C_3   0.682663 0.728902 0.815193 -0.492489
C121  C     C_3   0.901451 0.168762 0.170100 -0.525496
C122  C     C_3   0.181945 0.228436 0.815873 -0.490376
C123  C     C_3   0.957338 0.216433 0.173023 -0.494053
C124  C     C_3   0.127642 0.278155 0.812849 -0.467517
C125  C     C_3   0.456416 0.716712 0.173254 -0.495226
C126  C     C_3   0.628290 0.778615 0.812087 -0.469175
C127  C     C_R   0.932004 0.555858 0.495428 0.004215
C128  C     C_R   0.379061 0.819808 0.999300 0.024175
C129  C     C_R   0.935068 0.559121 0.406616 0.078387
C130  C     C_R   0.431913 0.055015 0.494170 -0.000145
C131  C     C_R   0.433104 0.058252 0.403921 0.081590
C132  C     C_R   0.906342 0.507379 0.519724 0.089024
C133  C     C_R   0.921747 0.511442 0.346252 0.053056
C134  C     C_R   0.406739 0.006655 0.519343 0.089311
C135  C     C_R   0.417334 0.010838 0.341810 0.050461
C136  C     C_R   0.869058 0.465009 0.440282 -0.235817
C137  C     C_R   0.875392 0.467497 0.352461 -0.177167
C138  C     C_R   0.368534 0.964250 0.439826 -0.235363
C139  C     C_R   0.687002 0.865029 0.997923 -0.001466
C140  C     C_R   0.372215 0.966864 0.350016 -0.179926
C141  C     C_3   0.015107 0.598578 0.464009 0.058903
C142  C     C_3   0.015140 0.592841 0.564195 0.077825
C143  C     C_3   0.514594 0.096695 0.460899 0.050079
C144  C     C_3   0.515904 0.091464 0.562040 0.083355
C145  C     C_R   0.985815 0.548888 0.252044 -0.185949
C146  C     C_R   0.946178 0.546520 0.695520 -0.131209
C147  C     C_R   0.479541 0.048127 0.245284 -0.218804
C148  C     C_R   0.446750 0.046313 0.695418 -0.135654
C149  C     C_R   0.729858 0.455553 0.733380 -0.220339
C150  C     C_R   0.965995 0.505091 0.290540 0.009814
C151  C     C_R   0.248357 0.456047 0.309091 -0.150497
C152  C     C_R   0.229729 0.955752 0.731863 -0.223161
C153  C     C_R   0.749275 0.955784 0.308571 -0.150514
C154  C     C_R   0.000208 0.457266 0.270563 0.161993
C155  C     C_R   0.942067 0.455623 0.690568 0.160745
C156  C     C_R   0.497459 0.956953 0.267691 0.163806
C157  C     C_R   0.442587 0.955425 0.690853 0.161156
C158  C     C_R   0.731000 0.546975 0.716254 0.165769
C159  C     C_R   0.248208 0.546696 0.308938 0.169261
C160  C     C_R   0.231702 0.047234 0.715395 0.167150
H1    H     H_    0.825508 0.671631 0.832436 0.109421
H2    H     H_    0.526850 0.590154 0.627135 0.119956
H3    H     H_    0.683304 0.843999 0.508083 0.265928
H4    H     H_    0.689596 0.879551 0.618509 0.258376
H5    H     H_    0.659737 0.945531 0.476598 0.194341
H6    H     H_    0.563212 0.943905 0.488052 0.229345
H7    H     H_    0.475189 0.880662 0.320112 0.184741
H8    H     H_    0.577421 0.882071 0.318231 0.203501
H9    H     H_    0.289289 0.839982 0.451520 0.237613
H10   H     H_    0.292300 0.806693 0.559491 0.300966
H11   H     H_    0.186326 0.841720 0.451744 0.254257
H12   H     H_    0.270830 0.897674 0.621506 0.238499
H13   H     H_    0.934997 0.062212 0.389512 0.115665
H14   H     H_    0.265536 0.931926 0.516281 0.180377
H15   H     H_    0.438484 0.882026 0.606903 0.186856
H16   H     H_    0.429010 0.870292 0.716351 0.227816
H17   H     H_    0.622290 0.684640 0.506706 0.258531
H18   H     H_    0.738865 0.673196 0.539592 0.260612
H19   H     H_    0.635869 0.653097 0.407093 0.260390
H20   H     H_    0.716458 0.572072 0.528739 0.198511
H21   H     H_    0.598778 0.583791 0.491599 0.216090
H22   H     H_    0.665574 0.627767 0.675531 0.183638
H23   H     H_    0.779796 0.621639 0.700018 0.194673
H24   H     H_    0.027449 0.093675 0.611714 0.126531
H25   H     H_    0.266910 0.698497 0.467018 0.247266
H26   H     H_    0.144898 0.677291 0.382467 0.268287
H27   H     H_    0.215567 0.668854 0.529392 0.284417
H28   H     H_    0.199439 0.579443 0.440201 0.204686
H29   H     H_    0.320318 0.603095 0.519772 0.214210
H30   H     H_    0.312879 0.626390 0.362784 0.173732
H31   H     H_    0.186369 0.627189 0.276376 0.205693
H32   H     H_    0.129581 0.180991 0.496713 0.259351
H33   H     H_    0.247031 0.167032 0.533843 0.260188
H34   H     H_    0.145082 0.145628 0.401662 0.258602
H35   H     H_    0.700326 0.305454 0.862822 0.147261
H36   H     H_    0.221810 0.066506 0.529753 0.197896
H37   H     H_    0.103462 0.080453 0.488353 0.215207
H38   H     H_    0.167435 0.128379 0.668242 0.180159
H39   H     H_    0.282900 0.120811 0.697504 0.193086
H40   H     H_    0.811801 0.162124 0.541650 0.243336
H41   H     H_    0.704361 0.195614 0.432167 0.260173
H42   H     H_    0.705872 0.157485 0.534766 0.287689
H43   H     H_    0.628200 0.108642 0.353456 0.215018
H44   H     H_    0.722912 0.069967 0.465443 0.197351
H45   H     H_    0.825230 0.117069 0.406765 0.196738
H46   H     H_    0.380194 0.356860 0.145306 0.163726
H47   H     H_    0.710964 0.133043 0.284868 0.190788
H48   H     H_    0.332687 0.576818 0.759477 0.293392
H49   H     H_    0.404194 0.519340 0.845518 0.256240
H50   H     H_    0.447506 0.588448 0.885313 0.239736
H51   H     H_    0.524402 0.540470 0.809971 0.206148
H52   H     H_    0.449913 0.596288 0.722193 0.201796
H53   H     H_    0.320972 0.527533 0.599697 0.188802
H54   H     H_    0.396514 0.473654 0.686978 0.198682
H55   H     H_    0.589060 0.482879 0.265279 0.268454
H56   H     H_    0.573157 0.411214 0.278630 0.260093
H57   H     H_    0.200321 0.806439 0.863193 0.147048
H58   H     H_    0.481975 0.449026 0.158982 0.254122
H59   H     H_    0.435020 0.438289 0.283590 0.215228
H60   H     H_    0.458045 0.509415 0.277581 0.194822
H61   H     H_    0.622560 0.495959 0.453785 0.180690
H62   H     H_    0.594362 0.426743 0.459737 0.205439
H63   H     H_    0.900767 0.098398 0.804891 0.270606
H64   H     H_    0.869391 0.029050 0.811762 0.281691
H65   H     H_    0.982376 0.055791 0.921622 0.236147
H66   H     H_    0.999864 0.992187 0.803840 0.199482
H67   H     H_    0.030926 0.061200 0.796254 0.203908
H68   H     H_    0.879633 0.856227 0.146610 0.161903
H69   H     H_    0.868983 0.075545 0.622381 0.212857
H70   H     H_    0.840702 0.005089 0.626388 0.196759
H71   H     H_    0.088708 0.977561 0.266040 0.268624
H72   H     H_    0.085944 0.905635 0.290533 0.263120
H73   H     H_    0.988606 0.936966 0.165306 0.254604
H74   H     H_    0.941791 0.926158 0.289821 0.215894
H75   H     H_    0.955604 0.997904 0.276073 0.197006
H76   H     H_    0.123233 0.989947 0.454317 0.181739
H77   H     H_    0.097443 0.921142 0.467970 0.204417
H78   H     H_    0.435234 0.628765 0.184038 0.204818
H79   H     H_    0.673402 0.692168 0.850714 0.207459
H80   H     H_    0.937352 0.128298 0.183911 0.205119
H81   H     H_    0.240572 0.642070 0.173218 0.105717
H82   H     H_    0.173398 0.191856 0.852374 0.208296
H83   H     H_    0.374783 0.678099 0.222000 0.189258
H84   H     H_    0.673415 0.721848 0.736154 0.188146
H85   H     H_    0.876317 0.177234 0.221761 0.190360
H86   H     H_    0.171876 0.221045 0.736453 0.186059
H87   H     H_    0.025194 0.203426 0.187947 0.215683
H88   H     H_    0.088146 0.270264 0.848188 0.221563
H89   H     H_    0.524148 0.703305 0.188272 0.215542
H90   H     H_    0.588100 0.770587 0.846502 0.221397
H91   H     H_    0.961914 0.251041 0.225022 0.188320
H92   H     H_    0.322895 0.170656 0.830710 0.109087
H93   H     H_    0.086222 0.298884 0.731708 0.184378
H94   H     H_    0.461379 0.751457 0.225216 0.188881
H95   H     H_    0.587551 0.799615 0.731232 0.184436
H96   H     H_    0.843822 0.427439 0.448126 0.160838
H97   H     H_    0.854814 0.432319 0.298368 0.129696
H98   H     H_    0.344396 0.926528 0.448716 0.161149
H99   H     H_    0.350795 0.931674 0.295776 0.129722
H100  H     H_    0.982082 0.334825 0.173802 0.121371
H101  H     H_    0.079166 0.382975 0.825099 0.131188
H102  H     H_    0.482314 0.834754 0.173744 0.121883
H103  H     H_    0.745265 0.137821 0.172445 0.102949
H104  H     H_    0.579908 0.883260 0.825599 0.131308
H105  H     H_    0.079873 0.582621 0.474549 0.137843
H106  H     H_    0.997388 0.631432 0.589351 0.142842
H107  H     H_    0.578168 0.079469 0.470248 0.136487
H108  H     H_    0.499198 0.130318 0.587601 0.142430
H109  H     H_    0.970754 0.591512 0.255683 0.169477
H110  H     H_    0.927159 0.588752 0.669286 0.095308
H111  H     H_    0.461039 0.090423 0.245793 0.171044
H112  H     H_    0.427911 0.088508 0.668788 0.096469
H113  H     H_    0.706877 0.413732 0.722144 0.165807
H114  H     H_    0.533280 0.429500 0.684318 0.131097
H115  H     H_    0.255411 0.415287 0.339930 0.167306
H116  H     H_    0.206308 0.913994 0.720033 0.166051
H117  H     H_    0.756853 0.914966 0.339326 0.167395
H118  H     H_    0.984765 0.664739 0.176578 0.118202
H119  H     H_    0.073511 0.620381 0.823568 0.136243
H120  H     H_    0.485076 0.165086 0.176191 0.124147
H121  H     H_    0.573833 0.119012 0.823303 0.135801
H122  H     H_    0.911159 0.797080 0.734817 0.268954
H123  H     H_    0.886689 0.726429 0.744533 0.256796
H124  H     H_    0.889912 0.778472 0.833734 0.249901
H125  H     H_    0.433072 0.407068 0.456959 0.168368
H126  H     H_    0.035631 0.720672 0.933408 0.209971
H127  H     H_    0.060394 0.791218 0.926347 0.199440
H128  H     H_    0.060613 0.769149 0.764863 0.197524
H129  H     H_    0.041100 0.700628 0.767388 0.180507
H130  H     H_    0.184055 0.822701 0.259290 0.265182
H131  H     H_    0.195238 0.751557 0.299590 0.275498
H132  H     H_    0.215618 0.770245 0.199626 0.252980
H133  H     H_    0.060589 0.729305 0.103753 0.202852
H134  H     H_    0.047205 0.801665 0.072718 0.206279
H135  H     H_    0.026707 0.816996 0.226980 0.198937
H136  H     H_    0.033035 0.936878 0.692072 0.125784
H137  H     H_    0.018667 0.745967 0.234891 0.206367
H138  H     H_    0.409391 0.292954 0.730134 0.268731
H139  H     H_    0.388140 0.222054 0.742907 0.256849
H140  H     H_    0.388692 0.274538 0.829652 0.249831
H141  H     H_    0.537003 0.219238 0.932398 0.210386
H142  H     H_    0.558617 0.289902 0.921923 0.198651
H143  H     H_    0.561487 0.267302 0.763152 0.196806
H144  H     H_    0.542681 0.198763 0.765631 0.180563
H145  H     H_    0.684796 0.322176 0.257425 0.264601
H146  H     H_    0.695666 0.250751 0.296131 0.269841
H147  H     H_    0.932420 0.905918 0.468420 0.164645
H148  H     H_    0.715105 0.270180 0.195743 0.252377
H149  H     H_    0.559698 0.229453 0.100904 0.203456
H150  H     H_    0.547059 0.301806 0.070171 0.205201
H151  H     H_    0.527407 0.317708 0.224716 0.194082
H152  H     H_    0.519585 0.246619 0.233676 0.211621
H153  H     H_    0.087758 0.340499 0.516730 0.256786
H154  H     H_    0.186047 0.342955 0.507033 0.266226
H155  H     H_    0.192778 0.377214 0.618811 0.257520
H156  H     H_    0.162381 0.444644 0.478765 0.195626
H157  H     H_    0.066122 0.442116 0.490685 0.228663
H158  H     H_    0.434966 0.567355 0.401302 0.113449
H159  H     H_    0.977270 0.380514 0.320945 0.184007
H160  H     H_    0.079116 0.382069 0.318345 0.203399
H161  H     H_    0.787375 0.341469 0.449718 0.237836
H162  H     H_    0.787495 0.307963 0.555591 0.302111
H163  H     H_    0.683416 0.344483 0.447824 0.250940
H164  H     H_    0.769207 0.398551 0.620422 0.238335
H165  H     H_    0.764798 0.433459 0.516226 0.180062
H166  H     H_    0.936766 0.382309 0.605738 0.186720
H167  H     H_    0.927376 0.370574 0.715228 0.227762
H168  H     H_    0.584686 0.842506 0.517301 0.255846
N1    N     N_R   0.892620 0.603790 0.941770 -0.043006
N2    N     N_R   0.973690 0.529110 0.793240 -0.049182
N3    N     N_R   0.526310 0.029110 0.206760 -0.053590
N4    N     N_R   0.473690 0.029110 0.793240 -0.049693
N5    N     N_R   0.818570 0.472310 0.793020 -0.043494
N6    N     N_R   0.181430 0.472310 0.206980 -0.052461
N7    N     N_R   0.318570 0.972310 0.793020 -0.042825
N8    N     N_R   0.681430 0.972310 0.206980 -0.052912
N9    N     N_R   0.026930 0.472300 0.207330 -0.058262
N10   N     N_R   0.973070 0.472300 0.792670 -0.053086
N11   N     N_R   0.526930 0.972300 0.207330 -0.056104
N12   N     N_R   0.107380 0.603790 0.058230 -0.048783
N13   N     N_R   0.473070 0.972300 0.792670 -0.053118
N14   N     N_R   0.817960 0.529130 0.792460 -0.062348
N15   N     N_R   0.182040 0.529130 0.207540 -0.060696
N16   N     N_R   0.317960 0.029130 0.792460 -0.061825
N17   N     N_R   0.682040 0.029130 0.207540 -0.058056
N18   N     N_R   0.894850 0.397640 0.943830 -0.066533
N19   N     N_R   0.105150 0.397640 0.056170 -0.064311
N20   N     N_R   0.394850 0.897640 0.943830 -0.066803
N21   N     N_R   0.605150 0.897640 0.056170 -0.064086
N22   N     N_R   0.950040 0.603780 0.055950 -0.043945
N23   N     N_R   0.392620 0.103790 0.941770 -0.042741
N24   N     N_R   0.049960 0.603780 0.944050 -0.052045
N25   N     N_R   0.450040 0.103780 0.055950 -0.042543
N26   N     N_R   0.549960 0.103780 0.944050 -0.052338
N27   N     N_R   0.607380 0.103790 0.058230 -0.046705
N28   N     N_R   0.952270 0.397640 0.058010 -0.055984
N29   N     N_R   0.047730 0.397640 0.941990 -0.048134
N30   N     N_R   0.452270 0.897640 0.058010 -0.056113
N31   N     N_R   0.547730 0.897640 0.941990 -0.047923
N32   N     N_R   0.026310 0.529110 0.206760 -0.052085
Ni1   Ni    Ni4+2 0.934160 0.565860 0.869070 0.193891
Ni2   Ni    Ni4+2 0.065840 0.565860 0.130930 0.198495
Ni3   Ni    Ni4+2 0.434160 0.065860 0.869070 0.194334
Ni4   Ni    Ni4+2 0.565840 0.065860 0.130930 0.197483
Ni5   Ni    Ni4+2 0.067260 0.435560 0.132230 0.228962
Ni6   Ni    Ni4+2 0.932740 0.435560 0.867770 0.235518
Ni7   Ni    Ni4+2 0.567260 0.935560 0.132230 0.229838
Ni8   Ni    Ni4+2 0.432740 0.935560 0.867770 0.235523

loop_
_geom_bond_atom_site_label_1
_geom_bond_atom_site_label_2
_ccdc_geom_bond_type
C5    N19   A    
N20   N30   A    
C79   C83   S    
C134  C138  A    
C97   C108  A    
C1    H1    S    
C46   C159  A    
C2    C146  A    
C71   C79   S    
C31   H157  S    
C82   C87   S    
C7    N21   A    
C49   H27   S    
C42   H10   S    
C3    C68   A    
C9    H119  S    
C123  H87   S    
C10   H120  S    
N15   Ni2   S    
C28   H149  S    
C75   C85   S    
C48   C49   S    
C127  C129  A    
C81   C86   S    
C99   C105  A    
C47   H31   S    
C38   H6    S    
N16   Ni3   S    
C76   C83   S    
C19   H124  S    
C24   C134  S    
C133  C137  A    
C66   H76   S    
C51   C52   S    
C96   C139  S    
C2    C132  S    
C101  H100  S    
C98   H46   S    
C147  N3    A    
C153  N8    A    
N1    N22   A    
C36   H161  S    
C85   H2    S    
C16   C112  S    
C43   C44   S    
C142  H106  S    
N2    Ni1   S    
Br5   C4    S    
C144  H108  S    
C40   H16   S    
C66   H77   S    
C89   C118  A    
C145  N32   A    
C90   C94   A    
C59   H48   S    
C56   C58   S    
N23   Ni3   S    
C58   H51   S    
C31   H156  S    
C149  N5    A    
C126  H90   S    
N7    N16   A    
C62   H55   S    
C43   H22   S    
C122  H86   S    
C52   H34   S    
C55   H40   S    
C55   H42   S    
C35   C158  A    
C14   C110  S    
C84   N23   A    
C152  H116  S    
N3    Ni4   S    
C59   H50   S    
C62   H58   S    
C64   C65   S    
C39   H3    S    
C27   H152  S    
C111  C115  A    
N21   N31   A    
C4    N18   A    
C136  C137  A    
C157  N13   A    
N7    Ni8   S    
C32   H154  S    
C71   H125  S    
C22   H132  S    
C44   H21   S    
C19   H122  S    
C25   H141  S    
N5    Ni6   S    
C26   H138  S    
C124  H88   S    
C118  C122  S    
C103  H102  S    
C95   H103  S    
Br2   C142  S    
C36   H163  S    
C101  N28   A    
C126  H95   S    
N25   Ni4   S    
C57   C160  A    
C74   C81   S    
C69   H73   S    
C100  C107  A    
C8    N22   A    
C28   C29   S    
C37   H7    S    
C30   C31   S    
C103  C128  A    
N26   N27   A    
N18   N28   A    
C110  C114  A    
C114  C119  S    
C147  H111  S    
C46   C151  A    
C24   C148  A    
C131  C135  A    
C51   H36   S    
C40   C157  S    
C69   H72   S    
C93   C117  S    
N20   Ni8   S    
C86   H13   S    
C148  N4    A    
C50   C160  S    
N8    N17   A    
C21   H134  S    
C58   C59   S    
C10   N25   A    
C68   C153  A    
C61   C62   S    
C53   H45   S    
C57   C152  A    
C60   H62   S    
C4    C106  A    
C135  C140  A    
Br4   C144  S    
N21   Ni7   S    
C63   H70   S    
C92   C106  S    
C72   C74   S    
C130  C131  A    
C140  H99   S    
C31   C32   S    
C52   H32   S    
C22   H130  S    
C23   H143  S    
C17   C18   S    
C108  C112  A    
C91   C126  S    
C1    N1    A    
N31   Ni8   S    
C76   C80   S    
C45   H18   S    
C20   H135  S    
C21   C22   S    
C120  C126  S    
N5    N14   A    
C52   H33   S    
C151  H115  S    
C74   H147  S    
C39   H168  S    
C13   C147  A    
C56   H54   S    
C94   C99   A    
C119  H78   S    
N8    Ni7   S    
C67   C69   S    
C101  C106  A    
C88   C123  S    
C87   H24   S    
C121  H85   S    
N4    Ni3   S    
C107  C111  A    
C61   H60   S    
C65   H63   S    
C43   H23   S    
C44   C45   S    
C93   C98   A    
C90   C114  A    
C54   H44   S    
C120  H79   S    
C26   H140  S    
C3    C53   S    
C127  C142  S    
N3    N11   A    
C29   H146  S    
C104  C139  A    
N26   Ni3   S    
C16   C95   A    
C42   H11   S    
C5    C117  A    
C63   C64   S    
C77   C87   S    
C159  N15   A    
C28   H150  S    
C99   H57   S    
C131  C143  S    
C53   C54   S    
C41   C42   S    
C17   H129  S    
C15   C84   A    
C18   H126  S    
C137  H97   S    
C44   H20   S    
C19   H123  S    
N12   Ni2   S    
C75   C79   S    
C47   C48   S    
C100  H68   S    
C2    C155  A    
C33   C34   S    
C27   C28   S    
C47   C159  S    
N32   Ni2   S    
C154  N9    A    
C15   C113  S    
C37   C38   S    
C36   H162  S    
C90   C125  S    
C18   C19   S    
C34   C36   S    
C35   C80   S    
C149  H113  S    
C20   C21   S    
C148  H112  S    
C97   H35   S    
C50   H38   S    
C155  N10   A    
C145  H109  S    
C30   H159  S    
C58   H52   S    
C48   H28   S    
C70   C75   S    
C60   C61   S    
C33   H167  S    
C62   H56   S    
C143  C144  S    
Br1   C141  S    
N13   Ni8   S    
C65   H65   S    
C51   H37   S    
C125  H89   S    
C91   C96   A    
C102  N29   A    
C13   C156  A    
C24   C157  A    
C73   N12   A    
C127  C132  A    
C55   H41   S    
N29   Ni6   S    
N18   Ni6   S    
C138  C140  A    
C57   C82   S    
C29   H148  S    
C60   C76   S    
C14   C73   A    
C59   H49   S    
C42   H9    S    
C130  C134  A    
C77   C81   S    
C27   H151  S    
C35   C149  A    
C50   C51   S    
C74   C78   S    
C141  H105  S    
C122  C124  S    
C11   N26   A    
C56   C75   S    
C72   C77   S    
N22   Ni2   S    
C20   C107  S    
C17   C105  S    
C83   C85   S    
C1    C12   A    
C38   H5    S    
C146  N2    A    
C120  H84   S    
C26   H139  S    
C160  N16   A    
C123  H91   S    
C40   C41   S    
N9    Ni5   S    
Br8   C7    S    
C33   C155  S    
C98   C109  A    
C78   C82   S    
N11   Ni7   S    
C8    H118  S    
C136  H96   S    
C63   H69   S    
C96   C100  A    
C72   H136  S    
C48   H29   S    
C70   C80   S    
C129  C133  A    
C38   C39   S    
N28   Ni5   S    
C119  C125  S    
C89   C124  S    
C40   H15   S    
C95   N27   A    
C49   H26   S    
C9    C14   A    
C64   H67   S    
C104  N31   A    
C130  C144  S    
C158  N14   A    
C132  C136  A    
C11   C16   A    
C67   H74   S    
C141  C142  S    
C7    C139  A    
C71   C76   S    
C6    C128  A    
C116  C121  S    
N6    Ni5   S    
N4    N13   A    
C86   C87   S    
C94   C128  S    
N27   Ni4   S    
N6    N15   A    
N12   N24   A    
N24   Ni1   S    
C103  N30   A    
C133  C150  S    
C11   H121  S    
C69   H71   S    
C12   C111  S    
C21   H133  S    
C121  H80   S    
C20   H137  S    
C104  H104  S    
C39   H4    S    
N9    N32   A    
C92   C97   A    
C54   C55   S    
N10   Ni6   S    
C37   C156  S    
C32   H153  S    
C46   C79   S    
C22   H131  S    
C47   H30   S    
N19   Ni5   S    
N19   N29   A    
C88   C92   A    
C145  C150  A    
C25   H142  S    
C138  H98   S    
C45   H17   S    
C70   H114  S    
C109  C113  A    
C78   C86   S    
C63   C77   S    
Br7   C6    S    
C54   H43   S    
C23   C25   S    
C6    N20   A    
C34   H164  S    
C8    C12   A    
C3    N17   A    
C41   H12   S    
C129  C141  S    
C61   H59   S    
C84   H92   S    
N14   Ni1   S    
C153  H117  S    
C122  H82   S    
C125  H94   S    
C66   C67   S    
C88   C116  A    
C10   C15   A    
C146  H110  S    
C13   C135  S    
C34   H165  S    
C37   H8    S    
C70   C71   S    
C29   H145  S    
C41   H14   S    
C49   H25   S    
C25   C26   S    
N23   N25   A    
C151  N6    A    
C66   C78   S    
N17   Ni4   S    
C9    N24   A    
C17   H128  S    
C18   H127  S    
C27   C109  S    
C23   C108  S    
C60   H61   S    
C91   C115  A    
C80   C85   S    
C152  N7    A    
C73   H81   S    
C32   H155  S    
N30   Ni7   S    
C102  H101  S    
C23   H144  S    
C53   H47   S    
C68   C81   S    
Br3   C143  S    
N2    N10   A    
C45   H19   S    
C113  C118  A    
Br6   C5    S    
C115  C120  S    
C143  H107  S    
C50   H39   S    
C156  N11   A    
C64   H66   S    
C56   H53   S    
C119  H83   S    
C72   C82   S    
C30   H160  S    
C67   H75   S    
C150  C154  A    
C102  C117  A    
C105  C110  A    
C30   C154  S    
N1    Ni1   S    
C33   H166  S    
C43   C158  S    
C83   H158  S    
C65   H64   S    
C89   C93   A    
C112  C116  A    
C124  H93   S    
C121  C123  S    
