data_mof_unit_27468.cif
_audit_creation_date              2012-12-10T17:09:53-0500
_audit_creation_method            fapswitch 2.2
_symmetry_space_group_name_H-M    P1
_symmetry_Int_Tables_number       1
_space_group_crystal_system       triclinic
_cell_length_a                    10.779921
_cell_length_b                    13.00482
_cell_length_c                    11.681187
_cell_angle_alpha                 100.168153
_cell_angle_beta                  93.709818
_cell_angle_gamma                 90.464005
_cell_volume                      1608.18091286

loop_
_atom_site_label
_atom_site_type_symbol
_atom_type_description
_atom_site_fract_x
_atom_site_fract_y
_atom_site_fract_z
_atom_type_partial_charge
C1    C     C_R   0.500136 0.298853 0.478078 0.822047
C2    C     C_R   0.068478 0.415209 0.553245 0.099414
C3    C     C_R   0.128678 0.489366 0.499474 -0.096106
C4    C     C_R   0.060432 0.557510 0.441289 -0.201537
C5    C     C_R   0.932450 0.556984 0.440342 -0.204651
C6    C     C_R   0.870856 0.488332 0.497623 -0.091589
C7    C     C_R   0.501389 0.814354 0.534287 -0.053333
C8    C     C_R   0.503839 0.184895 0.464290 -0.090738
C9    C     C_R   0.524393 0.013115 0.346618 -0.318004
C10   C     C_R   0.521504 0.121805 0.354999 0.418568
C11   C     C_R   0.491203 0.138915 0.562894 -0.366138
C12   C     C_R   0.262443 0.496457 0.499972 0.793985
C13   C     C_R   0.495309 0.031138 0.554220 0.177497
C14   C     C_R   0.511341 0.967961 0.445143 0.131264
C15   C     C_R   0.514147 0.860107 0.435868 -0.242373
C16   C     C_R   0.486932 0.877293 0.643099 -0.200629
C17   C     C_R   0.483551 0.985407 0.652959 -0.197031
C18   C     C_R   0.383970 0.401483 0.020456 -0.388399
C19   C     C_R   0.394278 0.410578 0.142955 0.412282
C20   C     C_R   0.550247 0.542886 0.157447 -0.020573
C21   C     C_R   0.542452 0.536102 0.034489 0.063980
C22   C     C_R   0.458185 0.464260 0.965376 0.046876
C23   C     C_R   0.501560 0.700939 0.521662 0.801376
C24   C     C_R   0.450173 0.457120 0.842581 0.044217
C25   C     C_R   0.605200 0.589522 0.856528 0.088648
C26   C     C_R   0.616416 0.599113 0.978821 -0.326375
C27   C     C_R   0.737410 0.496089 0.499175 0.785671
C28   C     C_R   0.135119 0.339374 0.603945 -0.185113
C29   C     C_R   0.073007 0.266116 0.654434 -0.144200
C30   C     C_R   0.943918 0.265638 0.653627 -0.129953
C31   C     C_R   0.876132 0.338440 0.602360 -0.168742
C32   C     C_R   0.937204 0.414702 0.552349 0.094230
Cu1   Cu    Cu3+1 0.509250 0.507730 0.615930 0.930790
Cu2   Cu    Cu3+1 0.490750 0.492270 0.384070 0.982214
H1    H     H_    0.106821 0.613060 0.398515 0.151031
H2    H     H_    0.471445 0.033053 0.737332 0.132519
H3    H     H_    0.477739 0.186971 0.646838 0.168360
H4    H     H_    0.385462 0.401920 0.788870 0.113795
H5    H     H_    0.662524 0.638533 0.814660 0.127120
H6    H     H_    0.318113 0.345583 0.969091 0.137849
H7    H     H_    0.682322 0.655415 0.029276 0.135450
H8    H     H_    0.615061 0.597926 0.211277 0.123606
H9    H     H_    0.235068 0.334257 0.603157 0.137802
H10   H     H_    0.125219 0.208560 0.692923 0.131445
H11   H     H_    0.895932 0.207690 0.691481 0.137604
H12   H     H_    0.775929 0.332666 0.600437 0.149975
H13   H     H_    0.881212 0.612313 0.397171 0.143814
H14   H     H_    0.526398 0.811880 0.351749 0.148833
H15   H     H_    0.476841 0.843012 0.720102 0.156930
H16   H     H_    0.537501 0.963847 0.263341 0.128843
N1    N     N_R   0.523180 0.519350 0.790130 -0.182394
N2    N     N_R   0.476820 0.480650 0.209890 -0.171004
O1    O     O_R   0.506570 0.354460 0.582000 -0.621048
O2    O     O_R   0.490940 0.341410 0.386200 -0.496143
O3    O     O_R   0.327470 0.506530 0.597920 -0.590213
O4    O     O_R   0.311840 0.493480 0.402120 -0.559629
O5    O     O_R   0.509060 0.658590 0.613800 -0.589029
O6    O     O_R   0.493430 0.645540 0.418000 -0.596451
O7    O     O_R   0.688160 0.506520 0.597880 -0.591536
O8    O     O_R   0.672530 0.493470 0.402080 -0.577592
O9    O     O_3   0.537650 0.167245 0.258440 -0.724516
H17   H     H_    0.548522 0.111886 0.189868 0.311418
N3    N     N_3   0.317363 0.346064 0.197447 -0.512637
H18   H     H_    0.224554 0.361047 0.175315 0.188633
H19   H     H_    0.333739 0.268037 0.162590 0.219589

loop_
_geom_bond_atom_site_label_1
_geom_bond_atom_site_label_2
_ccdc_geom_bond_type
Cu1   O3    S    
C23   O6    A    
C20   H8    S    
C9    C14   A    
C25   N1    A    
Cu2   O4    S    
C29   C30   A    
C17   H2    S    
Cu1   N1    S    
C1    C8    S    
C2    C28   A    
C9    C10   A    
C30   H11   S    
Cu2   N2    S    
C31   C32   A    
C7    C23   S    
C6    C27   S    
C13   C17   A    
C30   C31   A    
C1    O2    A    
C1    O1    A    
C20   C21   A    
C24   N1    A    
N3    H19   S    
C2    C3    A    
C4    H1    S    
Cu1   O7    S    
C27   O7    A    
C13   C14   A    
C25   H5    S    
Cu2   O8    S    
C11   C13   A    
C12   O4    A    
C15   H14   S    
C8    C11   A    
C23   O5    A    
C5    C6    A    
C2    C32   A    
C7    C15   A    
C28   C29   A    
C5    H13   S    
C21   C26   A    
Cu1   Cu2   S    
C21   C22   A    
Cu2   O2    S    
C27   O8    A    
C29   H10   S    
Cu1   O1    S    
O9    H17   S    
Cu2   O6    S    
C22   C24   A    
C12   O3    A    
C16   C17   A    
C9    H16   S    
C24   H4    S    
C10   O9    S    
C16   H15   S    
C20   N2    A    
C18   C19   A    
C11   H3    S    
C18   H6    S    
C14   C15   A    
C7    C16   A    
Cu1   O5    S    
C3    C12   S    
C28   H9    S    
C25   C26   A    
C18   C22   A    
C19   N2    A    
C8    C10   A    
C3    C4    A    
N3    H18   S    
C26   H7    S    
C19   N3    S    
C4    C5    A    
C6    C32   A    
C31   H12   S    
