data_mof_unit_36136.cif
_audit_creation_date              2012-12-11T19:30:53-0500
_audit_creation_method            fapswitch 2.2
_symmetry_space_group_name_H-M    P1
_symmetry_Int_Tables_number       1
_space_group_crystal_system       triclinic
_cell_length_a                    8.399585
_cell_length_b                    15.313545
_cell_length_c                    17.358292
_cell_angle_alpha                 100.699109
_cell_angle_beta                  98.055386
_cell_angle_gamma                 99.480607
_cell_volume                      2130.13969369

loop_
_atom_site_label
_atom_site_type_symbol
_atom_type_description
_atom_site_fract_x
_atom_site_fract_y
_atom_site_fract_z
_atom_type_partial_charge
Ba1   Ba    Ba6+2 0.844380 0.541120 0.463220 1.692227
Ba2   Ba    Ba6+2 0.345460 0.458950 0.536790 1.705618
C1    C     C_3   0.669117 0.829937 0.210769 -0.255856
C2    C     C_3   0.349361 0.569900 0.227692 -0.045672
C3    C     C_2   0.303236 0.534884 0.139888 -0.097567
C4    C     C_3   0.167308 0.765303 0.253024 0.404567
C5    C     C_2   0.154128 0.484683 0.108658 -0.031197
C6    C     C_2   0.053289 0.443585 0.163826 -0.103504
C7    C     C_1   0.107966 0.461211 0.243556 -0.014019
C8    C     C_R   0.899352 0.467921 0.860797 -0.150331
C9    C     C_R   0.831732 0.455023 0.780506 -0.020465
C10   C     C_R   0.084923 0.537747 0.754891 0.005432
C11   C     C_R   0.152611 0.552597 0.836476 -0.095000
C12   C     C_3   0.642620 0.758746 0.261473 0.304975
C13   C     C_R   0.061291 0.515690 0.889683 0.054800
C14   C     C_2   0.094137 0.468412 0.020423 -0.007344
C15   C     C_2   0.133455 0.529848 0.975554 -0.029836
C16   C     C_3   0.267846 0.851241 0.235044 -0.176763
C17   C     C_R   0.924057 0.490475 0.728598 -0.258348
C18   C     C_R   0.877979 0.167053 0.540832 -0.035168
C19   C     C_R   0.809002 0.073446 0.536273 -0.045313
C20   C     C_R   0.651571 0.892229 0.536700 -0.022166
C21   C     C_R   0.803689 0.934927 0.585715 -0.014736
C22   C     C_R   0.895796 0.010449 0.567235 -0.023447
C23   C     C_3   0.387963 0.317322 0.296933 0.301221
C24   C     C_R   0.583695 0.797185 0.525183 0.041457
C25   C     C_R   0.424792 0.764005 0.480092 -0.286066
C26   C     C_R   0.613466 0.190228 0.471312 -0.029489
C27   C     C_R   0.544746 0.098316 0.467214 -0.007854
C28   C     C_3   0.307404 0.742241 0.652685 0.241346
C29   C     C_R   0.639721 0.040621 0.500835 0.016524
C30   C     C_R   0.382561 0.062048 0.429584 -0.078124
C31   C     C_R   0.313575 0.972034 0.424414 -0.129298
C32   C     C_R   0.403040 0.913046 0.454956 -0.037143
C33   C     C_R   0.566067 0.947838 0.495959 -0.001672
C34   C     C_3   0.305991 0.289583 0.209306 -0.374930
C35   C     C_R   0.330263 0.821242 0.448389 -0.025565
C36   C     C_R   0.778798 0.222272 0.507402 -0.272274
C37   C     C_3   0.403068 0.834555 0.695691 -0.287654
C38   C     C_3   0.805320 0.240550 0.282636 0.327542
C39   C     C_3   0.819550 0.138609 0.271286 -0.076937
C40   C     C_3   0.849138 0.711382 0.713754 0.282586
C41   C     C_3   0.790660 0.677420 0.784166 -0.321279
C42   C     C_2   0.677292 0.246841 0.214167 0.492985
C43   C     C_3   0.937998 0.123483 0.341708 -0.147942
C44   C     C_3   0.886428 0.029220 0.357614 -0.443185
C45   C     C_3   0.068937 0.262280 0.745742 0.292351
C46   C     C_3   0.877138 0.099863 0.192038 -0.254376
C47   C     C_3   0.741503 0.065103 0.118730 -0.358666
C48   C     C_2   0.988992 0.791002 0.742546 0.660122
C49   C     C_2   0.584186 0.794722 0.125776 0.514812
C50   C     C_2   0.186722 0.347346 0.789279 0.531430
C51   C     C_2   0.142474 0.163755 0.843870 0.561770
C52   C     C_3   0.491234 0.164771 0.723755 -0.190504
C53   C     C_3   0.588704 0.094467 0.693724 -0.492170
C54   C     C_2   0.647035 0.149569 0.885292 0.464461
C55   C     C_3   0.089312 0.693007 0.176602 -0.158736
C56   C     C_3   0.009853 0.202058 0.802064 -0.203655
C57   C     C_3   0.977474 0.719609 0.111838 -0.349094
C58   C     C_2   0.920555 0.366097 0.125104 0.589325
C59   C     C_2   0.838100 0.935270 0.671801 0.426761
C60   C     C_3   0.081765 0.018705 0.579275 -0.198503
C61   C     C_3   0.154436 0.940259 0.602405 -0.470818
C62   C     C_2   0.853887 0.314289 0.504042 0.548646
C63   C     C_3   0.174354 0.926001 0.219259 -0.185896
C64   C     C_3   0.289043 0.005410 0.201621 -0.420652
C65   C     C_3   0.595781 0.249464 0.782887 0.294767
C66   C     C_3   0.617170 0.239766 0.871010 -0.208409
C67   C     C_2   0.254610 0.512910 0.275276 -0.237802
H1    H     H_    0.720526 0.785090 0.321223 0.096084
H2    H     H_    0.890882 0.657097 0.821246 0.071066
H3    H     H_    0.689322 0.619013 0.760691 0.141132
H4    H     H_    0.513235 0.749893 0.269316 -0.123644
H5    H     H_    0.622337 0.890593 0.236421 0.038189
H6    H     H_    0.298458 0.343031 0.332123 0.043150
H7    H     H_    0.494735 0.373427 0.304006 0.086005
H8    H     H_    0.171927 0.275330 0.204159 0.074103
H9    H     H_    0.339781 0.345150 0.178120 0.117924
H10   H     H_    0.339846 0.227334 0.178109 0.148414
H11   H     H_    0.324376 0.830797 0.182429 0.068595
H12   H     H_    0.505046 0.825072 0.739270 0.210008
H13   H     H_    0.958997 0.282381 0.715613 -0.112008
H14   H     H_    0.955382 0.242019 0.847867 -0.012258
H15   H     H_    0.913874 0.144891 0.766694 0.076181
H16   H     H_    0.718340 0.264357 0.766111 -0.029855
H17   H     H_    0.721243 0.292650 0.906455 0.058555
H18   H     H_    0.507010 0.253908 0.895774 0.162035
H19   H     H_    0.218946 0.593044 0.002079 0.059257
H20   H     H_    0.822952 0.444773 0.901067 0.093669
H21   H     H_    0.011930 0.404948 0.991578 0.101695
H22   H     H_    0.383479 0.561391 0.102221 0.079687
H23   H     H_    0.446152 0.873176 0.652361 0.087146
H24   H     H_    0.276086 0.591228 0.858058 0.102495
H25   H     H_    0.300506 0.525128 0.338696 0.063114
H26   H     H_    0.864971 0.489143 0.669257 0.140489
H27   H     H_    0.257720 0.732189 0.283717 -0.082380
H28   H     H_    0.186809 0.949419 0.397442 0.092879
H29   H     H_    0.305914 0.102568 0.403347 0.096179
H30   H     H_    0.371018 0.693049 0.472475 0.060510
H31   H     H_    0.369759 0.880737 0.285913 0.068038
H32   H     H_    0.391463 0.702471 0.625195 0.050415
H33   H     H_    0.207732 0.748423 0.605939 0.010586
H34   H     H_    0.327991 0.872704 0.731550 0.146762
H35   H     H_    0.585430 0.187185 0.185260 -0.039136
H36   H     H_    0.894888 0.976823 0.306802 0.127098
H37   H     H_    0.967279 0.021049 0.410163 0.131690
H38   H     H_    0.757925 0.017851 0.367294 0.131259
H39   H     H_    0.065656 0.132386 0.329753 0.130946
H40   H     H_    0.941573 0.174145 0.396124 0.074494
H41   H     H_    0.629374 0.028295 0.134294 0.155885
H42   H     H_    0.713053 0.121358 0.090572 0.140382
H43   H     H_    0.784351 0.017449 0.073394 0.185776
H44   H     H_    0.973526 0.150384 0.178526 0.127830
H45   H     H_    0.759223 0.260711 0.338409 -0.089791
H46   H     H_    0.933652 0.040738 0.199365 0.129004
H47   H     H_    0.044066 0.820911 0.698841 -0.113054
H48   H     H_    0.495344 0.731373 0.108645 -0.005637
H49   H     H_    0.233067 0.394977 0.755127 0.057393
H50   H     H_    0.233880 0.207088 0.891772 0.053505
H51   H     H_    0.691812 0.126644 0.668843 0.118230
H52   H     H_    0.634798 0.061938 0.741611 0.189042
H53   H     H_    0.508295 0.040938 0.645958 0.153829
H54   H     H_    0.389778 0.132797 0.750082 0.170133
H55   H     H_    0.436226 0.186470 0.670308 0.179195
H56   H     H_    0.695339 0.099525 0.271351 0.054789
H57   H     H_    0.761460 0.128646 0.876932 0.015462
H58   H     H_    0.877417 0.746210 0.135592 0.168512
H59   H     H_    0.047383 0.769010 0.083567 0.125139
H60   H     H_    0.922207 0.658353 0.064491 0.131906
H61   H     H_    0.191027 0.674403 0.147603 0.038319
H62   H     H_    0.022165 0.632672 0.193561 0.135226
H63   H     H_    0.924210 0.299941 0.137959 -0.045096
H64   H     H_    0.957610 0.965090 0.706922 0.087055
H65   H     H_    0.071612 0.873983 0.581855 0.178654
H66   H     H_    0.268378 0.937337 0.578662 0.122513
H67   H     H_    0.888330 0.655505 0.675208 -0.046214
H68   H     H_    0.189904 0.953500 0.667876 0.131192
H69   H     H_    0.123595 0.030712 0.524253 0.140406
H70   H     H_    0.140535 0.073583 0.628776 0.177105
H71   H     H_    0.927531 0.325653 0.459279 0.000438
H72   H     H_    0.393104 0.033057 0.251963 0.132261
H73   H     H_    0.337359 0.983040 0.146438 0.160369
H74   H     H_    0.221804 0.060403 0.193079 0.130347
H75   H     H_    0.071241 0.900845 0.168638 0.129310
H76   H     H_    0.123739 0.951501 0.271983 0.121163
H77   H     H_    0.801818 0.852317 0.212622 0.100367
H78   H     H_    0.743657 0.730685 0.822201 0.159677
O1    O     O_2   0.823660 0.438400 0.305670 -0.420440
O2    O     O_2   0.223927 0.191220 0.550676 -0.496080
O3    O     O_3   0.148903 0.213392 0.691914 -0.638405
O4    O     O_3   0.097530 0.445010 0.403900 -0.493076
O5    O     O_3   0.591420 0.612980 0.544250 -0.468430
O6    O     O_2   0.325830 0.273320 0.453470 -0.450695
O7    O     O_3   0.440803 0.242995 0.322256 -0.674984
O8    O     O_2   0.526141 0.485713 0.777355 -0.470606
O9    O     O_3   0.508918 0.319907 0.778412 -0.573395
O10   O     O_3   0.626680 0.608380 0.360110 -0.485123
O11   O     O_2   0.637585 0.502990 0.221178 -0.403596
O12   O     O_3   0.717619 0.740352 0.674113 -0.630096
O13   O     O_3   0.964656 0.292181 0.288731 -0.675550
O14   O     O_3   0.684177 0.677231 0.225105 -0.591135
O15   O     O_2   0.863890 0.726710 0.546580 -0.501319
O16   O     O_3   0.059540 0.657940 0.401520 -0.462194
O17   O     O_2   0.988974 0.817006 0.444951 -0.489333
O18   O     O_2   0.659813 0.317530 0.195299 -0.543929
O19   O     O_2   0.041843 0.822637 0.813264 -0.554616
O20   O     O_2   0.611501 0.838554 0.075487 -0.573289
O21   O     O_2   0.234897 0.363100 0.861114 -0.622545
O22   O     O_2   0.144614 0.083053 0.826524 -0.557215
O23   O     O_3   0.049492 0.785290 0.301001 -0.589713
O24   O     O_2   0.543422 0.099533 0.908074 -0.523065
O25   O     O_2   0.806798 0.375442 0.077202 -0.555251
O26   O     O_2   0.730652 0.913481 0.708053 -0.602241
O27   O     O_2   0.841919 0.377916 0.554930 -0.567487
O28   O     O_2   0.366060 0.561630 0.694380 -0.451177
O29   O     O_3   0.092190 0.555060 0.596110 -0.470138
O30   O     O_3   0.563040 0.391700 0.639900 -0.430108
O31   O     O_3   0.241334 0.704721 0.710753 -0.641247
O32   O     O_3   0.598290 0.387090 0.455760 -0.449551
O33   O     O_3   0.130180 0.342130 0.598490 -0.461278
P1    P     P_3+3 0.993930 0.412000 0.316950 1.002047
P2    P     P_3+3 0.694120 0.714590 0.569800 0.992166
P3    P     P_3+3 0.110706 0.772401 0.399598 0.950065
P4    P     P_3+3 0.195780 0.588080 0.683070 0.996540
P5    P     P_3+3 0.091164 0.226274 0.594020 0.927508
P6    P     P_3+3 0.574446 0.587668 0.257599 0.998052
P7    P     P_3+3 0.497119 0.271054 0.426037 0.939741
P8    P     P_3+3 0.612687 0.409624 0.744005 0.989696

loop_
_geom_bond_atom_site_label_1
_geom_bond_atom_site_label_2
_ccdc_geom_bond_type
C52   H54   S    
C53   H52   S    
Ba1   O29   S    
O2    P5    D    
C41   H3    S    
O23   P3    S    
C32   C35   A    
C66   H17   S    
C37   H23   S    
C49   O20   D    
C40   O12   S    
C58   H63   S    
O3    P5    S    
Ba1   P1    S    
C34   H8    S    
C42   H35   S    
C59   H64   S    
C5    C6    S    
C64   H72   S    
C43   C44   S    
C16   C63   S    
C14   H21   S    
C20   C33   A    
C19   C29   A    
C9    C17   A    
C24   C25   A    
C60   C61   S    
O30   P8    S    
C16   H31   S    
C26   C27   A    
C7    C67   D    
O15   P2    D    
C27   C30   A    
C8    C13   A    
C4    O23   S    
C32   C33   A    
C43   H40   S    
C55   C57   S    
O32   P7    S    
C57   H58   S    
C35   P3    S    
C44   H36   S    
C15   H19   S    
C28   H32   S    
Ba1   O5    S    
C40   H67   S    
Ba1   Ba2   S    
C45   H13   S    
C2    P6    S    
C1    H5    S    
Ba2   O29   S    
C18   P5    S    
C38   H45   S    
C8    H20   S    
C6    C7    D    
C48   O19   D    
C41   H2    S    
C21   C22   A    
C41   H78   S    
Ba2   O30   S    
C54   H57   S    
C60   H70   S    
C40   C41   S    
C31   H28   S    
C43   H39   S    
C51   O22   D    
C47   H42   S    
C61   H68   S    
C53   H53   S    
C12   H1    S    
C4    C55   S    
Ba2   O33   S    
O11   P6    D    
C2    C67   S    
C55   H62   S    
O4    P1    S    
C36   C62   S    
C53   H51   S    
O9    P8    S    
Ba2   O5    S    
C4    C16   S    
C65   H16   S    
O16   P3    S    
C65   C66   S    
C58   O25   D    
C61   H65   S    
C39   H56   S    
C55   H61   S    
C59   O26   D    
O10   P6    S    
C37   H12   S    
C67   H25   S    
C8    C9    A    
C26   P7    S    
C3    C5    D    
C63   H75   S    
C1    C49   S    
O1    P1    D    
O5    P2    S    
C52   C65   S    
O6    P7    D    
C57   H59   S    
C54   C66   S    
C9    P8    S    
C11   H24   S    
C65   O9    S    
C23   H6    S    
C61   H66   S    
C12   H4    S    
O14   P6    S    
C56   H15   S    
Ba2   O28   S    
C18   C36   A    
C45   O3    S    
C26   C36   A    
Ba1   P2    S    
C25   H30   S    
C44   H38   S    
C28   H33   S    
C31   C32   A    
C28   O31   S    
Ba2   P4    S    
C60   H69   S    
C3    H22   S    
C1    C12   S    
C40   C48   S    
C47   H43   S    
C24   P2    S    
C46   C47   S    
Ba1   O15   S    
Ba2   O6    S    
C4    H27   S    
C46   H46   S    
C54   O24   D    
C29   C33   A    
Ba2   O32   S    
C62   O27   D    
O13   P1    S    
C17   H26   S    
C62   H71   S    
C21   C59   S    
Ba2   O4    S    
O29   P4    S    
C52   H55   S    
C52   C53   S    
C57   H60   S    
C22   C60   S    
C23   O7    S    
C38   O13   S    
C5    C14   S    
C2    C3    S    
C34   H10   S    
C51   C56   S    
C51   H50   S    
C37   H34   S    
C45   C50   S    
C64   H73   S    
O7    P7    S    
O8    P8    D    
C23   H7    S    
C30   C31   A    
C12   O14   S    
C11   C13   A    
C27   C29   A    
O17   P3    D    
C34   H9    S    
C56   H14   S    
C6    C58   S    
C45   C56   S    
Ba1   O32   S    
C10   P4    S    
C25   C35   A    
C44   H37   S    
C10   C17   A    
Ba1   O10   S    
C49   H48   S    
C39   C46   S    
C30   H29   S    
C28   C37   S    
Ba1   O4    S    
C48   H47   S    
C42   O18   D    
O12   P2    S    
O31   P4    S    
C7    P1    S    
O33   P5    S    
C23   C34   S    
C38   C42   S    
C18   C19   A    
Ba1   O16   S    
C1    H77   S    
C16   H11   S    
C63   C64   S    
C20   C24   A    
C19   C22   A    
C66   H18   S    
C39   C43   S    
C20   C21   A    
C46   H44   S    
Ba1   O1    S    
C38   C39   S    
C10   C11   A    
C13   C15   S    
C63   H76   S    
C64   H74   S    
C50   O21   D    
C14   C15   D    
C47   H41   S    
O28   P4    D    
C50   H49   S    
