data_mof_unit_34314.cif
_audit_creation_date              2012-12-10T19:04:18-0500
_audit_creation_method            fapswitch 2.2
_symmetry_space_group_name_H-M    P1
_symmetry_Int_Tables_number       1
_space_group_crystal_system       triclinic
_cell_length_a                    10.882506
_cell_length_b                    12.996383
_cell_length_c                    13.641612
_cell_angle_alpha                 85.255993
_cell_angle_beta                  89.858882
_cell_angle_gamma                 93.115822
_cell_volume                      1919.87794795

loop_
_atom_site_label
_atom_site_type_symbol
_atom_type_description
_atom_site_fract_x
_atom_site_fract_y
_atom_site_fract_z
_atom_type_partial_charge
C1    C     C_R   0.500052 0.481023 0.685219 0.900520
C2    C     C_3   0.121225 0.506964 0.505406 0.017674
C3    C     C_3   0.074987 0.454070 0.411628 -0.473346
C4    C     C_3   0.084991 0.629962 0.498982 -0.016603
C5    C     C_1   0.505841 0.535244 0.211707 -0.218774
C6    C     C_2   0.514667 0.558410 0.020020 0.044085
C7    C     C_2   0.530014 0.470286 0.977660 -0.229848
C8    C     C_1   0.518086 0.464230 0.875033 -0.015376
C9    C     C_1   0.510744 0.547901 0.124466 -0.080385
C10   C     C_1   0.508590 0.467296 0.788082 -0.195739
C11   C     C_2   0.501626 0.037004 0.463362 -0.253437
C12   C     C_R   0.742772 0.501637 0.495802 0.830396
C13   C     C_2   0.502005 0.963183 0.538863 -0.268770
C14   C     C_1   0.513814 0.853588 0.524360 0.081679
C15   C     C_1   0.487933 0.146433 0.476954 0.137387
C16   C     C_R   0.500866 0.519174 0.314740 0.907418
C17   C     C_R   0.257143 0.500609 0.503822 0.834639
C18   C     C_3   0.916085 0.441939 0.587494 -0.440969
C19   C     C_3   0.056327 0.432453 0.593279 -0.171068
C20   C     C_3   0.933724 0.458004 0.401901 -0.188751
C21   C     C_3   0.932648 0.631888 0.491171 -0.038859
C22   C     C_3   0.879520 0.509237 0.493272 0.022621
H1    H     H_    0.490918 0.984319 0.613621 0.158377
N1    N     N_1   0.479840 0.234530 0.484780 -0.101635
N2    N     N_1   0.520150 0.765470 0.515220 -0.097728
O1    O     O_R   0.492620 0.402510 0.634760 -0.622526
O2    O     O_R   0.505570 0.572960 0.644530 -0.603969
O3    O     O_R   0.678730 0.414780 0.495130 -0.600305
O4    O     O_R   0.691680 0.585220 0.504900 -0.619273
O5    O     O_R   0.494430 0.427040 0.355470 -0.603468
O6    O     O_R   0.507380 0.597490 0.365240 -0.600574
O7    O     O_R   0.308320 0.414780 0.495100 -0.639211
O8    O     O_R   0.321270 0.585220 0.504870 -0.620028
Zn1   Zn    Zn3+2 0.491360 0.386190 0.493470 0.956810
Zn2   Zn    Zn3+2 0.508640 0.613810 0.506530 0.972817
H2    H     H_    0.872326 0.362664 0.586636 0.179709
C23   C     C_R   0.153908 0.691417 0.404765 0.112580
C24   C     C_R   0.125688 0.673824 0.305184 -0.139810
C25   C     C_R   0.183265 0.730759 0.225024 -0.144970
C26   C     C_R   0.273168 0.807342 0.239841 -0.129991
C27   C     C_R   0.306481 0.826223 0.334675 -0.133628
C28   C     C_R   0.249086 0.769818 0.415181 -0.084642
H3    H     H_    0.052158 0.622607 0.285397 0.128161
H4    H     H_    0.155653 0.716650 0.150903 0.124515
H5    H     H_    0.316953 0.852512 0.178109 0.119210
H6    H     H_    0.377505 0.885106 0.345865 0.126642
H7    H     H_    0.283595 0.788301 0.485487 0.151756
H8    H     H_    0.922631 0.509581 0.336099 0.119727
H9    H     H_    0.125064 0.483710 0.343810 0.158965
H10   H     H_    0.544665 0.398580 0.022093 0.147504
C29   C     C_R   0.491614 0.661730 0.967699 0.137458
C30   C     C_R   0.415130 0.728829 0.012241 -0.171939
C31   C     C_R   0.396096 0.827454 0.967988 -0.177409
C32   C     C_R   0.450157 0.859740 0.877164 -0.133489
C33   C     C_R   0.523722 0.793661 0.830884 -0.131522
C34   C     C_R   0.548362 0.696890 0.877146 -0.142652
H11   H     H_    0.369908 0.704698 0.081517 0.142425
H12   H     H_    0.337061 0.878159 0.002876 0.122342
H13   H     H_    0.432982 0.935162 0.841695 0.120995
H14   H     H_    0.561902 0.818112 0.759149 0.145742
H15   H     H_    0.613003 0.651024 0.842382 0.153473
H16   H     H_    0.514232 0.016145 0.388796 0.148311
H17   H     H_    0.870935 0.465914 0.652977 0.145876
C35   C     C_R   0.110275 0.408631 0.697482 0.067183
C36   C     C_R   0.214914 0.348525 0.707390 -0.190260
C37   C     C_R   0.263897 0.319161 0.799374 -0.132588
C38   C     C_R   0.209891 0.348465 0.884492 -0.106047
C39   C     C_R   0.102823 0.402288 0.877945 -0.149478
C40   C     C_R   0.051107 0.429017 0.786244 -0.124325
H18   H     H_    0.256144 0.319110 0.644359 0.171447
H19   H     H_    0.343882 0.273041 0.804505 0.135308
H20   H     H_    0.248704 0.326543 0.955668 0.126799
H21   H     H_    0.057380 0.420748 0.944464 0.125077
H22   H     H_    0.962733 0.461247 0.788929 0.109933
H23   H     H_    0.065934 0.353755 0.569554 0.151737
C41   C     C_R   0.869458 0.355807 0.374547 0.166133
C42   C     C_R   0.889819 0.258874 0.424931 -0.128469
C43   C     C_R   0.829891 0.168284 0.396421 -0.143630
C44   C     C_R   0.749104 0.172402 0.317202 -0.126100
C45   C     C_R   0.727585 0.267191 0.266414 -0.105557
C46   C     C_R   0.787405 0.357946 0.294340 -0.133789
H24   H     H_    0.952888 0.251288 0.485294 0.103618
H25   H     H_    0.846723 0.094534 0.435585 0.127305
H26   H     H_    0.703432 0.102071 0.295019 0.118115
H27   H     H_    0.664725 0.270459 0.204997 0.119511
H28   H     H_    0.769015 0.430098 0.252985 0.091982
H29   H     H_    0.101344 0.372412 0.415298 0.183870
C47   C     C_R   0.889754 0.698571 0.392663 0.066402
C48   C     C_R   0.934213 0.803531 0.370729 -0.160988
C49   C     C_R   0.895499 0.865598 0.289444 -0.138551
C50   C     C_R   0.809679 0.826692 0.225458 -0.132544
C51   C     C_R   0.762312 0.725749 0.243002 -0.135356
C52   C     C_R   0.799988 0.663401 0.324708 -0.106802
H30   H     H_    0.001539 0.839791 0.414159 0.122114
H31   H     H_    0.932936 0.944446 0.276104 0.131221
H32   H     H_    0.779828 0.874715 0.162310 0.126825
H33   H     H_    0.695275 0.695531 0.192935 0.142041
H34   H     H_    0.755830 0.587613 0.330841 0.096503
C53   C     C_R   0.875687 0.686634 0.581176 0.154442
C54   C     C_R   0.803702 0.775333 0.567739 -0.084388
C55   C     C_R   0.775199 0.833253 0.645864 -0.188478
C56   C     C_R   0.807985 0.801001 0.741274 -0.134147
C57   C     C_R   0.866849 0.709589 0.759019 -0.133285
C58   C     C_R   0.900390 0.654528 0.680549 -0.149337
H35   H     H_    0.769118 0.803341 0.497295 0.146503
H36   H     H_    0.727266 0.903703 0.632312 0.135059
H37   H     H_    0.787118 0.846518 0.801521 0.131497
H38   H     H_    0.893861 0.684537 0.833135 0.127267
H39   H     H_    0.963218 0.596695 0.697513 0.143252
C59   C     C_R   0.134487 0.686152 0.593570 0.073077
C60   C     C_R   0.203143 0.638099 0.671769 -0.088362
C61   C     C_R   0.228585 0.685108 0.758472 -0.129673
C62   C     C_R   0.192229 0.784220 0.769198 -0.125968
C63   C     C_R   0.137585 0.838828 0.691198 -0.122901
C64   C     C_R   0.110461 0.791506 0.605175 -0.162566
H40   H     H_    0.240172 0.564425 0.669236 0.138387
H41   H     H_    0.276437 0.643899 0.817732 0.157381
H42   H     H_    0.207065 0.819405 0.837389 0.139111
H43   H     H_    0.112297 0.917314 0.698270 0.127528
H44   H     H_    0.064488 0.837999 0.551019 0.117842

loop_
_geom_bond_atom_site_label_1
_geom_bond_atom_site_label_2
_ccdc_geom_bond_type
C33   C34   A    
C55   C56   A    
C12   O4    A    
C27   C28   A    
C60   C61   A    
C11   H16   S    
C6    C9    S    
C63   C64   A    
C3    H9    S    
C7    C8    S    
C31   C32   A    
C16   O6    A    
C13   H1    S    
C54   H35   S    
C23   C24   A    
C12   O3    A    
C21   C22   S    
C38   H20   S    
C44   H26   S    
C21   C53   S    
C18   H17   S    
C16   O5    A    
C36   H18   S    
C12   C22   S    
C23   C28   A    
C20   C41   S    
C29   C34   A    
C48   H30   S    
C59   C60   A    
C54   C55   A    
C5    C16   S    
C50   H32   S    
C32   C33   A    
C11   C15   S    
C43   H25   S    
O1    Zn1   S    
C53   C54   A    
C39   C40   A    
C27   H6    S    
C57   H38   S    
C6    C29   S    
C63   H43   S    
C62   H42   S    
C53   C58   A    
C21   C47   S    
O3    Zn1   S    
C13   C14   S    
C2    C17   S    
C17   O8    A    
C61   C62   A    
C51   H33   S    
C32   H13   S    
C40   H22   S    
C26   H5    S    
O5    Zn1   S    
C3    H29   S    
C29   C30   A    
C56   H37   S    
C41   C42   A    
C50   C51   A    
C43   C44   A    
C18   C19   S    
O2    Zn2   S    
C39   H21   S    
C42   C43   A    
N1    Zn1   S    
C38   C39   A    
O7    Zn1   S    
C2    C4    S    
C5    C9    T    
C45   H27   S    
C37   H19   S    
C19   C35   S    
C3    C20   S    
C34   H15   S    
C35   C40   A    
C47   C48   A    
C20   H8    S    
N2    Zn2   S    
C15   N1    T    
C20   C22   S    
C36   C37   A    
C1    O1    A    
O6    Zn2   S    
C25   H4    S    
C25   C26   A    
C30   C31   A    
C62   C63   A    
C55   H36   S    
C4    C59   S    
C47   C52   A    
C26   C27   A    
C2    C19   S    
C18   C22   S    
C1    C10   S    
C46   H28   S    
C7    H10   S    
C45   C46   A    
C49   H31   S    
C41   C46   A    
C31   H12   S    
C6    C7    D    
O4    Zn2   S    
C61   H41   S    
C60   H40   S    
C35   C36   A    
C19   H23   S    
C2    C3    S    
C24   H3    S    
C4    C21   S    
C11   C13   D    
C49   C50   A    
C24   C25   A    
C42   H24   S    
C52   H34   S    
C51   C52   A    
O8    Zn2   S    
C37   C38   A    
C28   H7    S    
C14   N2    T    
C56   C57   A    
C30   H11   S    
C44   C45   A    
C4    C23   S    
C8    C10   T    
C64   H44   S    
C57   C58   A    
C1    O2    A    
C17   O7    A    
C58   H39   S    
C48   C49   A    
C33   H14   S    
C18   H2    S    
C59   C64   A    
