data_mof_unit_44937.cif
_audit_creation_date              2013-03-05T15:44:03-0500
_audit_creation_method            fapswitch 2.2
_symmetry_space_group_name_H-M    P1
_symmetry_Int_Tables_number       1
_space_group_crystal_system       triclinic
_cell_length_a                    30.647055
_cell_length_b                    22.256419
_cell_length_c                    18.042922
_cell_angle_alpha                 90.337235
_cell_angle_beta                  124.178552
_cell_angle_gamma                 89.189806
_cell_volume                      10180.389726

loop_
_atom_site_label
_atom_site_type_symbol
_atom_site_description
_atom_site_fract_x
_atom_site_fract_y
_atom_site_fract_z
_atom_type_partial_charge
C1    C     C_R   0.545114 0.583420 0.743169 -0.142048
C2    C     C_R   0.466438 0.391006 0.290529 -0.106014
C3    C     C_R   0.454702 0.582981 0.256655 -0.130987
C4    C     C_R   0.533661 0.390463 0.707734 -0.105780
C5    C     C_R   0.045339 0.083670 0.743381 -0.139744
C6    C     C_R   0.965939 0.891684 0.288872 -0.106840
C7    C     C_R   0.954789 0.083296 0.256876 -0.137065
C8    C     C_R   0.033976 0.890604 0.708352 -0.109180
H1    H     H_    0.520062 0.579944 0.767453 0.108382
H2    H     H_    0.497349 0.378641 0.281525 0.106995
H3    H     H_    0.480049 0.578972 0.232884 0.105109
H4    H     H_    0.502680 0.378186 0.715919 0.106179
H5    H     H_    0.020385 0.080434 0.767886 0.108475
H6    H     H_    0.996571 0.879552 0.279039 0.106533
H7    H     H_    0.980142 0.079426 0.233107 0.107097
H8    H     H_    0.003382 0.878366 0.717441 0.103932
N1    N     N_R   0.532970 0.559900 0.665210 -0.044214
N2    N     N_R   0.467030 0.440100 0.334790 -0.046555
N3    N     N_R   0.467030 0.559900 0.334790 -0.043584
N4    N     N_R   0.532970 0.440100 0.665210 -0.046446
N5    N     N_R   0.032970 0.059900 0.665210 -0.044523
N6    N     N_R   0.967030 0.940100 0.334790 -0.046503
N7    N     N_R   0.967030 0.059900 0.334790 -0.044568
N8    N     N_R   0.032970 0.940100 0.665210 -0.045916
C9    C     C_R   0.621922 0.612666 0.573673 -0.121676
C10   C     C_R   0.354647 0.419147 0.426243 -0.089514
C11   C     C_R   0.376069 0.612454 0.425563 -0.112783
C12   C     C_R   0.645942 0.419616 0.573591 -0.092751
C13   C     C_R   0.124878 0.111081 0.574151 -0.114230
C14   C     C_R   0.855803 0.916476 0.426916 -0.085945
C15   C     C_R   0.876004 0.112422 0.425580 -0.109797
C16   C     C_R   0.145891 0.919444 0.573580 -0.090076
H9    H     H_    0.652192 0.624016 0.642162 0.115455
H10   H     H_    0.320978 0.423330 0.357819 0.099876
H11   H     H_    0.349261 0.624739 0.356178 0.101879
H12   H     H_    0.679558 0.424152 0.641885 0.099154
H13   H     H_    0.152159 0.122826 0.643489 0.102034
H14   H     H_    0.821578 0.915370 0.358537 0.140726
H15   H     H_    0.849161 0.124700 0.356202 0.101985
H16   H     H_    0.179530 0.923969 0.641854 0.101272
N9    N     N_R   0.597900 0.559930 0.545530 -0.047309
N10   N     N_R   0.402100 0.440070 0.454470 -0.046842
N11   N     N_R   0.402100 0.559930 0.454470 -0.046203
N12   N     N_R   0.597900 0.440070 0.545530 -0.046544
N13   N     N_R   0.097900 0.059930 0.545530 -0.046179
N14   N     N_R   0.902100 0.940070 0.454470 -0.050410
N15   N     N_R   0.902100 0.059930 0.454470 -0.045144
N16   N     N_R   0.097900 0.940070 0.545530 -0.048011
C17   C     C_R   0.570524 0.612774 0.424556 -0.132555
C18   C     C_R   0.404303 0.418942 0.574664 -0.125773
C19   C     C_R   0.426465 0.612611 0.574639 -0.117547
C20   C     C_R   0.596184 0.419440 0.425299 -0.127636
C21   C     C_R   0.074345 0.111300 0.424830 -0.119170
C22   C     C_R   0.906117 0.917064 0.576138 -0.138632
C23   C     C_R   0.926422 0.112576 0.574663 -0.118180
C24   C     C_R   0.096093 0.919198 0.425263 -0.123596
H17   H     H_    0.553725 0.624039 0.355322 0.122225
H18   H     H_    0.416289 0.422378 0.643387 0.096473
H19   H     H_    0.446620 0.625139 0.644017 0.104607
H20   H     H_    0.583991 0.423433 0.356543 0.094421
H21   H     H_    0.054416 0.123403 0.355255 0.104466
H22   H     H_    0.918501 0.916476 0.645303 0.113884
H23   H     H_    0.946593 0.125086 0.644054 0.104849
H24   H     H_    0.083880 0.923082 0.356486 0.095933
N17   N     N_R   0.567170 0.559950 0.454460 -0.049179
N18   N     N_R   0.432830 0.440050 0.545540 -0.043897
N19   N     N_R   0.432830 0.559950 0.545540 -0.046416
N20   N     N_R   0.567170 0.440050 0.454460 -0.043339
N21   N     N_R   0.067170 0.059950 0.454460 -0.046482
N22   N     N_R   0.932830 0.940050 0.545540 -0.043341
N23   N     N_R   0.932830 0.059950 0.545540 -0.045524
N24   N     N_R   0.067170 0.940050 0.454460 -0.044609
C25   C     C_R   0.382078 0.583092 0.256177 -0.138497
C26   C     C_R   0.607001 0.390759 0.708082 -0.085242
C27   C     C_R   0.617551 0.583435 0.742853 -0.131099
C28   C     C_R   0.393062 0.391925 0.290181 -0.082742
C29   C     C_R   0.882120 0.083266 0.256326 -0.137028
C30   C     C_R   0.107128 0.890875 0.708257 -0.084006
C31   C     C_R   0.117624 0.083428 0.742740 -0.134414
C32   C     C_R   0.892636 0.892613 0.288743 -0.085002
H25   H     H_    0.341117 0.579886 0.232690 0.114315
H26   H     H_    0.643951 0.379437 0.716896 0.112451
H27   H     H_    0.658447 0.580609 0.765492 0.111678
H28   H     H_    0.355960 0.381498 0.280469 0.111326
H29   H     H_    0.841162 0.080019 0.232823 0.116207
H30   H     H_    0.144036 0.879576 0.716910 0.113094
H31   H     H_    0.158501 0.079828 0.765485 0.116329
H32   H     H_    0.855692 0.882060 0.279419 0.122544
N25   N     N_R   0.421470 0.559970 0.334770 -0.044102
N26   N     N_R   0.578530 0.440030 0.665230 -0.047100
N27   N     N_R   0.578530 0.559970 0.665230 -0.043330
N28   N     N_R   0.421470 0.440030 0.334770 -0.047378
N29   N     N_R   0.921470 0.059970 0.334770 -0.044719
N30   N     N_R   0.078530 0.940030 0.665230 -0.047277
N31   N     N_R   0.078530 0.059970 0.665230 -0.044480
N32   N     N_R   0.921470 0.940030 0.334770 -0.048740
C33   C     C_R   0.597816 0.599516 0.793414 0.102437
C34   C     C_R   0.420668 0.358939 0.262615 0.089888
C35   C     C_R   0.401647 0.598884 0.205538 0.103180
C36   C     C_R   0.579432 0.357559 0.734416 0.088791
C37   C     C_R   0.098141 0.099886 0.793558 0.101728
C38   C     C_R   0.919816 0.860118 0.259896 0.091561
C39   C     C_R   0.901724 0.099262 0.205803 0.101829
C40   C     C_R   0.079724 0.857725 0.734908 0.088009
C41   C     C_R   0.604719 0.646782 0.498334 0.067027
C42   C     C_R   0.354429 0.405413 0.500646 0.098665
C43   C     C_R   0.391963 0.647732 0.500139 0.070492
C44   C     C_R   0.646597 0.406796 0.499172 0.099140
C45   C     C_R   0.109796 0.145491 0.499164 0.072186
C46   C     C_R   0.858110 0.902129 0.502648 0.062077
C47   C     C_R   0.891859 0.147679 0.500170 0.068344
C48   C     C_R   0.146481 0.906432 0.499141 0.099168
Ni1   Ni    Ni4+2 0.483030 0.500000 0.604430 0.226603
Ni2   Ni    Ni4+2 0.516970 0.500000 0.395570 0.221188
Ni3   Ni    Ni4+2 0.983030 0.000000 0.604430 0.226522
Ni4   Ni    Ni4+2 0.016970 0.000000 0.395570 0.224682
Ni5   Ni    Ni4+2 0.587400 0.500000 0.604430 0.233278
Ni6   Ni    Ni4+2 0.412600 0.500000 0.395570 0.236867
Ni7   Ni    Ni4+2 0.087400 0.000000 0.604430 0.236154
Ni8   Ni    Ni4+2 0.912600 0.000000 0.395570 0.239982
C49   C     C_R   0.689067 0.384192 0.417953 -0.231993
C50   C     C_R   0.335815 0.737278 0.418889 -0.225592
C51   C     C_R   0.312711 0.379062 0.581235 -0.220346
C52   C     C_R   0.642431 0.746794 0.525275 -0.236137
C53   C     C_R   0.242410 0.882825 0.580678 -0.167136
C54   C     C_R   0.888925 0.236430 0.581594 -0.219803
C55   C     C_R   0.817358 0.808019 0.479128 -0.127957
C56   C     C_R   0.115555 0.230956 0.417100 -0.218365
C57   C     C_R   0.693589 0.392790 0.499176 0.095036
C58   C     C_R   0.373959 0.709213 0.500213 0.105689
C59   C     C_R   0.308118 0.388606 0.500238 0.095588
C60   C     C_R   0.638099 0.688133 0.495237 0.100107
C61   C     C_R   0.193440 0.892266 0.499132 0.096175
C62   C     C_R   0.873802 0.209138 0.500256 0.106819
C63   C     C_R   0.820897 0.867485 0.504522 0.070327
C64   C     C_R   0.129684 0.205013 0.498599 0.106121
C65   C     C_R   0.742557 0.383344 0.580723 -0.175521
C66   C     C_R   0.389078 0.736505 0.581545 -0.218738
C67   C     C_R   0.259948 0.377553 0.418479 -0.162508
C68   C     C_R   0.669033 0.665138 0.467307 -0.226861
C69   C     C_R   0.188908 0.883661 0.417903 -0.221592
C70   C     C_R   0.835683 0.237233 0.418937 -0.225913
C71   C     C_R   0.790448 0.892396 0.532215 -0.228147
C72   C     C_R   0.167953 0.232474 0.579759 -0.225392
C73   C     C_R   0.784413 0.357503 0.581636 0.110690
C74   C     C_R   0.358959 0.783625 0.582090 0.113237
C75   C     C_R   0.219015 0.350338 0.417248 0.109556
C76   C     C_R   0.705665 0.700793 0.469499 0.140477
C77   C     C_R   0.230504 0.857953 0.417627 0.131343
C78   C     C_R   0.805200 0.284493 0.418171 0.129249
C79   C     C_R   0.753465 0.856763 0.531273 0.133060
C80   C     C_R   0.198606 0.278307 0.580406 0.128770
C81   C     C_R   0.777527 0.342282 0.499807 0.032662
C82   C     C_R   0.314930 0.805172 0.500006 0.039693
C83   C     C_R   0.225926 0.335154 0.498941 0.032397
C84   C     C_R   0.710780 0.760599 0.499291 0.042171
C85   C     C_R   0.277444 0.841975 0.499753 0.033309
C86   C     C_R   0.814926 0.305300 0.500060 0.038087
C87   C     C_R   0.748174 0.796570 0.502290 0.025863
C88   C     C_R   0.189149 0.298323 0.498550 0.040084
C89   C     C_R   0.730627 0.358357 0.417681 0.131515
C90   C     C_R   0.305245 0.784429 0.418116 0.129789
C91   C     C_R   0.272025 0.351869 0.581172 0.130190
C92   C     C_R   0.678849 0.784003 0.526775 0.131056
C93   C     C_R   0.284303 0.857116 0.581585 0.109023
C94   C     C_R   0.858895 0.283663 0.582141 0.114220
C95   C     C_R   0.780552 0.772198 0.476491 0.120483
C96   C     C_R   0.145746 0.276774 0.416476 0.112686
C97   C     C_R   0.831076 0.341255 0.663048 -0.130580
C98   C     C_R   0.368309 0.804337 0.663253 -0.152809
C99   C     C_R   0.173202 0.333404 0.335727 -0.123485
C100  C     C_R   0.737710 0.677057 0.443832 -0.199297
C101  C     C_R   0.224041 0.842663 0.336560 -0.161346
C102  C     C_R   0.761392 0.306181 0.336859 -0.167684
C103  C     C_R   0.721632 0.879993 0.557955 -0.163444
C104  C     C_R   0.241877 0.299892 0.661708 -0.166361
C105  C     C_R   0.261379 0.806023 0.336801 -0.167988
C106  C     C_R   0.724140 0.342992 0.336617 -0.165930
C107  C     C_R   0.684461 0.843544 0.556027 -0.169612
C108  C     C_R   0.278527 0.336515 0.662089 -0.158703
C109  C     C_R   0.868289 0.304450 0.663303 -0.155149
C110  C     C_R   0.331006 0.840964 0.662999 -0.125060
C111  C     C_R   0.136624 0.296759 0.335339 -0.153815
C112  C     C_R   0.775463 0.712754 0.447838 -0.112608
H33   H     H_    0.652201 0.393042 0.354508 0.126744
H34   H     H_    0.325891 0.718964 0.355630 0.123429
H35   H     H_    0.348994 0.388789 0.644778 0.126735
H36   H     H_    0.618042 0.762762 0.547611 0.138727
H37   H     H_    0.247307 0.890804 0.644062 0.135227
H38   H     H_    0.920304 0.217423 0.644930 0.128861
H39   H     H_    0.843231 0.790078 0.460885 0.187019
H40   H     H_    0.084407 0.212269 0.353818 0.129625
H41   H     H_    0.747455 0.391363 0.644101 0.134370
H42   H     H_    0.420498 0.717542 0.644883 0.129123
H43   H     H_    0.255035 0.385853 0.355238 0.135631
H44   H     H_    0.665393 0.618598 0.446205 0.133785
H45   H     H_    0.152030 0.892470 0.354458 0.126317
H46   H     H_    0.825739 0.218905 0.355673 0.123432
H47   H     H_    0.795259 0.939016 0.553060 0.141143
H48   H     H_    0.177405 0.215073 0.643079 0.123589
H49   H     H_    0.837122 0.353562 0.726371 0.165119
H50   H     H_    0.402422 0.788739 0.726743 0.169407
H51   H     H_    0.167205 0.345509 0.272494 0.166742
H52   H     H_    0.733752 0.630970 0.421296 0.143507
H53   H     H_    0.188544 0.855617 0.273034 0.148302
H54   H     H_    0.753977 0.291228 0.273515 0.146752
H55   H     H_    0.725576 0.926097 0.580334 0.148996
H56   H     H_    0.249145 0.285431 0.725018 0.147383
H57   H     H_    0.253992 0.791114 0.273459 0.146418
H58   H     H_    0.688675 0.356016 0.273091 0.148296
H59   H     H_    0.660169 0.861779 0.577209 0.148568
H60   H     H_    0.313404 0.349876 0.725678 0.149300
H61   H     H_    0.902363 0.288789 0.726793 0.167655
H62   H     H_    0.337028 0.853212 0.726322 0.166656
H63   H     H_    0.103057 0.281032 0.271840 0.171355
H64   H     H_    0.800397 0.694107 0.428229 0.178350
C113  C     C_R   0.370475 0.617069 0.109806 0.044569
C114  C     C_R   0.594286 0.297046 0.776390 0.053134
C115  C     C_R   0.628752 0.619254 0.888064 0.044793
C116  C     C_R   0.405459 0.299470 0.217820 0.053865
C117  C     C_R   0.870476 0.117490 0.110074 0.046657
C118  C     C_R   0.094572 0.797148 0.776688 0.053405
C119  C     C_R   0.129881 0.119181 0.888772 0.047825
C120  C     C_R   0.904122 0.800854 0.214726 0.050610
C121  C     C_R   0.366496 0.655198 0.979500 0.365358
C122  C     C_R   0.580942 0.213451 0.848251 0.359037
C123  C     C_R   0.631963 0.662443 0.015436 0.361299
C124  C     C_R   0.418044 0.217008 0.141671 0.358818
C125  C     C_R   0.866233 0.155132 0.979294 0.366973
C126  C     C_R   0.080764 0.712867 0.846929 0.360260
C127  C     C_R   0.135521 0.156809 0.021252 0.367507
C128  C     C_R   0.919628 0.712755 0.150954 0.360897
C129  C     C_R   0.395515 0.633436 0.067622 -0.259440
C130  C     C_R   0.564346 0.268438 0.802252 -0.252347
C131  C     C_R   0.603443 0.637673 0.929433 -0.261848
C132  C     C_R   0.434864 0.271035 0.189709 -0.252614
C133  C     C_R   0.895383 0.133600 0.067567 -0.263918
C134  C     C_R   0.064310 0.768079 0.801515 -0.259793
C135  C     C_R   0.105878 0.134335 0.933578 -0.264516
C136  C     C_R   0.936172 0.768095 0.195862 -0.251020
C137  C     C_R   0.315388 0.619501 0.060727 -0.136808
C138  C     C_R   0.639341 0.267834 0.791603 -0.125023
C139  C     C_R   0.683781 0.621818 0.936436 -0.131472
C140  C     C_R   0.360571 0.271080 0.202292 -0.123651
C141  C     C_R   0.815402 0.120089 0.061255 -0.136886
C142  C     C_R   0.139822 0.768195 0.792344 -0.125600
C143  C     C_R   0.184684 0.123853 0.934732 -0.136183
C144  C     C_R   0.856428 0.776203 0.191819 -0.117978
C145  C     C_R   0.284812 0.637735 0.970637 0.104991
C146  C     C_R   0.655424 0.211133 0.832521 0.102325
C147  C     C_R   0.713984 0.643359 0.024591 0.105735
C148  C     C_R   0.344449 0.215104 0.159740 0.101106
C149  C     C_R   0.784692 0.137967 0.971025 0.104463
C150  C     C_R   0.155696 0.711245 0.832435 0.101620
C151  C     C_R   0.216096 0.142012 0.024581 0.103542
C152  C     C_R   0.841563 0.718321 0.156470 0.100009
C153  C     C_R   0.310782 0.659086 0.931259 -0.070173
C154  C     C_R   0.627727 0.185314 0.866046 -0.073140
C155  C     C_R   0.687419 0.667439 0.062212 -0.069460
C156  C     C_R   0.371709 0.189499 0.124371 -0.072500
C157  C     C_R   0.810511 0.158968 0.931213 -0.069023
C158  C     C_R   0.127713 0.684960 0.865090 -0.072559
C159  C     C_R   0.190952 0.162126 0.066579 -0.068641
C160  C     C_R   0.871395 0.687958 0.129597 -0.072521
C161  C     C_R   0.229021 0.642439 0.922765 -0.083288
C162  C     C_R   0.702620 0.183469 0.851074 -0.079828
C163  C     C_R   0.769625 0.648759 0.071383 -0.090186
C164  C     C_R   0.297835 0.187848 0.142144 -0.079826
C165  C     C_R   0.728907 0.142605 0.923361 -0.083530
C166  C     C_R   0.202918 0.683702 0.850979 -0.080694
C167  C     C_R   0.271622 0.147329 0.069745 -0.083672
C168  C     C_R   0.794279 0.693073 0.138510 -0.083528
C169  C     C_R   0.726363 0.197194 0.804539 0.313953
C170  C     C_R   0.198449 0.610588 0.946076 0.309175
C171  C     C_R   0.274889 0.201057 0.190580 0.315807
C172  C     C_R   0.801343 0.614172 0.051704 0.310555
C173  C     C_R   0.226838 0.697903 0.804891 0.316348
C174  C     C_R   0.698514 0.111060 0.947330 0.305861
C175  C     C_R   0.769443 0.711635 0.182017 0.343866
C176  C     C_R   0.301813 0.116093 0.043782 0.308303
C177  C     C_R   0.779835 0.183368 0.844545 -0.222232
C178  C     C_R   0.147580 0.631590 0.914999 -0.211056
C179  C     C_R   0.222010 0.186783 0.152790 -0.219613
C180  C     C_R   0.852298 0.633568 0.083008 -0.206672
C181  C     C_R   0.280274 0.683958 0.844895 -0.220303
C182  C     C_R   0.647715 0.132168 0.916483 -0.207307
C183  C     C_R   0.716953 0.696655 0.144938 -0.231156
C184  C     C_R   0.351951 0.136993 0.073046 -0.206711
H65   H     H_    0.797272 0.193181 0.808014 0.212109
H66   H     H_    0.124387 0.606521 0.931972 0.220672
H67   H     H_    0.205376 0.196064 0.191013 0.211373
H68   H     H_    0.876429 0.605968 0.069653 0.219815
H69   H     H_    0.297832 0.694132 0.808665 0.211502
H70   H     H_    0.624673 0.107369 0.934045 0.221738
H71   H     H_    0.699226 0.710060 0.180162 0.211115
H72   H     H_    0.374807 0.112293 0.053998 0.221455
H73   H     H_    0.663966 0.290907 0.776301 0.133327
H74   H     H_    0.296215 0.610486 0.094323 0.132415
H75   H     H_    0.336182 0.294184 0.219027 0.133321
H76   H     H_    0.703091 0.610618 0.903415 0.133386
H77   H     H_    0.164735 0.791612 0.778006 0.133501
H78   H     H_    0.796328 0.111437 0.095110 0.132098
H79   H     H_    0.829198 0.803316 0.197636 0.141748
H80   H     H_    0.202930 0.116508 0.898984 0.130036
H81   H     H_    0.529288 0.289990 0.791101 0.161996
H82   H     H_    0.438081 0.632702 0.104422 0.170175
H83   H     H_    0.469654 0.292078 0.200821 0.162324
H84   H     H_    0.560925 0.636508 0.893187 0.167284
H85   H     H_    0.029046 0.789364 0.789897 0.162217
H86   H     H_    0.937942 0.132788 0.104192 0.167972
H87   H     H_    0.973137 0.786399 0.212441 0.164519
H88   H     H_    0.063520 0.131944 0.899155 0.169124
N33   N     N_R   0.394630 0.676312 0.942669 0.235061
O1    O     O_R   0.434722 0.645479 0.955469 -0.346121
O2    O     O_R   0.387192 0.731066 0.912526 -0.379754
N34   N     N_R   0.551418 0.189050 0.880557 0.239414
O3    O     O_R   0.500117 0.190004 0.829351 -0.341963
O4    O     O_R   0.574778 0.177344 0.965435 -0.350502
N35   N     N_R   0.603417 0.685702 0.051105 0.233180
O5    O     O_R   0.565475 0.654547 0.043438 -0.343433
O6    O     O_R   0.607683 0.741978 0.073910 -0.354631
N36   N     N_R   0.446958 0.192859 0.107175 0.239639
O7    O     O_R   0.498277 0.192712 0.157105 -0.340258
O8    O     O_R   0.422866 0.182456 0.021826 -0.353428
N37   N     N_R   0.894238 0.176013 0.942101 0.233415
O9    O     O_R   0.934474 0.145281 0.955303 -0.349240
O10   O     O_R   0.886517 0.230568 0.911150 -0.386940
N38   N     N_R   0.050838 0.687910 0.878097 0.238639
O11   O     O_R   0.999556 0.688756 0.826151 -0.353430
O12   O     O_R   0.073757 0.675723 0.962734 -0.353122
N39   N     N_R   0.108175 0.176768 0.060769 0.233679
O13   O     O_R   0.069787 0.145043 0.050455 -0.349810
O14   O     O_R   0.114317 0.231330 0.091168 -0.390925
N40   N     N_R   0.951393 0.683848 0.125225 0.239325
O15   O     O_R   0.002525 0.683194 0.180294 -0.345661
O16   O     O_R   0.930478 0.668983 0.042017 -0.348997
N41   N     N_R   0.695865 0.219285 0.713793 0.230455
O17   O     O_R   0.717831 0.251897 0.683982 -0.405161
O18   O     O_R   0.647620 0.201606 0.657937 -0.362262
N42   N     N_R   0.216044 0.553942 0.992742 0.230778
O19   O     O_R   0.199482 0.536371 0.041453 -0.381290
O20   O     O_R   0.243869 0.516797 0.978730 -0.379397
N43   N     N_R   0.305880 0.222590 0.281419 0.230357
O21   O     O_R   0.284100 0.255260 0.312610 -0.411035
O22   O     O_R   0.354403 0.204059 0.336142 -0.360655
N44   N     N_R   0.785069 0.556235 0.009495 0.230354
O23   O     O_R   0.801979 0.535821 0.962078 -0.380400
O24   O     O_R   0.758458 0.520809 0.026903 -0.380537
N45   N     N_R   0.196560 0.720720 0.714554 0.230611
O25   O     O_R   0.218681 0.754050 0.685747 -0.407119
O26   O     O_R   0.148354 0.703157 0.658053 -0.363968
N46   N     N_R   0.716223 0.054602 0.994514 0.231467
O27   O     O_R   0.699881 0.037419 0.043712 -0.371053
O28   O     O_R   0.743945 0.017233 0.980578 -0.376587
N47   N     N_R   0.797706 0.741501 0.267098 0.209118
O29   O     O_R   0.774621 0.783841 0.283625 -0.439074
O30   O     O_R   0.845380 0.724318 0.329885 -0.424291
N48   N     N_R   0.284834 0.059875 0.996451 0.230946
O31   O     O_R   0.299949 0.043484 0.944765 -0.381243
O32   O     O_R   0.259317 0.021866 0.012775 -0.376760

loop_
_geom_bond_atom_site_label_1
_geom_bond_atom_site_label_2
_geom_bond_distance
_ccdc_geom_bond_type
C141  H78   1.075955 S    
N36   O8    1.301281 A    
N21   Ni4   1.865717 S    
C34   C116  1.484547 S    
C175  N47   1.434910 S    
C170  C178  1.401301 A    
C103  H55   1.083671 S    
C21   N21   1.336668 A    
C31   H31   1.078954 S    
N41   O17   1.301747 A    
C38   C120  1.483308 S    
C2    C34   1.400348 A    
C121  N33   1.436916 S    
C11   H11   1.076604 S    
C99   C111  1.392431 A    
C28   C34   1.397518 A    
C14   H14   1.081356 S    
C90   C105  1.401716 A    
C139  H76   1.075891 S    
C24   N24   1.337438 A    
C126  C134  1.402065 A    
C3    N3    1.341164 A    
N29   Ni8   1.849690 S    
C4    H4    1.078554 S    
C75   C83   1.408817 A    
C145  C153  1.419179 A    
C130  H81   1.081047 S    
C5    H5    1.080448 S    
C71   C79   1.384728 A    
C8    H8    1.077364 S    
C10   C42   1.382235 A    
C69   H45   1.081184 S    
N32   Ni8   1.834766 S    
C25   H25   1.079353 S    
C67   H43   1.080506 S    
C111  H63   1.083815 S    
C5    C37   1.391115 A    
C28   H28   1.077306 S    
N13   N21   1.359508 A    
N26   Ni5   1.849690 S    
C137  C145  1.403794 A    
N42   O19   1.301476 A    
C9    C41   1.377642 A    
C113  C129  1.402975 A    
C26   C36   1.399437 A    
N31   Ni7   1.834763 S    
C172  N44   1.439223 S    
C12   N12   1.333270 A    
C117  C133  1.402921 A    
N34   O3    1.301215 A    
C161  C166  1.410682 A    
C51   C91   1.393122 A    
C163  C168  1.410455 A    
N47   O29   1.300896 A    
C22   N22   1.326546 A    
C49   C89   1.392544 A    
N46   O27   1.301516 A    
C184  H72   1.080883 S    
C8    C40   1.396809 A    
N15   N23   1.359509 A    
C92   C107  1.400144 A    
C151  C159  1.418023 A    
C152  C160  1.415769 A    
C29   C39   1.394238 A    
C125  C133  1.400957 A    
C58   C66   1.403785 A    
C147  C163  1.422017 A    
C148  C156  1.418189 A    
C149  C157  1.419000 A    
C23   C47   1.388622 A    
N6    N32   1.396100 A    
N42   O20   1.301692 A    
C103  C107  1.392248 A    
C137  H74   1.076073 S    
C124  N36   1.436600 S    
N22   Ni3   1.865719 S    
N5    N31   1.396098 A    
C119  C143  1.399433 A    
C26   N26   1.336631 A    
C169  C177  1.400197 A    
C32   H32   1.076298 S    
C119  C135  1.402297 A    
C39   C117  1.484533 S    
C104  H56   1.083737 S    
C30   N30   1.336452 A    
C81   C89   1.410100 A    
C87   C95   1.412924 A    
C169  N41   1.439875 S    
C88   C96   1.410256 A    
N14   N22   1.359506 A    
C3    H3    1.080398 S    
N11   Ni6   1.835057 S    
C4    N4    1.341883 A    
C57   C65   1.405377 A    
C180  H68   1.080738 S    
C19   C43   1.388528 A    
C102  H54   1.083740 S    
C23   N23   1.337437 A    
C132  H83   1.081278 S    
C175  C183  1.396382 A    
C133  H86   1.081334 S    
N35   O6    1.301260 A    
N45   O25   1.301812 A    
N18   Ni1   1.865719 S    
C126  N38   1.436486 S    
N1    N27   1.396098 A    
N1    Ni1   1.864704 S    
C166  C173  1.422457 A    
C12   C44   1.382161 A    
N4    Ni1   1.842862 S    
N33   O2    1.301332 A    
C162  C169  1.422509 A    
C17   H17   1.079744 S    
C52   C60   1.389835 A    
C145  C161  1.420290 A    
C81   C86   1.399520 A    
N37   O10   1.301352 A    
N28   Ni6   1.834766 S    
C20   H20   1.079838 S    
C21   H21   1.076740 S    
C178  H66   1.080779 S    
C78   C86   1.409752 A    
C142  H77   1.075278 S    
C183  H71   1.081303 S    
C23   H23   1.076284 S    
C24   H24   1.079810 S    
C171  C179  1.400951 A    
C176  N48   1.439491 S    
C27   N27   1.338522 A    
C6    C38   1.399431 A    
C29   H29   1.079285 S    
C7    C39   1.387080 A    
C98   C110  1.392605 A    
C24   C48   1.386192 A    
N16   N24   1.359510 A    
C40   C118  1.484001 S    
C148  C164  1.422081 A    
C139  C147  1.402134 A    
C54   H38   1.081264 S    
C30   C40   1.398701 A    
C115  C131  1.401688 A    
N10   N18   1.359506 A    
C85   C93   1.408962 A    
C52   H36   1.084736 S    
N40   O15   1.301245 A    
C172  C180  1.403272 A    
C83   C91   1.410307 A    
C173  C181  1.399790 A    
C55   H39   1.085941 S    
N7    N29   1.396056 A    
C32   C38   1.397682 A    
C56   H40   1.081173 S    
C22   C46   1.360177 A    
C79   C87   1.413202 A    
N39   O14   1.301357 A    
C53   C93   1.389882 A    
C6    H6    1.079413 S    
C18   N18   1.338617 A    
N44   O24   1.301672 A    
C95   C112  1.396103 A    
C96   C111  1.401223 A    
N14   Ni8   1.850699 S    
C19   N19   1.337442 A    
N48   O32   1.301673 A    
C120  C136  1.401673 A    
C54   C62   1.403838 A    
C156  C184  1.402535 A    
C157  C177  1.402809 A    
N15   Ni8   1.835057 S    
N47   O30   1.301516 A    
N43   O22   1.301620 A    
C10   N10   1.332429 A    
C127  C159  1.418558 A    
C122  N34   1.436537 S    
C128  C160  1.420808 A    
C174  N46   1.439578 S    
C82   C90   1.409762 A    
N38   O11   1.301240 A    
C162  C165  1.410671 A    
C124  C156  1.418807 A    
C47   C62   1.468621 S    
C125  C157  1.417186 A    
C1    N1    1.341543 A    
C50   C90   1.391721 A    
N2    N28   1.396100 A    
C74   C98   1.401224 A    
C72   C80   1.392076 A    
N20   Ni2   1.843415 S    
C173  N45   1.439695 S    
C66   C74   1.390919 A    
C7    N7    1.341162 A    
C7    H7    1.080337 S    
C8    N8    1.342589 A    
C114  C138  1.398425 A    
C59   C67   1.405415 A    
C3    C35   1.386494 A    
C104  C108  1.393990 A    
C150  C158  1.418024 A    
N11   N19   1.359509 A    
C15   C47   1.388037 A    
C31   C37   1.391539 A    
C109  H61   1.083796 S    
N9    Ni5   1.850699 S    
C13   N13   1.336513 A    
C9    H9    1.080013 S    
C138  H73   1.075269 S    
C126  C158  1.418044 A    
N5    Ni3   1.864704 S    
C122  C154  1.418025 A    
C14   C46   1.367498 A    
C93   C110  1.401796 A    
C65   C73   1.389976 A    
C55   C63   1.383631 A    
C171  N43   1.439680 S    
C56   C64   1.403826 A    
C125  N37   1.437002 S    
C112  H64   1.083709 S    
C6    N6    1.344632 A    
C27   C33   1.391445 A    
N34   O4    1.301266 A    
C100  H52   1.084141 S    
C147  C155  1.419534 A    
N7    Ni4   1.842859 S    
C120  C144  1.396255 A    
C134  H85   1.080978 S    
C149  C165  1.420292 A    
N46   O28   1.301666 A    
C170  N42   1.439562 S    
N27   Ni5   1.834763 S    
C128  N40   1.436557 S    
C41   C60   1.410005 S    
C102  C106  1.393788 A    
N13   Ni7   1.850699 S    
N36   O7    1.301223 A    
C15   N15   1.337379 A    
C123  N35   1.436444 S    
C16   N16   1.333184 A    
N2    Ni2   1.864704 S    
C26   H26   1.077617 S    
C43   C58   1.468426 S    
C135  H88   1.081421 S    
N41   O18   1.301623 A    
C14   N14   1.327243 A    
C136  H87   1.081530 S    
C73   C97   1.401797 A    
C66   H42   1.081268 S    
C129  H82   1.081318 S    
C42   C59   1.468907 S    
C127  N39   1.437065 S    
C163  C172  1.423703 A    
C79   C103  1.400489 A    
C18   H18   1.079907 S    
C1    H1    1.080503 S    
C146  C162  1.420022 A    
C82   C85   1.399415 A    
N10   Ni6   1.850699 S    
C17   C41   1.373449 A    
C22   H22   1.081418 S    
N3    Ni2   1.842859 S    
C179  H67   1.080959 S    
C5    N5    1.345015 A    
C138  C146  1.401815 A    
N39   O13   1.301251 A    
C176  C184  1.400745 A    
C31   N31   1.338059 A    
C131  H84   1.081479 S    
C62   C70   1.404578 A    
C152  C168  1.419166 A    
C11   C43   1.387907 A    
C67   C75   1.389642 A    
C153  C181  1.402628 A    
C155  C183  1.399034 A    
C97   C109  1.392650 A    
C150  C166  1.419664 A    
C146  C154  1.418229 A    
C167  C176  1.422616 A    
C160  C180  1.403498 A    
C9    N9    1.332233 A    
C123  C131  1.398396 A    
C86   C94   1.410273 A    
C16   C48   1.382262 A    
C51   C59   1.404411 A    
C49   C57   1.404561 A    
C54   C94   1.391019 A    
C122  C130  1.401898 A    
C60   C68   1.390919 A    
C142  C150  1.401601 A    
N24   Ni4   1.843415 S    
C61   C69   1.404537 A    
C121  C129  1.400614 A    
C70   C78   1.391825 A    
C25   N25   1.341899 A    
C64   C72   1.404836 A    
C118  C142  1.398188 A    
C27   H27   1.079145 S    
N33   O1    1.301198 A    
C158  C178  1.403095 A    
C141  C149  1.403589 A    
C29   N29   1.341496 A    
C99   H51   1.083818 S    
N37   O9    1.301244 A    
C113  C137  1.398421 A    
C50   H34   1.081395 S    
C97   H49   1.083792 S    
N35   O5    1.301175 A    
C11   N11   1.337288 A    
C12   H12   1.079400 S    
C13   H13   1.076862 S    
C18   C42   1.387538 A    
N16   Ni7   1.835060 S    
C101  H53   1.083700 S    
C76   C84   1.409989 A    
C89   C106  1.401812 A    
C77   C85   1.410097 A    
C52   C92   1.387147 A    
C143  C151  1.402851 A    
N43   O21   1.301713 A    
C80   C88   1.409578 A    
C143  H80   1.075575 S    
C2    N2    1.343869 A    
N17   Ni2   1.865717 S    
C144  H79   1.074713 S    
C48   C61   1.469011 S    
C68   C76   1.366231 A    
C69   C77   1.392460 A    
C151  C167  1.421391 A    
C116  C140  1.399886 A    
C106  H58   1.083700 S    
C17   N17   1.325546 A    
N40   O16   1.301232 A    
C107  H59   1.083656 S    
C159  C179  1.402840 A    
C127  C135  1.402413 A    
C105  H57   1.083740 S    
C108  H60   1.083688 S    
C10   H10   1.079314 S    
C35   C113  1.484336 S    
C115  C139  1.399137 A    
C72   H48   1.081367 S    
C33   C115  1.480578 S    
C32   N32   1.332585 A    
C20   N20   1.337599 A    
C123  C155  1.416255 A    
C73   C81   1.408975 A    
C30   H30   1.077537 S    
N45   O26   1.301600 A    
C45   C64   1.468500 S    
C70   H46   1.081392 S    
C46   C63   1.401717 S    
C13   C45   1.389340 A    
C94   C109  1.401249 A    
C75   C99   1.401775 A    
C65   H41   1.080529 S    
C56   C96   1.390936 A    
C114  C130  1.402177 A    
N38   O12   1.301267 A    
C1    C33   1.387903 A    
N9    N17   1.359508 A    
N4    N26   1.396054 A    
C118  C134  1.402338 A    
C21   C45   1.390138 A    
C49   H33   1.081191 S    
C74   C82   1.410284 A    
N3    N25   1.396056 A    
N8    N30   1.396054 A    
N30   Ni7   1.849690 S    
C100  C112  1.380742 A    
C164  C167  1.411576 A    
C101  C105  1.393733 A    
C98   H50   1.083801 S    
N23   Ni3   1.843414 S    
C68   H44   1.086840 S    
C84   C92   1.415154 A    
C44   C57   1.469148 S    
C28   N28   1.334454 A    
C78   C102  1.401748 A    
C168  C175  1.422969 A    
C4    C36   1.397184 A    
N12   N20   1.359510 A    
C19   H19   1.076228 S    
C2    H2    1.079143 S    
C110  H62   1.083795 S    
C53   C61   1.405382 A    
C25   C35   1.394089 A    
C140  C148  1.402000 A    
C83   C88   1.399805 A    
C116  C132  1.401270 A    
C84   C87   1.383120 A    
C174  C182  1.401092 A    
C144  C152  1.397991 A    
C71   H47   1.084979 S    
C154  C182  1.402977 A    
N19   Ni1   1.843414 S    
C121  C153  1.416854 A    
C37   C119  1.485763 S    
N44   O23   1.301478 A    
C117  C141  1.398385 A    
N12   Ni5   1.835060 S    
C164  C171  1.423490 A    
N6    Ni4   1.864704 S    
C63   C71   1.390651 A    
C76   C100  1.396979 A    
C182  H70   1.080851 S    
C15   H15   1.076591 S    
C165  C174  1.422066 A    
C77   C101  1.401804 A    
C16   H16   1.079383 S    
C51   H35   1.081348 S    
N48   O31   1.301504 A    
C124  C132  1.402191 A    
C36   C114  1.483915 S    
C80   C104  1.401897 A    
C161  C170  1.422105 A    
N25   Ni6   1.849690 S    
C20   C44   1.386069 A    
N8    Ni3   1.842862 S    
C55   C95   1.369268 A    
C181  H69   1.080974 S    
C91   C108  1.401818 A    
C128  C136  1.405329 A    
C53   H37   1.080516 S    
C50   C58   1.404507 A    
C140  H75   1.074791 S    
C177  H65   1.080955 S    
