data_mof_unit_10316.cif
_audit_creation_date              2012-12-10T17:48:54-0500
_audit_creation_method            fapswitch 2.2
_symmetry_space_group_name_H-M    P1
_symmetry_Int_Tables_number       1
_space_group_crystal_system       triclinic
_cell_length_a                    10.784675
_cell_length_b                    14.741909
_cell_length_c                    14.742759
_cell_angle_alpha                 64.183353
_cell_angle_beta                  104.184316
_cell_angle_gamma                 103.046206
_cell_volume                      2026.52304983

loop_
_atom_site_label
_atom_site_type_symbol
_atom_type_description
_atom_site_fract_x
_atom_site_fract_y
_atom_site_fract_z
_atom_type_partial_charge
C1    C     C_R   0.477196 0.120229 0.311587 0.904326
C2    C     C_R   0.424925 0.358874 0.071225 -0.051362
C3    C     C_R   0.408897 0.321749 0.994383 -0.310245
C4    C     C_R   0.259996 0.001484 0.498080 0.952128
C5    C     C_R   0.418507 0.463395 0.042944 -0.129124
C6    C     C_R   0.432915 0.532562 0.941805 -0.152601
C7    C     C_R   0.406878 0.493934 0.865356 0.567737
C8    C     C_R   0.393487 0.389868 0.891404 0.638648
C9    C     C_R   0.394971 0.501630 0.110145 0.329030
C10   C     C_R   0.407718 0.606368 0.081948 0.749554
C11   C     C_R   0.441669 0.675478 0.987102 -0.369364
C12   C     C_3   0.876935 0.000895 0.496917 -0.526540
C13   C     C_R   0.462761 0.638389 0.918911 -0.142776
C14   C     C_R   0.451026 0.781203 0.957312 0.667789
C15   C     C_R   0.477460 0.848724 0.860387 0.487410
C16   C     C_R   0.518157 0.880016 0.688115 0.894221
C17   C     C_R   0.514830 0.708931 0.830388 0.431283
C18   C     C_R   0.688427 0.270076 0.688299 0.696178
C19   C     C_R   0.666193 0.194851 0.651668 0.405513
C20   C     C_R   0.524687 0.289805 0.505997 0.804195
C21   C     C_R   0.534346 0.365115 0.545659 -0.213732
C22   C     C_R   0.624833 0.356382 0.635878 -0.304646
C23   C     C_3   0.932562 0.910020 0.594607 0.774648
C24   C     C_R   0.459479 0.448836 0.499021 -0.019821
C25   C     C_R   0.497000 0.532125 0.529962 -0.090939
C26   C     C_R   0.586488 0.518795 0.621239 0.546917
C27   C     C_R   0.649081 0.432135 0.674194 0.471339
C28   C     C_R   0.739312 0.001110 0.497685 0.910120
C29   C     C_R   0.339894 0.446286 0.432580 0.521466
C30   C     C_R   0.275042 0.532932 0.381256 0.414671
C31   C     C_R   0.326888 0.622918 0.396818 -0.242808
C32   C     C_R   0.436263 0.622601 0.473401 -0.082932
C33   C     C_R   0.269532 0.712979 0.339005 0.547201
C34   C     C_3   0.958409 0.102606 0.499902 0.384611
C35   C     C_R   0.312559 0.796863 0.363790 0.786534
C36   C     C_R   0.481099 0.714350 0.488810 0.070700
C37   C     C_3   0.034097 0.981461 0.402506 0.887535
C38   C     C_3   0.892151 0.997016 0.394283 0.719811
C39   C     C_3   0.080402 0.918480 0.599033 0.039507
C40   C     C_3   0.098754 0.110494 0.485558 0.563614
C41   C     C_3   0.121661 0.002590 0.496622 -0.491515
C42   C     C_R   0.455502 0.188349 0.201968 -0.272633
C43   C     C_R   0.507465 0.812644 0.795543 -0.325989
C44   C     C_R   0.409172 0.217411 0.022392 0.686453
C45   C     C_R   0.430352 0.151125 0.125251 0.613676
C46   C     C_R   0.456101 0.292172 0.173848 -0.233045
Cu1   Cu    Cu3+1 0.465900 0.918260 0.475680 1.146403
Cu2   Cu    Cu3+1 0.534100 0.081740 0.524320 1.078011
F1    F     F_    0.956777 0.110490 0.590127 -0.599303
F2    F     F_    0.252728 0.881039 0.310964 -0.508162
F3    F     F_    0.772071 0.255775 0.777451 -0.493831
F4    F     F_    0.462628 0.304628 0.410150 -0.614784
F5    F     F_    0.869753 0.090566 0.315219 -0.559716
F6    F     F_    0.602146 0.582530 0.668153 -0.637580
F7    F     F_    0.173578 0.721735 0.257609 -0.526578
F8    F     F_    0.871550 0.816996 0.592741 -0.669468
F9    F     F_    0.369616 0.356809 0.815166 -0.537242
F10   F     F_    0.472216 0.949177 0.829969 -0.534771
F11   F     F_    0.382607 0.639753 0.147380 -0.535518
F12   F     F_    0.390544 0.179059 0.950627 -0.486250
F13   F     F_    0.429861 0.051101 0.149088 -0.511708
F14   F     F_    0.079390 0.050496 0.313303 -0.524314
F15   F     F_    0.382967 0.555791 0.764548 -0.561518
F16   F     F_    0.427484 0.819610 0.019171 -0.477809
H1    H     H_    0.133518 0.940631 0.662720 0.173843
H2    H     H_    0.095550 0.550445 0.340803 0.368480
H3    H     H_    0.749537 0.084786 0.669303 0.395840
H4    H     H_    0.196873 0.362204 0.381900 0.400449
H5    H     H_    0.794852 0.858715 0.424093 0.344312
H6    H     H_    0.108293 0.780067 0.693487 0.380648
H7    H     H_    0.178970 0.097985 0.626235 0.376272
H8    H     H_    0.203404 0.194300 0.378574 0.394219
H9    H     H_    0.484474 0.321320 0.232620 0.269907
H10   H     H_    0.570185 0.725057 0.537365 0.253821
H11   H     H_    0.913577 0.168680 0.437624 0.201127
H12   H     H_    0.994398 0.831222 0.461925 0.354531
H13   H     H_    0.822827 0.883719 0.693532 0.353776
H14   H     H_    0.621927 0.618792 0.832231 0.358887
H15   H     H_    0.285974 0.382422 0.186563 0.360393
H16   H     H_    0.749028 0.481220 0.778968 0.375725
N1    N     N_R   0.585360 0.204570 0.560800 -0.341302
N2    N     N_R   0.414550 0.795430 0.439160 -0.319444
O1    O     O_R   0.455060 0.022100 0.338110 -0.480996
O2    O     O_3   0.913501 0.913249 0.684334 -0.633246
O3    O     O_3   0.583866 0.680683 0.781719 -0.589290
O4    O     O_3   0.344086 0.440326 0.198051 -0.639139
O5    O     O_3   0.734597 0.419686 0.764593 -0.595499
O6    O     O_3   0.157394 0.525775 0.319723 -0.631761
O7    O     O_3   0.725701 0.110020 0.713156 -0.564240
O8    O     O_3   0.277472 0.353616 0.432415 -0.610927
O9    O     O_3   0.801631 0.924807 0.365106 -0.599517
O10   O     O_3   0.115972 0.823936 0.620903 -0.659957
O11   O     O_3   0.186585 0.146468 0.555276 -0.587064
O12   O     O_R   0.512640 0.160150 0.379180 -0.559265
O13   O     O_3   0.111806 0.183952 0.386304 -0.639595
O14   O     O_R   0.288900 0.930980 0.479450 -0.484614
O15   O     O_R   0.346480 0.069030 0.520520 -0.559127
O16   O     O_R   0.487360 0.839850 0.620820 -0.529479
O17   O     O_R   0.544940 0.977900 0.661890 -0.541840
O18   O     O_R   0.653520 0.930970 0.479480 -0.563005
O19   O     O_R   0.711100 0.069020 0.520550 -0.597842
O20   O     O_3   0.041472 0.884529 0.408424 -0.587690

loop_
_geom_bond_atom_site_label_1
_geom_bond_atom_site_label_2
_ccdc_geom_bond_type
C33   F7    S    
C40   O11   S    
C37   F14   S    
C7    C8    A    
C39   C41   S    
C2    C46   A    
Cu2   O15   S    
C12   C23   S    
C26   C27   A    
C29   C30   A    
Cu1   O16   S    
Cu2   O12   S    
C12   C28   S    
C17   O3    S    
C32   C36   A    
C21   C22   A    
H16   O5    S    
H2    O6    S    
C5    C6    A    
C8    F9    S    
C11   C14   A    
C4    C41   S    
H3    O7    S    
Cu2   N1    S    
C18   C19   A    
C42   C46   A    
Cu1   N2    S    
C24   C29   A    
C4    O14   A    
H8    O13   S    
C28   O19   A    
Cu1   Cu2   S    
C36   N2    A    
C1    O12   A    
H4    O8    S    
Cu1   O14   S    
C31   C33   A    
Cu1   O1    S    
C9    C10   A    
C34   H11   S    
C28   O18   A    
C25   C32   A    
C20   N1    A    
C12   C38   S    
C39   H1    S    
C26   F6    S    
C29   O8    S    
C35   N2    A    
C18   F3    S    
H12   O20   S    
C3    C44   A    
C23   O2    S    
C23   F8    S    
C24   C25   A    
C3    C8    A    
C37   O20   S    
H13   O2    S    
C25   C26   A    
C38   O9    S    
Cu1   O18   S    
C42   C45   A    
C17   C43   A    
C5    C9    A    
C37   C38   S    
C19   O7    S    
C4    O15   A    
C9    O4    S    
C31   C32   A    
C14   F16   S    
C35   F2    S    
C27   O5    S    
C16   C43   S    
C7    F15   S    
C36   H10   S    
H14   O3    S    
C40   C41   S    
C22   C27   A    
C15   F10   S    
C34   C40   S    
C2    C5    A    
C40   O13   S    
C12   C34   S    
C39   O10   S    
C44   C45   A    
Cu2   O17   S    
C34   F1    S    
C18   C22   A    
H6    O10   S    
C16   O17   A    
C6    C7    A    
H7    O11   S    
C1    O1    A    
C13   C17   A    
C2    C3    A    
C15   C43   A    
C20   F4    S    
H5    O9    S    
C6    C13   A    
C11   C13   A    
C16   O16   A    
C30   C31   A    
C38   F5    S    
C44   F12   S    
C23   C39   S    
Cu2   O19   S    
C45   F13   S    
C33   C35   A    
C10   F11   S    
C46   H9    S    
C37   C41   S    
C10   C11   A    
C1    C42   S    
C20   C21   A    
C21   C24   A    
C14   C15   A    
C19   N1    A    
C30   O6    S    
H15   O4    S    
