data_mof_unit_11618.cif
_audit_creation_date              2012-12-11T14:39:29-0500
_audit_creation_method            fapswitch 2.2
_symmetry_space_group_name_H-M    P1
_symmetry_Int_Tables_number       1
_space_group_crystal_system       triclinic
_cell_length_a                    7.219375
_cell_length_b                    14.09735
_cell_length_c                    16.299572
_cell_angle_alpha                 90.0
_cell_angle_beta                  97.376274
_cell_angle_gamma                 89.999981
_cell_volume                      1645.14540064

loop_
_atom_site_label
_atom_site_type_symbol
_atom_type_description
_atom_site_fract_x
_atom_site_fract_y
_atom_site_fract_z
_atom_type_partial_charge
O1    O     O_R   0.525340 0.338340 0.164530 -0.542409
O2    O     O_R   0.474660 0.661660 0.835470 -0.542409
O3    O     O_R   0.974660 0.838340 0.835470 -0.542409
O4    O     O_R   0.025340 0.161660 0.164530 -0.542409
O5    O     O_R   0.253520 0.352000 0.336710 -0.539427
O6    O     O_R   0.746480 0.648000 0.663290 -0.539426
O7    O     O_R   0.246480 0.852000 0.663290 -0.539426
O8    O     O_R   0.753520 0.148000 0.336710 -0.539426
O9    O     O_R   0.083330 0.168380 0.337300 -0.535464
O10   O     O_R   0.916670 0.831620 0.662700 -0.535464
O11   O     O_R   0.416670 0.668380 0.662700 -0.535464
O12   O     O_R   0.583330 0.331620 0.337300 -0.535464
C1    C     C_R   0.432316 0.368696 0.363670 0.689171
C2    C     C_R   0.567684 0.631304 0.636330 0.689171
C3    C     C_R   0.067684 0.868695 0.636330 0.689172
C4    C     C_R   0.932316 0.131304 0.363670 0.689171
O13   O     O_R   0.195840 0.349670 0.165140 -0.542236
O14   O     O_R   0.804160 0.650330 0.834860 -0.542236
O15   O     O_R   0.304160 0.849670 0.834860 -0.542236
O16   O     O_R   0.695840 0.150330 0.165140 -0.542236
C5    C     C_R   0.357192 0.371989 0.137695 0.738091
C6    C     C_R   0.642808 0.628011 0.862305 0.738091
C7    C     C_R   0.142808 0.871989 0.862305 0.738091
C8    C     C_R   0.857192 0.128011 0.137695 0.738091
O17   O     O_3   0.387830 0.193120 0.250910 -0.376186
O18   O     O_3   0.612170 0.806880 0.749090 -0.376186
O19   O     O_3   0.112170 0.693120 0.749090 -0.376186
O20   O     O_3   0.887830 0.306880 0.250910 -0.376186
V1    V     V_3+5 0.113010 0.264540 0.250910 1.402553
V2    V     V_3+5 0.886990 0.735460 0.749090 1.402553
V3    V     V_3+5 0.386990 0.764540 0.749090 1.402553
V4    V     V_3+5 0.613010 0.235460 0.250910 1.402553
H1    H     H_    0.157206 0.828496 0.265932 0.118238
H2    H     H_    0.842794 0.171504 0.734068 0.118238
H3    H     H_    0.342793 0.328496 0.734067 0.118238
H4    H     H_    0.657207 0.671504 0.265933 0.118238
C9    C     C_R   0.867815 0.185119 0.528063 -0.144786
C10   C     C_R   0.132184 0.814881 0.471937 -0.144786
C11   C     C_R   0.632185 0.685119 0.471937 -0.144786
C12   C     C_R   0.367815 0.314881 0.528063 -0.144786
C13   C     C_R   0.835473 0.212799 0.607039 -0.116377
C14   C     C_R   0.164527 0.787201 0.392960 -0.116377
C15   C     C_R   0.664527 0.712799 0.392961 -0.116377
C16   C     C_R   0.335473 0.287201 0.607039 -0.116377
C17   C     C_R   0.867421 0.149582 0.672744 -0.132503
C18   C     C_R   0.132578 0.850418 0.327256 -0.132503
C19   C     C_R   0.632579 0.649582 0.327256 -0.132503
C20   C     C_R   0.367421 0.350418 0.672744 -0.132503
C21   C     C_R   0.932149 0.058296 0.659934 -0.139729
C22   C     C_R   0.067851 0.941704 0.340066 -0.139729
C23   C     C_R   0.567852 0.558295 0.340066 -0.139729
C24   C     C_R   0.432148 0.441704 0.659934 -0.139729
C25   C     C_R   0.965269 0.028102 0.580253 0.062281
C26   C     C_R   0.034731 0.971898 0.419747 0.062281
C27   C     C_R   0.534731 0.528102 0.419747 0.062281
C28   C     C_R   0.465269 0.471898 0.580253 0.062281
C29   C     C_R   0.932457 0.092578 0.513111 0.056853
C30   C     C_R   0.067543 0.907422 0.486889 0.056853
C31   C     C_R   0.567543 0.592578 0.486889 0.056853
C32   C     C_R   0.432457 0.407422 0.513111 0.056853
C33   C     C_R   0.032791 0.935808 0.566909 -0.174432
C34   C     C_R   0.967209 0.064192 0.433091 -0.174432
C35   C     C_R   0.467209 0.435808 0.433091 -0.174432
C36   C     C_R   0.532791 0.564192 0.566909 -0.174432
H5    H     H_    0.842807 0.237316 0.479241 0.119105
H6    H     H_    0.157193 0.762684 0.520759 0.119105
H7    H     H_    0.657194 0.737315 0.520759 0.119105
H8    H     H_    0.342806 0.262684 0.479241 0.119105
H9    H     H_    0.786307 0.283832 0.617352 0.134876
H10   H     H_    0.213693 0.716168 0.382648 0.134876
H11   H     H_    0.713693 0.783832 0.382648 0.134876
H12   H     H_    0.286307 0.216168 0.617352 0.134876
H13   H     H_    0.956719 0.012044 0.713191 0.106396
H14   H     H_    0.043281 0.987956 0.286809 0.106396
H15   H     H_    0.543282 0.512044 0.286809 0.106396
H16   H     H_    0.456718 0.487956 0.713191 0.106396
H17   H     H_    0.138117 0.066175 0.056637 0.158380
H18   H     H_    0.861883 0.933825 0.943362 0.158380
H19   H     H_    0.361882 0.566175 0.943362 0.158380
H20   H     H_    0.638117 0.433825 0.056637 0.158380
C37   C     C_2   0.149943 0.942036 0.930592 -0.337465
C38   C     C_2   0.850057 0.057964 0.069408 -0.337464
C39   C     C_2   0.350057 0.442036 0.069408 -0.337464
C40   C     C_2   0.649943 0.557964 0.930592 -0.337465
C41   C     C_2   0.996124 0.965666 0.965477 -0.132588
C42   C     C_2   0.003875 0.034334 0.034522 -0.132588
C43   C     C_2   0.503875 0.465666 0.034522 -0.132588
C44   C     C_2   0.496124 0.534334 0.965477 -0.132588
H21   H     H_    0.716230 0.026151 0.046519 0.127657
H22   H     H_    0.283770 0.973849 0.953481 0.127657
H23   H     H_    0.783770 0.526151 0.953481 0.127657
H24   H     H_    0.216230 0.473849 0.046518 0.127657

loop_
_geom_bond_atom_site_label_1
_geom_bond_atom_site_label_2
_ccdc_geom_bond_type
C39   C43   D    
C43   C44   S    
O1    C5    A    
C12   C32   A    
C27   C31   A    
O13   V1    S    
O3    C7    A    
O15   V3    S    
C29   C34   A    
C41   C42   S    
C39   H24   S    
C31   C36   A    
C22   C26   A    
C38   H21   S    
C32   C35   A    
O20   V1    S    
O9    C4    A    
C23   H15   S    
C10   C14   A    
H20   C43   S    
O10   C3    A    
C22   H14   S    
C26   C30   A    
O4    C8    A    
O11   C2    A    
C14   H10   S    
H4    C19   S    
C14   C18   A    
C8    C38   S    
C10   C30   A    
C25   C33   A    
C10   H6    S    
C27   C35   A    
O2    C6    A    
C28   C36   A    
O14   V2    S    
C40   H23   S    
O5    C1    A    
O4    V1    S    
O9    V1    S    
C30   C33   A    
O7    C3    A    
O11   V3    S    
O18   V3    S    
O8    C4    A    
O12   V4    S    
O19   V2    S    
H1    C18   S    
C4    C34   S    
H3    C20   S    
H19   C44   S    
O5    V1    S    
O7    V3    S    
O8    V4    S    
C5    C39   S    
C25   C29   A    
C19   C23   A    
C26   C34   A    
C38   C42   D    
O1    V4    S    
O13   C5    A    
C28   C32   A    
C9    H5    S    
O2    V3    S    
C6    C40   S    
O3    V2    S    
O15   C7    A    
O6    C2    A    
O10   V2    S    
C1    C35   S    
C17   C21   A    
C11   C31   A    
C3    C33   S    
H2    C17   S    
C2    C36   S    
H18   C41   S    
O6    V2    S    
H17   C42   S    
C21   H13   S    
C37   H22   S    
C13   H9    S    
O16   V4    S    
C15   H11   S    
C7    C37   S    
O14   C6    A    
C11   H7    S    
C40   C44   D    
C24   H16   S    
C11   C15   A    
C18   C22   A    
O17   V4    S    
C21   C25   A    
C16   H12   S    
C23   C27   A    
C9    C13   A    
C37   C41   D    
C16   C20   A    
C12   C16   A    
O12   C1    A    
C12   H8    S    
C13   C17   A    
C20   C24   A    
C15   C19   A    
O16   C8    A    
C9    C29   A    
C24   C28   A    
