data_mof_unit_46339.cif
_audit_creation_date              2012-12-10T17:27:49-0500
_audit_creation_method            fapswitch 2.2
_symmetry_space_group_name_H-M    P1
_symmetry_Int_Tables_number       1
_space_group_crystal_system       triclinic
_cell_length_a                    10.631165
_cell_length_b                    11.980517
_cell_length_c                    12.963227
_cell_angle_alpha                 92.455695
_cell_angle_beta                  90.069177
_cell_angle_gamma                 86.650403
_cell_volume                      1646.74966516

loop_
_atom_site_label
_atom_site_type_symbol
_atom_type_description
_atom_site_fract_x
_atom_site_fract_y
_atom_site_fract_z
_atom_type_partial_charge
C1    C     C_R   0.500163 0.520618 0.700609 0.872304
C2    C     C_R   0.481250 0.635154 0.861640 -0.250844
C3    C     C_R   0.530042 0.433199 0.870042 0.121894
C4    C     C_R   0.739487 0.500911 0.503215 0.869978
C5    C     C_R   0.529803 0.444260 0.977233 0.127967
C6    C     C_R   0.501482 0.550760 0.025702 0.149656
C7    C     C_R   0.492992 0.560898 0.131721 -0.267002
C8    C     C_R   0.543390 0.361323 0.143082 -0.212057
C9    C     C_R   0.553110 0.350348 0.037236 -0.219615
C10   C     C_R   0.376007 0.956388 0.409190 -0.331406
C11   C     C_R   0.388935 0.839732 0.416919 0.026059
C12   C     C_R   0.936598 0.458994 0.596279 0.098506
C13   C     C_R   0.554579 0.857207 0.538192 -0.048360
C14   C     C_R   0.545357 0.974959 0.532737 0.090106
C15   C     C_R   0.454495 0.025061 0.467483 0.092502
C16   C     C_R   0.503190 0.478724 0.300002 0.884908
C17   C     C_R   0.444979 0.142818 0.462260 -0.055827
C18   C     C_R   0.612142 0.160175 0.582111 0.025023
C19   C     C_R   0.624471 0.043595 0.590447 -0.332688
C20   C     C_R   0.260407 0.499865 0.503157 0.871146
C21   C     C_R   0.873815 0.419756 0.682658 -0.196921
C22   C     C_R   0.941969 0.378723 0.766252 -0.139645
C23   C     C_R   0.871459 0.502999 0.510830 -0.097162
C24   C     C_R   0.072945 0.377257 0.765893 -0.131571
C25   C     C_R   0.136290 0.416726 0.681880 -0.185835
C26   C     C_R   0.068570 0.457428 0.595834 0.095038
C27   C     C_3   0.445538 0.254604 0.815972 -0.739583
C28   C     C_R   0.932509 0.548741 0.429331 -0.208697
C29   C     C_R   0.061048 0.547233 0.428858 -0.213894
C30   C     C_R   0.128139 0.500075 0.509922 -0.096040
C31   C     C_R   0.512112 0.466249 0.189957 -0.049456
C32   C     C_R   0.504258 0.529803 0.812213 -0.103511
C33   C     C_R   0.479375 0.645531 0.968048 -0.225705
H1    H     H_    0.880450 0.583083 0.364811 0.153638
H2    H     H_    0.772191 0.422046 0.687350 0.143625
H3    H     H_    0.892913 0.349107 0.831963 0.128718
H4    H     H_    0.125477 0.346523 0.831425 0.130358
H5    H     H_    0.237866 0.416509 0.685935 0.153444
H6    H     H_    0.108699 0.580995 0.364188 0.147090
H7    H     H_    0.469671 0.642505 0.168588 0.157365
H8    H     H_    0.560677 0.287791 0.188028 0.165636
H9    H     H_    0.637828 0.284075 0.836114 0.199187
H10   H     H_    0.464445 0.180154 0.863025 0.210457
H11   H     H_    0.429912 0.225489 0.734911 0.259174
H12   H     H_    0.577441 0.267768 0.003791 0.151541
H13   H     H_    0.357601 0.300452 0.844570 0.227468
H14   H     H_    0.458778 0.727323 0.005256 0.145554
H15   H     H_    0.462136 0.709428 0.818074 0.177926
H16   H     H_    0.375824 0.182796 0.412381 0.130925
H17   H     H_    0.673631 0.212902 0.626264 0.142595
H18   H     H_    0.305323 0.992437 0.358201 0.144939
H19   H     H_    0.695427 0.007567 0.641203 0.147405
H20   H     H_    0.328170 0.786947 0.372083 0.128479
H21   H     H_    0.623420 0.817247 0.588360 0.128542
N1    N     N_R   0.523130 0.207800 0.519340 -0.105412
N2    N     N_R   0.476870 0.792180 0.480660 -0.101158
N3    N     N_2   0.552254 0.324949 0.820620 -0.292998
O1    O     O_R   0.506170 0.421690 0.658830 -0.601830
O2    O     O_R   0.491330 0.609320 0.646410 -0.629309
O3    O     O_R   0.690660 0.406170 0.506210 -0.624796
O4    O     O_R   0.675810 0.593790 0.493790 -0.618994
O5    O     O_R   0.508670 0.390680 0.353590 -0.624423
O6    O     O_R   0.493830 0.578310 0.341170 -0.630722
O7    O     O_R   0.324190 0.406210 0.506210 -0.626903
O8    O     O_R   0.309340 0.593830 0.493790 -0.618418
Zn1   Zn    Zn3+2 0.509910 0.374720 0.508290 0.940071
Zn2   Zn    Zn3+2 0.490090 0.625280 0.491710 0.941559

loop_
_geom_bond_atom_site_label_1
_geom_bond_atom_site_label_2
_ccdc_geom_bond_type
C20   O7    A    
C7    H7    S    
C9    H12   S    
C6    C7    A    
C21   H2    S    
C16   O6    A    
C27   H10   S    
C25   H5    S    
N2    Zn2   S    
C22   H3    S    
C17   N1    A    
C19   H19   S    
C11   H20   S    
C6    C33   A    
C3    C5    A    
C13   N2    A    
O2    Zn2   S    
C29   H6    S    
C24   H4    S    
C2    C33   A    
O3    Zn1   S    
C3    C32   A    
C20   C30   S    
C1    O1    A    
C24   C25   A    
C16   C31   S    
C5    C9    A    
C12   C23   A    
C4    O3    A    
C29   C30   A    
C16   O5    A    
C18   N1    A    
C18   H17   S    
C10   H18   S    
C14   C19   A    
H9    N3    S    
C21   C22   A    
C28   C29   A    
C26   C30   A    
C22   C24   A    
C10   C15   A    
C1    O2    A    
C5    C6    A    
C33   H14   S    
O6    Zn2   S    
C27   H11   S    
C7    C31   A    
C10   C11   A    
O5    Zn1   S    
C28   H1    S    
C12   C21   A    
C3    N3    S    
C20   O8    A    
N1    Zn1   S    
C8    H8    S    
C27   H13   S    
C2    C32   A    
C13   H21   S    
C27   N3    S    
C17   H16   S    
C15   C17   A    
C4    C23   S    
O4    Zn2   S    
C14   C15   A    
C18   C19   A    
C2    H15   S    
C25   C26   A    
C13   C14   A    
C8    C31   A    
C4    O4    A    
O1    Zn1   S    
C1    C32   S    
C23   C28   A    
C11   N2    A    
C12   C26   A    
C8    C9    A    
O8    Zn2   S    
O7    Zn1   S    
