data_mof_unit_24925.cif
_audit_creation_date              2012-12-11T14:36:05-0500
_audit_creation_method            fapswitch 2.2
_symmetry_space_group_name_H-M    P1
_symmetry_Int_Tables_number       1
_space_group_crystal_system       triclinic
_cell_length_a                    13.510522
_cell_length_b                    13.581834
_cell_length_c                    27.472524
_cell_angle_alpha                 90.676518
_cell_angle_beta                  90.134756
_cell_angle_gamma                 59.827916
_cell_volume                      4357.82755958

loop_
_atom_site_label
_atom_site_type_symbol
_atom_type_description
_atom_site_fract_x
_atom_site_fract_y
_atom_site_fract_z
_atom_type_partial_charge
C1    C     C_R   0.621033 0.101563 0.569827 0.542578
C2    C     C_1   0.631839 0.729441 0.615726 0.027015
C3    C     C_3   0.743874 0.549588 0.766071 -0.085704
C4    C     C_3   0.678517 0.644639 0.804279 0.018666
C5    C     C_3   0.631757 0.595193 0.736310 -0.129433
C6    C     C_3   0.661899 0.675544 0.709575 0.062996
C7    C     C_3   0.566738 0.689468 0.775421 -0.115642
C8    C     C_3   0.596671 0.770113 0.747987 -0.115072
C9    C     C_1   0.688111 0.626177 0.856825 -0.046358
C10   C     C_1   0.649171 0.699679 0.657467 0.008568
C11   C     C_3   0.155330 0.080768 0.741520 0.209755
C12   C     C_R   0.599885 0.779188 0.568559 0.538043
C13   C     C_3   0.242868 0.066460 0.781300 -0.132588
C14   C     C_1   0.095844 0.202516 0.901996 -0.003773
C15   C     C_1   0.233605 0.138003 0.618126 0.025465
C16   C     C_3   0.059361 0.186448 0.768345 -0.115246
C17   C     C_3   0.147013 0.172462 0.807529 0.029792
C18   C     C_3   0.090312 0.264265 0.739271 -0.107154
C19   C     C_3   0.186034 0.158080 0.713000 0.007663
C20   C     C_3   0.177114 0.249517 0.778868 0.313498
C21   C     C_3   0.274493 0.144558 0.752215 -0.150112
C22   C     C_1   0.123351 0.184565 0.859803 -0.020812
C23   C     C_R   0.278684 0.121708 0.569778 0.537345
C24   C     C_1   0.208008 0.148512 0.660563 0.001845
C25   C     C_3   0.717047 0.231362 0.737150 -0.102684
C26   C     C_3   0.612520 0.285106 0.772618 -0.158590
C27   C     C_1   0.691900 0.208753 0.902791 -0.021562
C28   C     C_1   0.640116 0.134888 0.617022 0.016919
C29   C     C_3   0.779714 0.129977 0.772099 0.306126
C30   C     C_3   0.675880 0.182936 0.807187 -0.011659
C31   C     C_3   0.727863 0.066673 0.745522 0.340760
C32   C     C_3   0.664944 0.167092 0.711137 0.042977
C33   C     C_3   0.624034 0.118138 0.780530 -0.139832
C34   C     C_R   0.621036 0.098726 0.430495 0.560982
C35   C     C_3   0.560792 0.220351 0.745610 -0.164647
C36   C     C_1   0.678951 0.196764 0.860146 -0.067966
C37   C     C_1   0.653484 0.153436 0.658798 0.002944
C38   C     C_R   0.750048 0.685087 0.363594 0.093685
C39   C     C_R   0.760346 0.668002 0.312792 -0.021515
C40   C     C_R   0.768557 0.659780 0.209150 0.045882
C41   C     C_R   0.858322 0.658794 0.236854 0.158289
C42   C     C_R   0.853202 0.661575 0.287502 -0.080481
C43   C     C_R   0.767536 0.654448 0.157180 0.167191
C44   C     C_R   0.685492 0.635228 0.133858 -0.001137
C45   C     C_R   0.604490 0.772530 0.431338 0.561953
C46   C     C_R   0.579672 0.667204 0.362818 0.259079
C47   C     C_R   0.582828 0.659666 0.311695 0.046050
C48   C     C_R   0.673001 0.663199 0.286517 -0.063498
C49   C     C_R   0.495160 0.654305 0.285432 0.299406
C50   C     C_R   0.499471 0.653493 0.234456 -0.133204
C51   C     C_R   0.587711 0.657083 0.209902 -0.032151
C52   C     C_R   0.676774 0.659992 0.235184 -0.003203
C53   C     C_R   0.591068 0.648499 0.159868 -0.152970
C54   C     C_R   0.649961 0.701194 0.386865 -0.017969
C55   C     C_R   0.193394 0.069477 0.359995 0.259816
C56   C     C_R   0.277458 0.121295 0.431099 0.549052
C57   C     C_R   0.170679 0.081589 0.309717 -0.012816
C58   C     C_R   0.139062 0.098771 0.208118 0.035389
C59   C     C_R   0.136594 0.010418 0.233270 0.242964
C60   C     C_R   0.152513 0.002536 0.283822 -0.101473
C61   C     C_R   0.115858 0.113467 0.158225 -0.109881
C62   C     C_R   0.109246 0.207467 0.134470 -0.025476
C63   C     C_R   0.202326 0.244146 0.359833 -0.134516
C64   C     C_R   0.184738 0.254916 0.309951 0.012344
C65   C     C_R   0.170936 0.171703 0.284532 -0.026239
C66   C     C_R   0.187034 0.343422 0.284472 0.181008
C67   C     C_3   0.772639 0.630834 0.738713 0.193221
C68   C     C_R   0.178391 0.346645 0.234056 -0.072823
C69   C     C_R   0.160995 0.266976 0.208764 -0.016470
C70   C     C_R   0.157429 0.178773 0.233809 0.010135
C71   C     C_R   0.139740 0.279002 0.159096 -0.117999
C72   C     C_R   0.217342 0.147167 0.384187 -0.014749
C73   C     C_R   0.564831 0.238897 0.361530 0.132761
C74   C     C_R   0.567401 0.255914 0.311040 0.028534
C75   C     C_R   0.577734 0.286922 0.210339 -0.006366
C76   C     C_R   0.507968 0.379438 0.240577 -0.116479
C77   C     C_R   0.502140 0.364252 0.290297 -0.071517
C78   C     C_3   0.708584 0.724926 0.777654 -0.076140
C79   C     C_R   0.594327 0.304011 0.161869 -0.178730
C80   C     C_R   0.670562 0.211641 0.132611 -0.008252
C81   C     C_R   0.705519 0.037454 0.349367 -0.160795
C82   C     C_R   0.703148 0.052353 0.299474 -0.005501
C83   C     C_R   0.635659 0.161643 0.280110 0.037607
C84   C     C_R   0.765639 0.958410 0.268590 -0.148438
C85   C     C_R   0.763494 0.972448 0.218489 -0.127350
C86   C     C_R   0.704422 0.081898 0.198768 0.014466
C87   C     C_R   0.638287 0.176685 0.229655 0.020052
C88   C     C_R   0.715705 0.099207 0.149365 0.247321
C89   C     C_1   0.697550 0.603527 0.899410 -0.004401
C90   C     C_R   0.635114 0.128480 0.380683 0.001045
C91   C     C_R   0.048825 0.236572 0.949875 0.537292
C92   C     C_R   0.711587 0.562180 0.948047 0.544312
C93   C     C_R   0.721795 0.225594 0.951025 0.535635
C94   C     C_R   0.048829 0.244732 0.088129 0.539058
C95   C     C_R   0.707474 0.575634 0.086471 0.563274
C96   C     C_R   0.717117 0.233653 0.088647 0.554528
Cr1   Cr    Cr6+3 0.417550 0.169090 0.500530 1.097038
Cr2   Cr    Cr6+3 0.669180 0.913420 0.499920 1.103744
Cr3   Cr    Cr6+3 0.413260 0.917540 0.499520 1.091777
Cr4   Cr    Cr6+3 0.909170 0.177380 0.020380 1.046906
Cr5   Cr    Cr6+3 0.912710 0.429210 0.018220 1.090079
Cr6   Cr    Cr6+3 0.657170 0.432570 0.019030 1.029153
H1    H     H_    0.738244 0.777963 0.796381 0.112391
H2    H     H_    0.028450 0.344361 0.721249 0.174726
H3    H     H_    0.969354 0.210635 0.775176 0.166547
H4    H     H_    0.563843 0.376058 0.784077 0.126976
H5    H     H_    0.755030 0.277748 0.719352 0.118988
H6    H     H_    0.471960 0.257999 0.732100 0.105674
H7    H     H_    0.586796 0.070759 0.798041 0.107366
H8    H     H_    0.922814 0.661736 0.306840 0.217278
H9    H     H_    0.523934 0.640954 0.141516 0.148177
H10   H     H_    0.435501 0.646647 0.213271 0.100735
H11   H     H_    0.093942 0.057255 0.138733 0.183591
H12   H     H_    0.535849 0.861021 0.739991 0.123094
H13   H     H_    0.150927 0.934046 0.302765 0.150239
H14   H     H_    0.136869 0.350590 0.140667 0.167934
H15   H     H_    0.182940 0.413134 0.214630 0.185734
H16   H     H_    0.215238 0.306476 0.379182 0.223930
H17   H     H_    0.555903 0.390229 0.148355 0.140078
H18   H     H_    0.459184 0.463830 0.225691 0.117158
H19   H     H_    0.447571 0.438535 0.312131 0.231603
H20   H     H_    0.481725 0.714017 0.791208 0.131420
H21   H     H_    0.813106 0.898163 0.195577 0.211475
H22   H     H_    0.817263 0.874262 0.283359 0.145543
H23   H     H_    0.756947 0.952017 0.363395 0.173302
H24   H     H_    0.600431 0.541857 0.718865 0.118875
H25   H     H_    0.805030 0.458794 0.774117 0.118788
H26   H     H_    0.304215 0.985128 0.798946 0.122287
H27   H     H_    0.362550 0.127485 0.744815 0.097098
O1    O     O_R   0.301710 0.195650 0.554160 -0.498573
O2    O     O_R   0.658900 0.818120 0.449760 -0.463498
O3    O     O_R   0.503220 0.801620 0.445520 -0.451651
O4    O     O_R   0.319370 0.022040 0.450020 -0.447987
O5    O     O_3   0.499990 0.000010 0.499990 -0.287224
O6    O     O_R   0.818720 0.150820 0.967160 -0.514707
O7    O     O_R   0.006410 0.181720 0.970200 -0.506268
O8    O     O_R   0.027890 0.334070 0.964920 -0.491750
O9    O     O_R   0.809600 0.521790 0.967960 -0.486304
O10   O     O_R   0.635520 0.542770 0.964420 -0.507758
O11   O     O_R   0.665950 0.325030 0.970100 -0.492437
O12   O     O_R   0.522390 0.158990 0.550460 -0.495683
O13   O     O_R   0.816620 0.158530 0.074540 -0.456887
O14   O     O_R   0.004460 0.188870 0.069750 -0.505403
O15   O     O_R   0.025800 0.341780 0.072300 -0.492827
O16   O     O_R   0.807650 0.528950 0.067500 -0.445517
O17   O     O_R   0.633420 0.550490 0.071810 -0.531460
O18   O     O_R   0.664000 0.332180 0.069640 -0.515681
O19   O     O_3   0.826350 0.346390 0.019210 -0.263986
O20   O     O_R   0.694390 0.003530 0.554040 -0.483316
O21   O     O_R   0.657700 0.819660 0.549320 -0.478421
O22   O     O_R   0.501930 0.803280 0.552920 -0.509590
O23   O     O_R   0.318170 0.023580 0.549580 -0.494414
O24   O     O_R   0.303010 0.193990 0.446760 -0.502236
O25   O     O_R   0.523600 0.157450 0.450900 -0.446203
O26   O     O_R   0.695690 0.001860 0.446640 -0.507538
O27   O     O_3   0.176033 0.343253 0.802185 -0.534717
C97   C     C_3   0.262670 0.359588 0.782853 -0.094918
H28   H     H_    0.259653 0.362909 0.742349 0.130581
H29   H     H_    0.347342 0.291917 0.796002 0.113081
H30   H     H_    0.249947 0.442375 0.796483 0.160380
O28   O     O_3   0.784235 0.953441 0.727621 -0.540186
C98   C     C_3   0.861402 0.880024 0.762663 -0.060529
H31   H     H_    0.823960 0.898384 0.800005 0.070575
H32   H     H_    0.942218 0.882391 0.761684 0.207874
H33   H     H_    0.884617 0.791871 0.753099 0.187943
O29   O     O_3   0.899045 0.078903 0.779324 -0.563665
C99   C     C_3   0.927704 0.058449 0.828847 -0.124431
H34   H     H_    0.022242 0.006612 0.831747 0.163052
H35   H     H_    0.891981 0.008993 0.845809 0.113643
H36   H     H_    0.900637 0.139808 0.848736 0.127800
Br1   Br    Br    0.860111 0.689309 0.115169 -0.465956
Br2   Br    Br    0.920425 0.586432 0.710222 -0.536915
Br3   Br    Br    0.872729 0.683572 0.401081 -0.475628
Br4   Br    Br    0.997182 0.647276 0.212385 -0.525312
O30   O     O_3   0.411381 0.643997 0.310870 -0.518660
C100  C     C_3   0.305212 0.690669 0.286656 -0.063802
H37   H     H_    0.303673 0.626271 0.261966 0.141528
H38   H     H_    0.284882 0.768478 0.266213 0.143656
H39   H     H_    0.236758 0.714641 0.314239 0.193526
O31   O     O_3   0.498062 0.656080 0.388738 -0.466981
C101  C     C_3   0.554216 0.559033 0.418313 -0.035990
H40   H     H_    0.612966 0.565379 0.444933 0.091154
H41   H     H_    0.602136 0.480383 0.395653 0.139873
H42   H     H_    0.488628 0.552412 0.439854 0.199023
O32   O     O_3   0.203858 0.975631 0.383916 -0.531947
C102  C     C_3   0.099632 0.008450 0.408049 -0.094513
H43   H     H_    0.106849 0.932968 0.426547 0.170241
H44   H     H_    0.027261 0.039051 0.381889 0.102188
H45   H     H_    0.080959 0.074748 0.436446 0.116352
O33   O     O_3   0.127659 0.926791 0.207796 -0.590026
C103  C     C_3   0.018481 0.940979 0.216178 -0.101761
H46   H     H_    0.007826 0.881479 0.191711 0.212568
H47   H     H_    0.949238 0.028947 0.207501 0.132465
H48   H     H_    0.009681 0.919424 0.254246 0.121046
Br5   Br    Br    0.201988 0.462588 0.315881 -0.486131
Br6   Br    Br    0.462861 0.365121 0.403402 -0.497056
O34   O     O_3   0.782751 0.006783 0.119247 -0.543381
C104  C     C_3   0.709740 0.989211 0.088123 -0.071110
H49   H     H_    0.656063 0.064976 0.065357 0.097293
H50   H     H_    0.654590 0.965721 0.109267 0.130991
H51   H     H_    0.763112 0.917550 0.062878 0.186514
Br7   Br    Br    0.140450 0.957136 0.713759 -0.466031

loop_
_geom_bond_atom_site_label_1
_geom_bond_atom_site_label_2
_ccdc_geom_bond_type
C88   O34   S    
Cr3   O23   S    
C66   C68   A    
C23   O23   A    
C31   O28   S    
Cr5   O19   S    
O33   C103  S    
C41   C42   A    
C83   C87   A    
C95   O16   A    
C74   C83   A    
C41   Br4   S    
C2    C12   S    
C20   C21   S    
C26   H4    S    
C103  H47   S    
C56   O4    A    
C7    C8    S    
C99   H35   S    
C101  H40   S    
C95   O17   A    
Cr5   O16   S    
C76   H18   S    
Cr3   O3    S    
C94   O14   A    
O27   C97   S    
C19   C21   S    
Cr4   O19   S    
Cr1   O1    S    
C85   C86   A    
C5    C6    S    
C68   H15   S    
Cr5   O15   S    
C86   C88   A    
C61   C62   A    
C65   C70   A    
C17   C20   S    
Cr3   O4    S    
C18   C19   S    
C73   C74   A    
C69   C71   A    
C35   H6    S    
Cr6   O19   S    
C91   O8    A    
C13   H26   S    
C44   C53   A    
C40   C43   A    
C91   O7    A    
O30   C100  S    
C16   C17   S    
C56   C72   S    
C74   C77   A    
C79   H17   S    
C5    H24   S    
C71   H14   S    
C1    C28   S    
C31   C33   S    
C1    O20   A    
C104  H49   S    
Cr1   O24   S    
C80   C96   S    
C18   C20   S    
C55   C72   A    
Cr4   O6    S    
C8    H12   S    
C60   H13   S    
C57   C60   A    
C15   C23   S    
C53   H9    S    
C58   C61   A    
C101  H41   S    
C21   H27   S    
C92   O9    A    
C59   C60   A    
C97   H29   S    
C8    C78   S    
C12   O22   A    
C69   C70   A    
C67   C78   S    
Cr1   O5    S    
C4    C7    S    
C96   O13   A    
C66   Br5   S    
C39   C42   A    
C98   H32   S    
C34   O25   A    
C25   C29   S    
C51   C52   A    
C32   C35   S    
C46   O31   S    
C77   H19   S    
C76   C77   A    
C47   C49   A    
C9    C89   T    
C99   H34   S    
C5    C7    S    
C63   H16   S    
Cr5   O8    S    
C86   C87   A    
C58   C70   A    
C38   Br3   S    
C6    C8    S    
C3    C5    S    
C25   C26   S    
C34   O26   A    
Cr3   O22   S    
C81   C82   A    
C103  H46   S    
C23   O1    A    
C51   C53   A    
C11   Br7   S    
C64   C66   A    
C29   O29   S    
Cr2   O2    S    
C75   C76   A    
C34   C90   S    
C4    C78   S    
C29   C30   S    
C12   O21   A    
Cr6   O18   S    
C98   H33   S    
C11   C16   S    
C47   C48   A    
C38   C54   A    
C4    C9    S    
C11   C19   S    
C46   C54   A    
C104  H51   S    
C50   H10   S    
C50   C51   A    
C13   C21   S    
C16   C18   S    
C18   H2    S    
C32   C37   S    
C84   C85   A    
C89   C92   S    
Cr1   O12   S    
C16   H3    S    
C99   H36   S    
C75   C87   A    
C40   C41   A    
C45   C54   S    
Cr6   O11   S    
C97   H30   S    
C82   C84   A    
C55   C57   A    
C43   C44   A    
C61   H11   S    
O29   C99   S    
C27   C36   T    
C49   C50   A    
C79   C80   A    
C27   C93   S    
C33   H7    S    
C81   C90   A    
C7    H20   S    
C102  H44   S    
C3    C4    S    
C2    C10   T    
C49   O30   S    
O31   C101  S    
C25   H5    S    
C98   H31   S    
Cr2   O21   S    
C101  H42   S    
C96   O18   A    
Cr2   O26   S    
C6    C67   S    
C43   Br1   S    
C20   O27   S    
C30   C33   S    
C81   H23   S    
C78   H1    S    
C68   C69   A    
C31   C32   S    
C3    C67   S    
C57   C65   A    
C56   O24   A    
C93   O6    A    
Cr4   O14   S    
Cr1   O25   S    
C6    C10   S    
C104  H50   S    
Cr5   O9    S    
C45   O2    A    
C30   C36   S    
C67   Br2   S    
C84   H22   S    
C97   H28   S    
Cr2   O5    S    
C17   C22   S    
C13   C17   S    
C94   O15   A    
C64   C65   A    
C100  H39   S    
C102  H45   S    
C62   C94   S    
C19   C24   S    
C58   C59   A    
C103  H48   S    
C80   C88   A    
C44   C95   S    
C40   C52   A    
Cr6   O17   S    
C15   C24   T    
C11   C13   S    
C14   C22   T    
O32   C102  S    
C38   C39   A    
O28   C98   S    
C28   C37   T    
C25   C32   S    
C100  H38   S    
C33   C35   S    
C62   C71   A    
C85   H21   S    
C3    H25   S    
Cr6   O10   S    
C55   O32   S    
C42   H8    S    
O34   C104  S    
C14   C91   S    
C46   C47   A    
C1    O12   A    
C100  H37   S    
C63   C64   A    
C26   C35   S    
C48   C52   A    
C63   C72   A    
Cr3   O5    S    
C45   O3    A    
C29   C31   S    
C82   C83   A    
C73   Br6   S    
C93   O11   A    
C59   O33   S    
Cr4   O13   S    
C102  H43   S    
C92   O10   A    
C75   C79   A    
Cr2   O20   S    
Cr4   O7    S    
C39   C48   A    
C73   C90   A    
C26   C30   S    
