data_mof_unit_26171.cif
_audit_creation_date              2012-12-10T20:34:13-0500
_audit_creation_method            fapswitch 2.2
_symmetry_space_group_name_H-M    P1
_symmetry_Int_Tables_number       1
_space_group_crystal_system       triclinic
_cell_length_a                    9.869188
_cell_length_b                    10.55391
_cell_length_c                    13.597364
_cell_angle_alpha                 89.656316
_cell_angle_beta                  83.119367
_cell_angle_gamma                 87.482296
_cell_volume                      1404.72344497

loop_
_atom_site_label
_atom_site_type_symbol
_atom_type_description
_atom_site_fract_x
_atom_site_fract_y
_atom_site_fract_z
_atom_type_partial_charge
C1    C     C_R   0.499510 0.739497 0.486780 0.874726
C2    C     C_3   0.240066 0.943157 0.497098 0.326501
C3    C     C_R   0.913167 0.539165 0.581397 0.205141
C4    C     C_R   0.475639 0.500288 0.685761 0.891206
C5    C     C_R   0.942406 0.444270 0.425514 -0.303306
C6    C     C_R   0.088263 0.443572 0.424689 0.511081
C7    C     C_R   0.055309 0.537939 0.581939 0.052193
C8    C     C_3   0.045872 0.664043 0.631263 -0.557440
C9    C     C_3   0.892437 0.666435 0.628445 0.305596
C10   C     C_R   0.504274 0.258612 0.493367 0.914353
C11   C     C_R   0.524310 0.499294 0.314243 0.871206
C12   C     C_1   0.456763 0.502502 0.789611 -0.186805
C13   C     C_1   0.542554 0.503792 0.210494 -0.219025
C14   C     C_2   0.557397 0.513177 0.018892 -0.159092
C15   C     C_2   0.439937 0.507000 0.981460 -0.176023
C16   C     C_1   0.444067 0.504768 0.877500 0.004094
C17   C     C_1   0.554244 0.508570 0.122717 -0.009823
C18   C     C_3   0.141240 0.381433 0.258257 0.065116
C19   C     C_3   0.095608 0.252035 0.228031 -0.351165
C20   C     C_3   0.057016 0.255144 0.122712 -0.967541
C21   C     C_3   0.717720 0.757256 0.739865 0.121990
C22   C     C_3   0.778143 0.884260 0.761636 -0.386407
C23   C     C_R   0.382900 0.942870 0.443939 -0.033690
C24   C     C_3   0.668061 0.991082 0.771746 -0.964033
C25   C     C_3   0.723262 0.789785 0.291775 0.159041
C26   C     C_3   0.728625 0.879947 0.202108 -0.424792
C27   C     C_3   0.874389 0.909056 0.160776 -0.857461
C28   C     C_3   0.775176 0.112893 0.414996 -0.332626
C29   C     C_3   0.843072 0.113251 0.510185 -0.752131
C30   C     C_3   0.143664 0.817953 0.381424 0.094266
C31   C     C_3   0.210831 0.836190 0.274898 -0.323993
C32   C     C_3   0.201932 0.718010 0.212466 -1.003509
C33   C     C_R   0.501672 0.867650 0.448184 -0.335967
C34   C     C_R   0.627762 0.923787 0.417224 0.473424
C35   C     C_R   0.636164 0.055369 0.432040 0.029971
C36   C     C_R   0.512858 0.126390 0.465251 -0.229735
C37   C     C_R   0.389877 0.069688 0.458210 0.060491
C38   C     C_3   0.254218 0.082581 0.518609 -0.423455
H1    H     H_    0.342823 0.500580 0.027983 0.152835
H2    H     H_    0.234579 0.403942 0.208265 0.172979
H3    H     H_    0.063960 0.458365 0.246196 0.111133
H4    H     H_    0.180096 0.179781 0.232560 0.236938
H5    H     H_    0.006524 0.223256 0.279598 0.212994
H6    H     H_    0.969001 0.323204 0.117616 0.268192
H7    H     H_    0.027800 0.159419 0.102077 0.266206
H8    H     H_    0.145020 0.283490 0.069655 0.267187
H9    H     H_    0.645636 0.731109 0.805184 0.157596
H10   H     H_    0.656103 0.765971 0.676495 0.142170
H11   H     H_    0.826012 0.876103 0.831477 0.231921
H12   H     H_    0.077409 0.658827 0.707050 0.231257
H13   H     H_    0.858317 0.908848 0.700956 0.217651
H14   H     H_    0.621209 0.002424 0.701664 0.262175
H15   H     H_    0.714393 0.081516 0.787875 0.272916
H16   H     H_    0.587419 0.970490 0.833268 0.265841
H17   H     H_    0.624605 0.742076 0.298390 0.086264
H18   H     H_    0.803325 0.712646 0.277025 0.160942
H19   H     H_    0.680165 0.834255 0.142486 0.195054
H20   H     H_    0.669246 0.969910 0.221871 0.216723
H21   H     H_    0.928369 0.951137 0.218576 0.272701
H22   H     H_    0.872097 0.977419 0.098584 0.246735
H23   H     H_    0.094561 0.736491 0.582942 0.163941
H24   H     H_    0.930959 0.821118 0.132154 0.253012
H25   H     H_    0.775168 0.159153 0.571938 0.257839
H26   H     H_    0.868974 0.014366 0.532018 0.266473
H27   H     H_    0.938414 0.165863 0.497551 0.239782
H28   H     H_    0.844077 0.058229 0.358894 0.235502
H29   H     H_    0.768274 0.208853 0.382212 0.197574
H30   H     H_    0.037273 0.788826 0.379015 0.180985
H31   H     H_    0.196075 0.739271 0.417577 0.161955
H32   H     H_    0.159834 0.918107 0.240574 0.227571
H33   H     H_    0.320164 0.856744 0.274433 0.214605
H34   H     H_    0.856015 0.739889 0.576936 0.102218
H35   H     H_    0.259927 0.637346 0.242403 0.283538
H36   H     H_    0.246660 0.735690 0.134996 0.270361
H37   H     H_    0.093961 0.692749 0.212491 0.254794
H38   H     H_    0.654579 0.518761 0.972350 0.170510
H39   H     H_    0.262385 0.102070 0.597948 0.142764
H40   H     H_    0.182841 0.148120 0.483566 0.241040
H41   H     H_    0.228567 0.885839 0.565617 0.077729
H42   H     H_    0.896951 0.399546 0.367084 0.162466
N1    N     N_R   0.857130 0.500860 0.500650 -0.146146
N2    N     N_R   0.142770 0.500820 0.500650 -0.148212
O1    O     O_R   0.385310 0.683210 0.499990 -0.645235
O2    O     O_3   0.820601 0.659313 0.724841 -0.616655
O3    O     O_3   0.744459 0.852178 0.380687 -0.632727
O4    O     O_3   0.135999 0.933653 0.434005 -0.640075
O5    O     O_R   0.614650 0.683240 0.500000 -0.592751
O6    O     O_R   0.368820 0.499950 0.640340 -0.603391
O7    O     O_R   0.598170 0.499990 0.640350 -0.586994
O8    O     O_R   0.385350 0.316760 0.500000 -0.575296
O9    O     O_R   0.614690 0.316790 0.500010 -0.615876
O10   O     O_R   0.401830 0.500010 0.359650 -0.574582
O11   O     O_R   0.631180 0.500050 0.359660 -0.635462
O12   O     O_3   0.177355 0.374691 0.355839 -0.607548
Zn1   Zn    Zn3+2 0.346870 0.499980 0.499990 0.961385
Zn2   Zn    Zn3+2 0.653130 0.500020 0.500010 0.944113

loop_
_geom_bond_atom_site_label_1
_geom_bond_atom_site_label_2
_ccdc_geom_bond_type
C24   H14   S    
C29   H25   S    
C1    O5    A    
C6    N2    A    
C35   C36   A    
C25   H18   S    
C32   H37   S    
C1    C33   S    
C7    C8    S    
C26   C27   S    
C36   C37   A    
C18   C19   S    
C3    C7    A    
C27   H22   S    
C32   H36   S    
C5    C6    A    
C24   H16   S    
C15   C16   S    
C34   C35   A    
C18   H2    S    
C2    H41   S    
O9    Zn2   S    
C11   O10   A    
C31   H32   S    
C19   C20   S    
C28   C35   S    
C8    C9    S    
C6    O12   S    
C3    N1    A    
C9    H34   S    
C4    C12   S    
C20   H7    S    
C19   H4    S    
C8    H23   S    
C21   H10   S    
C11   O11   A    
C31   H33   S    
C29   H26   S    
C21   C22   S    
C14   C17   S    
C20   H6    S    
C19   H5    S    
C12   C16   T    
O8    Zn1   S    
C28   H29   S    
C18   H3    S    
C32   H35   S    
N1    Zn2   S    
C38   H40   S    
C23   C33   A    
C24   H15   S    
C23   C37   A    
O10   Zn1   S    
C34   O3    S    
C14   H38   S    
C28   H28   S    
C37   C38   S    
C3    C9    S    
C27   H24   S    
C5    N1    A    
C2    C38   S    
C31   C32   S    
C21   O2    S    
O1    Zn1   S    
O5    Zn2   S    
C25   O3    S    
C33   C34   A    
C5    H42   S    
C26   H20   S    
C15   H1    S    
C22   H11   S    
C29   H27   S    
C10   O9    A    
O11   Zn2   S    
C18   O12   S    
C22   C24   S    
C30   O4    S    
C8    H12   S    
C30   H31   S    
C4    O7    A    
C28   C29   S    
N2    Zn1   S    
C25   H17   S    
C4    O6    A    
C38   H39   S    
C1    O1    A    
C13   C17   T    
O7    Zn2   S    
C25   C26   S    
C27   H21   S    
C11   C13   S    
C30   C31   S    
C2    O4    S    
C26   H19   S    
C20   H8    S    
O6    Zn1   S    
C9    O2    S    
C7    N2    A    
C10   O8    A    
C2    C23   S    
C14   C15   D    
C10   C36   S    
C30   H30   S    
C22   H13   S    
C21   H9    S    
