data_mof_unit_32184.cif
_audit_creation_date              2012-10-26T19:06:48-0400
_audit_creation_method            fapswitch 2.2
_symmetry_space_group_name_H-M    P1
_symmetry_Int_Tables_number       1
_space_group_crystal_system       triclinic
_cell_length_a                    12.313003
_cell_length_b                    13.174173
_cell_length_c                    27.81211
_cell_angle_alpha                 77.767615
_cell_angle_beta                  101.145312
_cell_angle_gamma                 116.530606
_cell_volume                      3919.59109838

loop_
_atom_site_label
_atom_site_type_symbol
_atom_type_description
_atom_site_fract_x
_atom_site_fract_y
_atom_site_fract_z
_atom_type_partial_charge
C1    C     C_R   0.854881 0.286550 0.504282 0.532426
C2    C     C_R   0.978052 0.396035 0.034094 0.017883
C3    C     C_R   0.019800 0.601280 0.016994 0.018326
C4    C     C_R   0.999162 0.499543 0.592401 0.550077
C5    C     C_R   0.999830 0.498913 0.050840 0.033807
C6    C     C_R   0.964119 0.298022 0.069752 -0.139692
C7    C     C_R   0.967063 0.299913 0.119720 -0.111864
C8    C     C_R   0.984707 0.399545 0.136328 0.024426
C9    C     C_R   0.001570 0.499408 0.102082 -0.027231
C10   C     C_R   0.020043 0.599734 0.119216 0.024820
C11   C     C_R   0.021128 0.598343 0.169914 0.396564
C12   C     C_R   0.083614 0.476700 0.730942 -0.057811
C13   C     C_R   0.985940 0.401642 0.186697 0.396897
C14   C     C_R   0.095556 0.485451 0.288903 -0.058742
C15   C     C_R   0.094787 0.485299 0.338990 -0.145618
C16   C     C_R   0.145087 0.713427 0.492757 0.551467
C17   C     C_R   0.909195 0.514691 0.319541 -0.147965
C18   C     C_R   0.910061 0.514576 0.269522 -0.058055
C19   C     C_R   0.003215 0.500062 0.253994 0.240790
C20   C     C_R   0.971739 0.394523 0.982641 0.018259
C21   C     C_R   0.996138 0.497854 0.949051 0.033875
C22   C     C_R   0.022278 0.601700 0.966045 0.017892
C23   C     C_R   0.993577 0.496604 0.746033 0.241650
C24   C     C_R   0.940938 0.292675 0.963310 -0.140452
C25   C     C_R   0.050130 0.701498 0.881393 -0.111636
C26   C     C_R   0.035952 0.699917 0.035487 -0.140247
C27   C     C_R   0.036358 0.698979 0.085529 -0.113104
C28   C     C_R   0.000552 0.500077 0.407611 0.548258
C29   C     C_R   0.050887 0.702939 0.931226 -0.139588
C30   C     C_R   0.275462 0.021389 0.434113 -0.124397
C31   C     C_R   0.227973 0.834543 0.482569 -0.000648
C32   C     C_R   0.815477 0.085198 0.536538 -0.127318
C33   C     C_R   0.736707 0.970304 0.546235 -0.133268
C34   C     C_R   0.994501 0.497353 0.897818 -0.027198
C35   C     C_R   0.613346 0.932605 0.528888 -0.117017
C36   C     C_R   0.566547 0.009366 0.499512 0.033766
C37   C     C_R   0.650032 0.123752 0.484845 0.024824
C38   C     C_R   0.439878 0.976090 0.483728 0.029786
C39   C     C_R   0.400185 0.053301 0.449980 0.050964
C40   C     C_R   0.965377 0.396260 0.829435 0.396515
C41   C     C_R   0.485492 0.160372 0.431468 -0.134529
C42   C     C_R   0.608632 0.194483 0.447984 -0.117787
C43   C     C_R   0.351028 0.868482 0.500795 -0.131637
C44   C     C_R   0.189661 0.912060 0.450070 -0.130714
C45   C     C_R   0.966130 0.394825 0.880114 0.024671
C46   C     C_R   0.773048 0.163527 0.507037 -0.001118
C47   C     C_R   0.346721 0.328716 0.578861 -0.144923
C48   C     C_R   0.759536 0.645315 0.433121 0.048776
C49   C     C_R   0.662973 0.676996 0.418651 -0.156852
C50   C     C_R   0.559494 0.622203 0.443794 -0.136689
C51   C     C_R   0.551409 0.534545 0.484043 -0.005840
C52   C     C_R   0.020238 0.597233 0.813804 0.397542
C53   C     C_R   0.653049 0.505289 0.497633 0.179570
C54   C     C_R   0.447037 0.475170 0.511360 -0.012359
C55   C     C_R   0.446841 0.388305 0.551438 0.036300
C56   C     C_R   0.938561 0.293146 0.913153 -0.113182
C57   C     C_R   0.546645 0.361448 0.564121 -0.173747
C58   C     C_R   0.647382 0.418782 0.537972 -0.100903
C59   C     C_R   0.342019 0.497762 0.500920 0.040035
C60   C     C_R   0.246738 0.355216 0.566740 0.043051
C61   C     C_R   0.905083 0.517148 0.710756 -0.058350
C62   C     C_R   0.906675 0.518012 0.660676 -0.149012
C63   C     C_R   0.085499 0.477592 0.680907 -0.143992
C64   C     C_R   0.021411 0.599411 0.864154 0.024258
C65   C     C_R   0.997140 0.498472 0.645276 0.002881
C66   C     C_R   0.001553 0.499985 0.354766 0.003579
Cu1   Cu    Cu3+1 0.098270 0.475420 0.511360 0.933585
Cu2   Cu    Cu3+1 0.901730 0.524580 0.488640 0.918982
H1    H     H_    0.156219 0.462152 0.670188 0.131692
H2    H     H_    0.456964 0.218190 0.404019 0.113101
H3    H     H_    0.244736 0.079904 0.408266 0.116623
H4    H     H_    0.152483 0.461083 0.758045 0.131681
H5    H     H_    0.374928 0.808189 0.528031 0.121236
H6    H     H_    0.909443 0.113182 0.553212 0.131996
H7    H     H_    0.557903 0.842338 0.538219 0.106596
H8    H     H_    0.770766 0.910472 0.568684 0.127260
H9    H     H_    0.670728 0.275897 0.430305 0.153043
H10   H     H_    0.169063 0.309600 0.587731 0.122789
H11   H     H_    0.547223 0.295336 0.594840 0.118307
H12   H     H_    0.835003 0.532256 0.722221 0.131040
H13   H     H_    0.345915 0.262154 0.609521 0.102402
H14   H     H_    0.334061 0.562076 0.471127 0.118330
H15   H     H_    0.839524 0.688357 0.413418 0.128099
H16   H     H_    0.914812 0.212833 0.900376 0.165074
H17   H     H_    0.487572 0.650235 0.431003 0.102446
H18   H     H_    0.668351 0.744273 0.387840 0.113670
H19   H     H_    0.719046 0.392216 0.551024 0.184916
H20   H     H_    0.167323 0.474083 0.365252 0.128312
H21   H     H_    0.168104 0.474583 0.277139 0.131192
H22   H     H_    0.955474 0.222359 0.145392 0.167178
H23   H     H_    0.072624 0.781437 0.856351 0.167268
H24   H     H_    0.916064 0.209998 0.985753 0.110659
H25   H     H_    0.837146 0.533941 0.634113 0.131921
H26   H     H_    0.952576 0.218187 0.060582 0.111796
H27   H     H_    0.046670 0.779532 0.012244 0.110379
H28   H     H_    0.836056 0.525963 0.330576 0.129231
H29   H     H_    0.049273 0.776914 0.097680 0.164661
H30   H     H_    0.838114 0.525452 0.242759 0.132763
H31   H     H_    0.076502 0.785905 0.941185 0.112003
H32   H     H_    0.094492 0.886725 0.435484 0.127080
N1    N     N_R   0.992595 0.496611 0.797508 -0.397527
N2    N     N_R   0.003836 0.500101 0.202453 -0.397101
N3    N     N_R   0.246290 0.438210 0.528570 -0.234382
N4    N     N_R   0.754320 0.561170 0.471730 -0.237023
O1    O     O_R   0.972510 0.318140 0.514280 -0.500150
O2    O     O_R   0.082990 0.479230 0.439860 -0.503678
O3    O     O_R   0.917010 0.520730 0.420680 -0.514752
O4    O     O_2   0.937094 0.298109 0.812121 -0.500663
O5    O     O_2   0.968073 0.305742 0.219608 -0.502134
O6    O     O_2   0.047621 0.695036 0.781437 -0.499849
O7    O     O_2   0.040156 0.694602 0.186644 -0.501318
O8    O     O_R   0.806530 0.359640 0.495100 -0.528917
O9    O     O_R   0.082990 0.479270 0.579320 -0.501795
O10   O     O_R   0.917010 0.520770 0.560140 -0.519368
O11   O     O_R   0.193470 0.640360 0.504900 -0.507841
O12   O     O_R   0.027490 0.681860 0.485720 -0.501264

loop_
_geom_bond_atom_site_label_1
_geom_bond_atom_site_label_2
_ccdc_geom_bond_type
C10   C27   A    
C43   H5    S    
C63   C65   A    
C8    C13   A    
C22   C29   A    
C44   H32   S    
C41   C42   A    
C57   H11   S    
C35   C36   A    
C59   H14   S    
C58   H19   S    
C30   H3    S    
Cu1   N3    S    
C7    C8    A    
C39   C41   A    
C23   N1    S    
C16   C31   S    
C12   C23   A    
C35   H7    S    
C26   C27   A    
C31   C43   A    
C4    O10   A    
C36   C37   A    
C1    O8    A    
C32   H6    S    
C4    C65   S    
C19   N2    S    
C1    C46   S    
C28   O3    A    
C48   N4    A    
C16   O12   A    
C17   C18   A    
C18   C19   A    
Cu2   O8    S    
C37   C42   A    
Cu1   O11   S    
C13   O5    S    
C50   H17   S    
C40   N1    A    
C20   C24   A    
C45   C56   A    
C28   O2    A    
C8    C9    A    
C6    H26   S    
Cu2   O3    S    
C60   N3    A    
C9    C10   A    
C40   O4    S    
C12   H4    S    
C21   C22   A    
C30   C44   A    
C2    C6    A    
C24   H24   S    
C56   H16   S    
C54   C59   A    
C25   C29   A    
C40   C45   A    
C52   N1    A    
C25   H23   S    
C31   C44   A    
C29   H31   S    
C11   O7    S    
Cu1   Cu2   S    
C63   H1    S    
C4    O9    A    
C52   C64   A    
C17   H28   S    
C12   C63   A    
Cu1   O1    S    
C21   C34   A    
C7    H22   S    
C2    C20   A    
C51   C53   A    
C25   C64   A    
C28   C66   S    
C14   H21   S    
C5    C9    A    
C33   H8    S    
C52   O6    S    
C60   H10   S    
C34   C64   A    
C50   C51   A    
C17   C66   A    
C34   C45   A    
C53   N4    A    
Cu2   O12   S    
C48   C49   A    
C55   C57   A    
C2    C5    A    
C16   O11   A    
C47   C60   A    
C47   C55   A    
C26   H27   S    
C54   C55   A    
C27   H29   S    
C62   C65   A    
C32   C46   A    
C14   C19   A    
C3    C26   A    
Cu2   N4    S    
C3    C5    A    
C53   C58   A    
C13   N2    A    
Cu1   O2    S    
C6    C7    A    
C24   C56   A    
C18   H30   S    
C48   H15   S    
C51   C54   A    
C59   N3    A    
C32   C33   A    
C36   C38   A    
Cu1   O9    S    
C38   C43   A    
C15   C66   A    
C57   C58   A    
C38   C39   A    
C33   C35   A    
C30   C39   A    
C11   N2    A    
C49   H18   S    
C47   H13   S    
C61   C62   A    
C10   C11   A    
C23   C61   A    
C20   C21   A    
C42   H9    S    
C49   C50   A    
C62   H25   S    
C1    O1    A    
C14   C15   A    
C15   H20   S    
C3    C22   A    
C61   H12   S    
C37   C46   A    
Cu2   O10   S    
C41   H2    S    
