data_mof_unit_30060.cif
_audit_creation_date              2012-12-10T17:12:32-0500
_audit_creation_method            fapswitch 2.2
_symmetry_space_group_name_H-M    P1
_symmetry_Int_Tables_number       1
_space_group_crystal_system       triclinic
_cell_length_a                    11.663796
_cell_length_b                    13.10974
_cell_length_c                    11.852122
_cell_angle_alpha                 98.328946
_cell_angle_beta                  92.910481
_cell_angle_gamma                 93.879018
_cell_volume                      1785.70596967

loop_
_atom_site_label
_atom_site_type_symbol
_atom_type_description
_atom_site_fract_x
_atom_site_fract_y
_atom_site_fract_z
_atom_type_partial_charge
C1    C     C_R   0.506200 0.300669 0.480123 0.831406
C2    C     C_R   0.495856 0.699825 0.519170 0.798847
C3    C     C_R   0.382175 0.405381 0.028175 0.101963
C4    C     C_R   0.615107 0.596090 0.972813 0.122283
C5    C     C_R   0.389591 0.420270 0.148810 0.108472
C6    C     C_R   0.606596 0.583957 0.852231 0.098857
C7    C     C_R   0.560630 0.529281 0.150857 0.378808
C8    C     C_R   0.438361 0.467729 0.846584 0.440720
C9    C     C_R   0.544623 0.530515 0.030616 -0.120800
C10   C     C_R   0.455582 0.465760 0.967342 -0.133724
C11   C     C_R   0.284426 0.499876 0.500622 0.803666
C12   C     C_R   0.715586 0.500274 0.499340 0.821812
C13   C     C_1   0.162691 0.500074 0.501571 -0.128513
C14   C     C_1   0.837318 0.500088 0.498264 -0.125941
C15   C     C_1   0.060004 0.500102 0.500724 0.018686
C16   C     C_1   0.940005 0.500069 0.499033 0.011506
C17   C     C_R   0.480912 0.811651 0.524857 -0.233458
C18   C     C_R   0.519473 0.188785 0.470593 -0.209127
C19   C     C_R   0.554707 0.026005 0.355412 0.182506
C20   C     C_R   0.431021 0.974313 0.630040 0.224453
C21   C     C_R   0.557329 0.134262 0.369697 -0.089727
C22   C     C_R   0.438147 0.867139 0.623013 -0.188854
C23   C     C_R   0.496407 0.136473 0.563544 0.198140
C24   C     C_R   0.502163 0.863002 0.429096 0.231427
C25   C     C_R   0.479781 0.027771 0.546125 -0.015168
C26   C     C_R   0.511173 0.971771 0.442191 -0.016044
Cu1   Cu    Cu3+1 0.508350 0.507730 0.615930 1.006396
Cu2   Cu    Cu3+1 0.491650 0.492270 0.384070 0.959942
N1    N     N_R   0.520920 0.519350 0.790130 -0.257034
N2    N     N_R   0.479080 0.480650 0.209870 -0.258280
O1    O     O_R   0.505930 0.354460 0.582000 -0.573735
O2    O     O_R   0.494070 0.645540 0.418000 -0.606974
O3    O     O_R   0.491820 0.341410 0.386200 -0.533847
O4    O     O_R   0.508180 0.658590 0.613800 -0.542854
O5    O     O_R   0.344250 0.506540 0.597900 -0.533613
O6    O     O_R   0.655750 0.493460 0.402100 -0.589125
O7    O     O_R   0.330140 0.493480 0.402100 -0.576291
O8    O     O_R   0.669860 0.506520 0.597900 -0.561569
N3    N     N_2   0.508262 0.806801 0.317757 -0.389929
H1    H     H_    0.574960 0.759990 0.304817 0.253121
C27   C     C_3   0.399049 0.773050 0.255336 -0.601453
H2    H     H_    0.414484 0.733686 0.168578 0.211274
H3    H     H_    0.348759 0.840759 0.246548 0.221327
H4    H     H_    0.347657 0.718556 0.299874 0.234720
N4    N     N_2   0.507560 0.193303 0.676133 -0.393402
H5    H     H_    0.433947 0.200317 0.719381 0.282370
C28   C     C_3   0.609848 0.179084 0.744546 -0.620893
H6    H     H_    0.618566 0.238423 0.822080 0.212810
H7    H     H_    0.604146 0.101240 0.771281 0.229583
H8    H     H_    0.687617 0.188438 0.695473 0.233710
C29   C     C_2   0.386985 0.812418 0.712385 0.947158
O9    O     O_2   0.428714 0.829859 0.810456 -0.546327
O10   O     O_R   0.291815 0.740653 0.685751 -0.727485
H9    H     H_    0.262230 0.734176 0.602936 0.267879
C30   C     C_2   0.613944 0.190599 0.285223 0.905922
O11   O     O_2   0.712117 0.229870 0.306923 -0.629374
O12   O     O_R   0.553861 0.201393 0.183185 -0.750287
H10   H     H_    0.600764 0.243280 0.133824 0.316308
N5    N     N_2   0.606985 0.973063 0.259605 -0.425397
H11   H     H_    0.694041 0.991983 0.257394 0.249089
C31   C     C_3   0.544068 0.964294 0.149370 -0.541838
H12   H     H_    0.541396 0.883289 0.106050 0.239940
H13   H     H_    0.588512 0.014010 0.094232 0.227970
H14   H     H_    0.454158 0.986366 0.157953 0.234638
N6    N     N_2   0.361575 0.026315 0.712315 -0.450084
H15   H     H_    0.366958 0.004964 0.792554 0.277639
C32   C     C_3   0.244592 0.034458 0.669577 -0.732687
H16   H     H_    0.199312 0.956257 0.646435 0.239606
H17   H     H_    0.244134 0.074981 0.593447 0.237316
H18   H     H_    0.197276 0.079559 0.736197 0.227845
N7    N     N_2   0.322296 0.450789 0.797354 -0.358296
H19   H     H_    0.261913 0.479910 0.851493 0.249677
C33   C     C_3   0.279319 0.354486 0.726027 -0.594984
H20   H     H_    0.275178 0.287534 0.771613 0.229180
H21   H     H_    0.330131 0.335504 0.652147 0.241664
H22   H     H_    0.190385 0.362631 0.692235 0.200776
N8    N     N_2   0.668195 0.569573 0.206115 -0.428619
H23   H     H_    0.667404 0.614959 0.284174 0.264773
C34   C     C_3   0.760473 0.501040 0.189655 -0.594429
H24   H     H_    0.840968 0.538853 0.235787 0.215955
H25   H     H_    0.775927 0.482801 0.097560 0.218741
H26   H     H_    0.738489 0.427065 0.221581 0.261293
C35   C     C_2   0.684178 0.651786 0.795977 0.942898
O13   O     O_2   0.657919 0.738524 0.784472 -0.571658
O14   O     O_R   0.793084 0.621203 0.768428 -0.781633
H27   H     H_    0.840181 0.675648 0.734304 0.320661
C36   C     C_2   0.297792 0.367948 0.205959 0.908025
O15   O     O_2   0.202971 0.402458 0.209178 -0.626329
O16   O     O_R   0.315577 0.275711 0.247810 -0.739725
H28   H     H_    0.245099 0.247070 0.282884 0.314354
N9    N     N_2   0.307024 0.323011 0.969124 -0.447312
H29   H     H_    0.222890 0.323101 0.991898 0.269200
C37   C     C_3   0.352373 0.222309 0.963139 -0.676067
H30   H     H_    0.292585 0.163975 0.908821 0.222815
H31   H     H_    0.361015 0.198605 0.048893 0.284768
H32   H     H_    0.437725 0.223271 0.925902 0.242988
N10   N     N_2   0.679765 0.685509 0.034234 -0.414769
H33   H     H_    0.644947 0.723416 0.105291 0.264636
C38   C     C_3   0.804390 0.689893 0.036551 -0.603334
H34   H     H_    0.840627 0.699399 0.126217 0.219410
H35   H     H_    0.836580 0.757662 0.997852 0.238327
H36   H     H_    0.835558 0.618750 0.988997 0.240729

loop_
_geom_bond_atom_site_label_1
_geom_bond_atom_site_label_2
_ccdc_geom_bond_type
C36   O15   D    
C37   H30   S    
C23   N4    S    
Cu1   N1    S    
C18   C21   A    
C33   H21   S    
C27   H2    S    
C30   O11   D    
N10   H33   S    
C1    O3    A    
N3    C27   S    
N8    H23   S    
C1    C18   S    
C8    N1    A    
C3    N9    S    
C19   C21   A    
C24   C26   A    
C20   C25   A    
Cu1   O8    S    
C15   C16   S    
C1    O1    A    
C24   N3    S    
C2    O2    A    
C33   H20   S    
C31   H13   S    
C19   C26   A    
C38   H34   S    
N6    C32   S    
C12   O6    A    
C9    C10   A    
C7    N8    S    
C2    O4    A    
N4    C28   S    
N5    H11   S    
C37   H31   S    
C7    N2    A    
C4    N10   S    
C2    C17   S    
C27   H3    S    
N10   C38   S    
C28   H8    S    
N8    C34   S    
Cu1   O4    S    
N5    C31   S    
C17   C24   A    
Cu1   O1    S    
C18   C23   A    
C28   H6    S    
C20   N6    S    
Cu2   O2    S    
C4    C6    A    
N3    H1    S    
C34   H25   S    
Cu1   O5    S    
C25   C26   A    
O14   H27   S    
C32   H16   S    
C29   O10   S    
C31   H14   S    
N9    C37   S    
C35   O13   D    
C38   H36   S    
C30   O12   S    
C35   O14   S    
C12   C14   S    
Cu2   O3    S    
C37   H32   S    
C13   C15   T    
C27   H4    S    
C14   C16   T    
N9    H29   S    
C11   O7    A    
C5    N2    A    
C7    C9    A    
C8    N7    S    
C6    C35   S    
C38   H35   S    
C20   C22   A    
C3    C5    A    
C34   H26   S    
O10   H9    S    
C28   H7    S    
C17   C22   A    
C32   H18   S    
C19   N5    S    
C11   O5    A    
C4    C9    A    
C29   O9    D    
C3    C10   A    
C11   C13   S    
O12   H10   S    
Cu2   O7    S    
C21   C30   S    
Cu2   N2    S    
C33   H22   S    
C23   C25   A    
C12   O8    A    
C31   H12   S    
C34   H24   S    
C5    C36   S    
N4    H5    S    
N7    H19   S    
C6    N1    A    
Cu2   O6    S    
C8    C10   A    
N6    H15   S    
N7    C33   S    
Cu1   Cu2   S    
C36   O16   S    
C32   H17   S    
O16   H28   S    
C22   C29   S    
