data_mof_unit_25726.cif
_audit_creation_date              2012-12-10T17:55:50-0500
_audit_creation_method            fapswitch 2.2
_symmetry_space_group_name_H-M    P1
_symmetry_Int_Tables_number       1
_space_group_crystal_system       triclinic
_cell_length_a                    11.103985
_cell_length_b                    10.791663
_cell_length_c                    9.639911
_cell_angle_alpha                 89.271796
_cell_angle_beta                  101.374136
_cell_angle_gamma                 92.834288
_cell_volume                      1131.07763123

loop_
_atom_site_label
_atom_site_type_symbol
_atom_type_description
_atom_site_fract_x
_atom_site_fract_y
_atom_site_fract_z
_atom_type_partial_charge
C1    C     C_R   0.500477 0.262579 0.500468 0.849001
C2    C     C_R   0.499439 0.737313 0.499377 0.823131
C3    C     C_R   0.263911 0.498559 0.443570 0.856278
C4    C     C_R   0.736470 0.499062 0.555661 0.863246
C5    C     C_R   0.428113 0.415031 0.059978 0.069192
C6    C     C_R   0.573222 0.583716 0.940595 0.077462
C7    C     C_R   0.431268 0.412001 0.912236 0.043742
C8    C     C_R   0.571435 0.585905 0.088689 0.066966
C9    C     C_2   0.131053 0.503505 0.413566 -0.424542
C10   C     C_2   0.869623 0.487884 0.580320 -0.388148
C11   C     C_2   0.061407 0.455959 0.502262 0.421232
C12   C     C_2   0.929094 0.477194 0.471606 0.384935
C13   C     C_R   0.570900 0.068668 0.415990 0.526749
C14   C     C_R   0.423468 0.931559 0.576244 0.508772
C15   C     C_R   0.570784 0.939081 0.419401 -0.344840
C16   C     C_R   0.427751 0.060335 0.578481 -0.322834
C17   C     C_R   0.497317 0.871134 0.498121 -0.183512
C18   C     C_R   0.501296 0.128493 0.499964 -0.152179
Cu1   Cu    Cu3+1 0.500000 0.500020 0.640660 0.972928
Cu2   Cu    Cu3+1 0.500000 0.499980 0.359340 0.971642
H1    H     H_    0.919010 0.480676 0.689079 0.176602
H2    H     H_    0.089303 0.549280 0.316071 0.163441
H3    H     H_    0.630825 0.891389 0.364790 0.193199
H4    H     H_    0.370545 0.106759 0.637952 0.203280
N1    N     N_R   0.500030 0.500030 0.852080 -0.251588
N2    N     N_R   0.499970 0.499970 0.147920 -0.257517
O1    O     O_R   0.499990 0.319660 0.618740 -0.622911
O2    O     O_R   0.500010 0.680340 0.381260 -0.607031
O3    O     O_R   0.499990 0.319630 0.381170 -0.517903
O4    O     O_R   0.500010 0.680370 0.618830 -0.576154
O5    O     O_R   0.320690 0.500020 0.575130 -0.552355
O6    O     O_R   0.679310 0.499980 0.424870 -0.556386
O7    O     O_R   0.320680 0.499990 0.337560 -0.617144
O8    O     O_R   0.679320 0.500010 0.662440 -0.568898
O9    O     O_3   0.870005 0.495542 0.332203 -0.582340
C19   C     C_3   0.861485 0.382551 0.258022 -0.261609
H5    H     H_    0.952011 0.359567 0.235153 0.144556
H6    H     H_    0.797074 0.392625 0.155205 0.198178
H7    H     H_    0.824351 0.304759 0.316479 0.195307
O10   O     O_3   0.112569 0.391513 0.623082 -0.594121
C20   C     C_3   0.072124 0.265451 0.605695 -0.386773
H8    H     H_    0.102779 0.224142 0.513971 0.160280
H9    H     H_    0.970605 0.252637 0.593850 0.175877
H10   H     H_    0.113425 0.213334 0.701758 0.219692
C21   C     C_2   0.336635 0.334863 0.115417 0.524776
H11   H     H_    0.248299 0.370470 0.121786 0.033281
O11   O     O_2   0.357066 0.227296 0.148633 -0.521332
C22   C     C_2   0.662513 0.666260 0.884879 0.523796
H12   H     H_    0.634045 0.752014 0.831620 0.093925
O12   O     O_2   0.771001 0.642518 0.907199 -0.558892
C23   C     C_2   0.363098 0.309830 0.824944 0.377287
H13   H     H_    0.320541 0.324698 0.716901 0.165447
O13   O     O_2   0.357530 0.204639 0.872013 -0.549683
C24   C     C_2   0.643680 0.686214 0.176374 0.426912
H14   H     H_    0.691474 0.670059 0.282692 0.144290
O14   O     O_2   0.649678 0.791436 0.129457 -0.623790
O15   O     O_3   0.647029 0.139550 0.344096 -0.609671
C25   C     C_3   0.637924 0.096801 0.204339 -0.196800
H15   H     H_    0.543799 0.059691 0.155636 0.226696
H16   H     H_    0.706784 0.026183 0.202043 0.189533
H17   H     H_    0.660009 0.176005 0.137745 0.171602
O16   O     O_3   0.350798 0.865317 0.655127 -0.549236
C26   C     C_3   0.231896 0.847205 0.571716 -0.250680
H18   H     H_    0.233688 0.795118 0.473196 0.138575
H19   H     H_    0.187632 0.937154 0.545575 0.148237
H20   H     H_    0.174354 0.790840 0.633159 0.198826

loop_
_geom_bond_atom_site_label_1
_geom_bond_atom_site_label_2
_ccdc_geom_bond_type
C2    O2    A    
C11   C12   S    
C26   H19   S    
C24   O14   D    
O10   C20   S    
O16   C26   S    
C3    C9    S    
Cu1   O1    S    
C20   H8    S    
Cu1   Cu2   S    
C7    N1    A    
C2    O4    A    
Cu1   O5    S    
C25   H17   S    
C1    O3    A    
C1    C18   S    
C26   H20   S    
C7    C23   S    
C23   H13   S    
C16   H4    S    
C16   C18   A    
C21   H11   S    
C12   O9    S    
C3    O5    A    
C22   O12   D    
C20   H9    S    
C14   C17   A    
C9    C11   D    
O15   C25   S    
C4    O6    A    
Cu2   N2    S    
C13   C18   A    
Cu2   O7    S    
C10   C12   D    
C15   H3    S    
C22   H12   S    
C4    O8    A    
Cu2   O3    S    
C13   C15   A    
C10   H1    S    
C11   O10   S    
Cu1   N1    S    
C20   H10   S    
C14   C16   A    
C9    H2    S    
C6    N1    A    
C13   O15   S    
C19   H6    S    
C3    O7    A    
C25   H16   S    
C5    N2    A    
C14   O16   S    
C8    N2    A    
C1    O1    A    
Cu2   O6    S    
C21   O11   D    
C8    C24   S    
C15   C17   A    
C5    C7    A    
C19   H5    S    
C6    C8    A    
Cu2   O2    S    
C23   O13   D    
C25   H15   S    
C24   H14   S    
Cu1   O4    S    
C5    C21   S    
C19   H7    S    
O9    C19   S    
C4    C10   S    
C26   H18   S    
C2    C17   S    
Cu1   O8    S    
C6    C22   S    
