data_mof_unit_31958.cif
_audit_creation_date              2012-10-26T20:21:46-0400
_audit_creation_method            fapswitch 2.2
_symmetry_space_group_name_H-M    P1
_symmetry_Int_Tables_number       1
_space_group_crystal_system       triclinic
_cell_length_a                    15.358908
_cell_length_b                    15.299846
_cell_length_c                    9.51477
_cell_angle_alpha                 89.643578
_cell_angle_beta                  89.900769
_cell_angle_gamma                 90.480399
_cell_volume                      2235.74018523

loop_
_atom_site_label
_atom_site_type_symbol
_atom_type_description
_atom_site_fract_x
_atom_site_fract_y
_atom_site_fract_z
_atom_type_partial_charge
C1    C     C_R   0.118856 0.381018 0.500130 0.613274
C2    C     C_R   0.009637 0.576231 0.924809 0.058838
C3    C     C_R   0.009546 0.576241 0.073650 0.067618
C4    C     C_R   0.989551 0.423921 0.926449 0.085290
C5    C     C_R   0.490360 0.923768 0.075191 0.058836
C6    C     C_R   0.509916 0.076177 0.924774 0.083320
C7    C     C_R   0.510453 0.076080 0.073550 0.085291
C8    C     C_R   0.490452 0.923758 0.926350 0.067616
C9    C     C_R   0.829571 0.233848 0.568056 0.203968
C10   C     C_R   0.169059 0.766042 0.564385 0.219036
C11   C     C_R   0.266397 0.669374 0.435249 0.211780
C12   C     C_R   0.881122 0.618882 0.499830 0.636262
C13   C     C_R   0.735026 0.330671 0.432393 0.225535
C14   C     C_R   0.197074 0.260190 0.619948 0.237816
C15   C     C_R   0.826519 0.762908 0.420417 0.229659
C16   C     C_R   0.737615 0.672768 0.579138 0.231800
C17   C     C_R   0.239083 0.303497 0.380035 0.235166
C18   C     C_R   0.330940 0.733959 0.435617 0.219038
C19   C     C_R   0.670430 0.266153 0.431946 0.203971
C20   C     C_R   0.764975 0.169329 0.567604 0.225526
C21   C     C_R   0.233602 0.830627 0.564753 0.211779
C22   C     C_R   0.673479 0.737092 0.579581 0.229658
C23   C     C_R   0.881394 0.380988 0.500304 0.619941
C24   C     C_R   0.302924 0.239809 0.380049 0.237818
C25   C     C_R   0.260915 0.196502 0.619961 0.235164
C26   C     C_R   0.762385 0.827233 0.420866 0.231803
C27   C     C_R   0.185707 0.685732 0.499342 -0.045457
C28   C     C_R   0.814299 0.314261 0.500670 -0.045589
C29   C     C_R   0.814095 0.685744 0.499598 -0.033075
C30   C     C_R   0.185790 0.314149 0.500129 -0.052936
C31   C     C_R   0.685701 0.185740 0.499334 -0.045587
C32   C     C_R   0.314291 0.814270 0.500658 -0.045459
C33   C     C_R   0.314208 0.185849 0.499868 -0.052935
C34   C     C_R   0.118949 0.618664 0.499702 0.621337
C35   C     C_R   0.685904 0.814257 0.500404 -0.033074
C36   C     C_R   0.618877 0.881118 0.500170 0.636268
C37   C     C_R   0.381143 0.118981 0.499870 0.613273
C38   C     C_R   0.381049 0.881337 0.500298 0.621336
C39   C     C_R   0.618605 0.119013 0.499697 0.619945
C40   C     C_R   0.990088 0.423824 0.075226 0.083323
Cl1   Cl    Cl    0.930993 0.211865 0.647477 -0.399728
Cl2   Cl    Cl    0.569013 0.288132 0.352520 -0.399739
Cl3   Cl    Cl    0.785005 0.066756 0.648128 -0.377759
Cl4   Cl    Cl    0.211399 0.933377 0.639789 -0.362704
Cl5   Cl    Cl    0.575800 0.718572 0.674807 -0.413226
Cl6   Cl    Cl    0.369121 0.232346 0.227145 -0.376512
Cl7   Cl    Cl    0.269713 0.129880 0.773496 -0.334086
Cl8   Cl    Cl    0.780291 0.925875 0.326328 -0.379363
Cl9   Cl    Cl    0.066269 0.787266 0.641066 -0.410782
Cl10  Cl    Cl    0.288601 0.566622 0.360223 -0.362707
Cl11  Cl    Cl    0.715005 0.433236 0.351838 -0.377771
Cl12  Cl    Cl    0.130882 0.267652 0.772860 -0.376508
Cl13  Cl    Cl    0.924192 0.781424 0.325169 -0.413234
Cl14  Cl    Cl    0.719713 0.574131 0.673692 -0.379374
Cl15  Cl    Cl    0.230286 0.370120 0.226502 -0.334090
Cl16  Cl    Cl    0.433732 0.712731 0.358943 -0.410772
Cu1   Cu    Cu3+1 0.000000 0.500000 0.640660 1.123132
Cu2   Cu    Cu3+1 0.000000 0.500000 0.359340 1.126068
Cu3   Cu    Cu3+1 0.500000 0.000000 0.640660 1.126065
Cu4   Cu    Cu3+1 0.500000 0.000000 0.359340 1.123133
H1    H     H_    0.982351 0.362737 0.131877 0.153195
H2    H     H_    0.017157 0.637332 0.868166 0.172380
H3    H     H_    0.017070 0.637327 0.129086 0.171014
H4    H     H_    0.980470 0.363059 0.871184 0.193868
H5    H     H_    0.482837 0.862667 0.131834 0.172377
H6    H     H_    0.517655 0.137264 0.868122 0.153192
H7    H     H_    0.519538 0.136942 0.128816 0.193867
H8    H     H_    0.482927 0.862672 0.870914 0.171010
N1    N     N_R   0.000000 0.500000 0.852070 -0.249128
N2    N     N_R   0.000000 0.500000 0.147930 -0.241065
N3    N     N_R   0.500000 0.000000 0.852070 -0.241062
N4    N     N_R   0.500000 0.000000 0.147930 -0.249123
O1    O     O_R   0.090170 0.409820 0.618740 -0.459427
O2    O     O_R   0.409830 0.090180 0.381260 -0.459426
O3    O     O_R   0.409830 0.090180 0.618740 -0.463293
O4    O     O_R   0.590170 0.909820 0.381260 -0.470421
O5    O     O_R   0.409830 0.909820 0.381260 -0.493105
O6    O     O_R   0.590170 0.090180 0.618740 -0.496294
O7    O     O_R   0.590170 0.090180 0.381260 -0.475096
O8    O     O_R   0.409830 0.909820 0.618740 -0.472884
O9    O     O_R   0.909830 0.590180 0.381260 -0.468352
O10   O     O_R   0.909830 0.590180 0.618740 -0.470421
O11   O     O_R   0.090170 0.409820 0.381260 -0.463294
O12   O     O_R   0.909830 0.409820 0.381260 -0.496286
O13   O     O_R   0.090170 0.590180 0.618740 -0.493101
O14   O     O_R   0.090170 0.590180 0.381260 -0.472886
O15   O     O_R   0.909830 0.409820 0.618740 -0.475100
O16   O     O_R   0.590170 0.909820 0.618740 -0.468356

loop_
_geom_bond_atom_site_label_1
_geom_bond_atom_site_label_2
_ccdc_geom_bond_type
C10   C27   A    
C37   O2    A    
Cu4   O7    S    
C12   C29   S    
C35   C36   S    
C19   C31   A    
C11   C18   A    
C36   O16   A    
C22   C35   A    
C40   N2    A    
C15   Cl13  S    
C5    N4    A    
Cu4   N4    S    
C34   O14   A    
Cu1   O1    S    
Cu3   O16   S    
C36   O4    A    
C13   Cl11  S    
C14   Cl12  S    
C4    C40   A    
C31   C39   S    
C13   C28   A    
C32   C38   S    
C2    N1    A    
C25   Cl7   S    
C19   Cl2   S    
C18   Cl16  S    
C37   O3    A    
Cu3   Cu4   S    
C10   C21   A    
C23   O15   A    
C17   C30   A    
C14   C30   A    
Cu2   O14   S    
Cu3   O6    S    
C4    N1    A    
C15   C29   A    
C27   C34   S    
C6    N3    A    
C21   C32   A    
Cu4   O5    S    
C17   C24   A    
C23   O12   A    
C13   C19   A    
C39   O6    A    
C3    N2    A    
C26   Cl8   S    
C5    H5    S    
Cu2   O9    S    
C7    N4    A    
Cu2   N2    S    
C15   C26   A    
C16   C29   A    
Cu4   O4    S    
C33   C37   S    
C40   H1    S    
Cu1   O15   S    
C34   O13   A    
C39   O7    A    
Cu2   O12   S    
C21   Cl4   S    
C9    C20   A    
C11   C27   A    
C12   O10   A    
C23   C28   S    
C8    H8    S    
C18   C32   A    
Cu3   O3    S    
C20   Cl3   S    
C17   Cl15  S    
C8    N3    A    
C16   C22   A    
Cu3   O8    S    
C5    C8    A    
C6    C7    A    
C38   O5    A    
C3    H3    S    
C1    O11   A    
C4    H4    S    
C9    Cl1   S    
C24   C33   A    
C1    O1    A    
C2    C3    A    
C24   Cl6   S    
C11   Cl10  S    
Cu2   O11   S    
Cu1   Cu2   S    
C38   O8    A    
Cu4   O2    S    
C1    C30   S    
Cu1   O13   S    
C12   O9    A    
C14   C25   A    
C16   Cl14  S    
C7    H7    S    
C26   C35   A    
C6    H6    S    
C22   Cl5   S    
C25   C33   A    
Cu1   O10   S    
Cu1   N1    S    
C10   Cl9   S    
C2    H2    S    
C9    C28   A    
Cu3   N3    S    
C20   C31   A    
