data_mof_unit_54366.cif
_audit_creation_date              2012-12-11T14:42:14-0500
_audit_creation_method            fapswitch 2.2
_symmetry_space_group_name_H-M    P1
_symmetry_Int_Tables_number       1
_space_group_crystal_system       triclinic
_cell_length_a                    19.090406
_cell_length_b                    10.930319
_cell_length_c                    18.841369
_cell_angle_alpha                 89.528069
_cell_angle_beta                  90.114423
_cell_angle_gamma                 90.339701
_cell_volume                      3931.30978241

loop_
_atom_site_label
_atom_site_type_symbol
_atom_type_description
_atom_site_fract_x
_atom_site_fract_y
_atom_site_fract_z
_atom_type_partial_charge
C1    C     C_R   0.729139 0.951401 0.850897 0.529497
C2    C     C_R   0.253935 0.404069 0.918487 -0.015434
C3    C     C_3   0.854153 0.045148 0.071724 -0.383346
C4    C     C_3   0.880571 0.419049 0.909827 -0.382998
C5    C     C_3   0.153926 0.224158 0.052748 -0.375376
C6    C     C_3   0.380570 0.919050 0.909827 -0.382999
C7    C     C_3   0.653924 0.724162 0.052750 -0.375372
C8    C     C_3   0.550430 0.411848 0.548129 -0.353179
C9    C     C_3   0.570011 0.381448 0.394827 -0.345623
C10   C     C_3   0.050430 0.911848 0.548129 -0.353179
C11   C     C_3   0.070011 0.881448 0.394827 -0.345624
C12   C     C_3   0.528024 0.934507 0.411623 -0.360945
C13   C     C_R   0.263222 0.931919 0.071377 0.004587
C14   C     C_3   0.510483 0.944581 0.566577 -0.351084
C15   C     C_3   0.028024 0.434508 0.411623 -0.360945
C16   C     C_3   0.010484 0.444580 0.566577 -0.351084
C17   C     C_R   0.753933 0.904074 0.918489 -0.015433
C18   C     C_R   0.821603 0.431644 0.026793 -0.111819
C19   C     C_R   0.214975 0.312577 0.950573 -0.128298
C20   C     C_R   0.321603 0.931646 0.026793 -0.111818
C21   C     C_R   0.714971 0.812584 0.950575 -0.128293
C22   C     C_R   0.814565 0.421214 0.954033 -0.027680
C23   C     C_R   0.211800 0.305140 0.023759 -0.020396
C24   C     C_R   0.314565 0.921215 0.954034 -0.027680
C25   C     C_R   0.274610 0.958581 0.145464 0.537066
C26   C     C_R   0.711796 0.805148 0.023762 -0.020393
C27   C     C_R   0.746451 0.414083 0.924698 0.051323
C28   C     C_R   0.258927 0.377660 0.066060 0.046250
C29   C     C_R   0.246451 0.914081 0.924698 0.051323
C30   C     C_R   0.758924 0.877669 0.066063 0.046252
C31   C     C_R   0.548601 0.284117 0.516163 -0.022468
C32   C     C_R   0.547865 0.274629 0.442108 0.030167
C33   C     C_R   0.048601 0.784117 0.516163 -0.022468
C34   C     C_R   0.047865 0.774629 0.442108 0.030167
C35   C     C_R   0.523598 0.165564 0.411628 0.037612
C36   C     C_R   0.229140 0.451400 0.850896 0.529495
C37   C     C_R   0.541729 0.175008 0.558620 0.009629
C38   C     C_R   0.023598 0.665564 0.411628 0.037612
C39   C     C_R   0.041729 0.675008 0.558620 0.009629
C40   C     C_R   0.526033 0.055547 0.450277 0.006221
C41   C     C_R   0.528745 0.060049 0.524778 -0.015116
C42   C     C_R   0.026033 0.555547 0.450277 0.006221
C43   C     C_R   0.028746 0.560049 0.524777 -0.015116
C44   C     C_R   0.729139 0.294223 0.523543 -0.062545
C45   C     C_R   0.209755 0.311725 0.471508 -0.086463
C46   C     C_R   0.229139 0.794223 0.523543 -0.062545
C47   C     C_R   0.774610 0.458581 0.145464 0.537067
C48   C     C_R   0.709755 0.811725 0.471508 -0.086462
C49   C     C_R   0.736377 0.312353 0.450771 0.209650
C50   C     C_R   0.209774 0.318094 0.544626 0.209861
C51   C     C_R   0.236377 0.812353 0.450771 0.209651
C52   C     C_R   0.709774 0.818094 0.544626 0.209862
C53   C     C_R   0.528861 0.176338 0.849727 0.541378
C54   C     C_R   0.470946 0.179420 0.150300 0.547994
C55   C     C_R   0.028861 0.676338 0.849727 0.541378
C56   C     C_R   0.970946 0.679419 0.150300 0.547996
C57   C     C_R   0.758331 0.428697 0.426349 0.016206
C58   C     C_R   0.696488 0.430235 0.043113 -0.149591
C59   C     C_R   0.249185 0.411242 0.577891 0.007719
C60   C     C_R   0.258331 0.928697 0.426349 0.016206
C61   C     C_R   0.749185 0.911243 0.577891 0.007720
C62   C     C_R   0.774967 0.521738 0.474693 -0.138772
C63   C     C_R   0.295829 0.483376 0.537286 -0.169871
C64   C     C_R   0.274967 0.021738 0.474693 -0.138773
C65   C     C_R   0.795829 0.983378 0.537286 -0.169872
C66   C     C_R   0.768396 0.501719 0.547158 -0.141137
C67   C     C_R   0.299031 0.469831 0.463969 -0.108311
C68   C     C_R   0.268395 0.001719 0.547158 -0.141137
C69   C     C_R   0.301794 0.473406 0.958141 -0.122429
C70   C     C_R   0.799030 0.969832 0.463968 -0.108311
C71   C     C_R   0.744937 0.388408 0.571287 -0.017193
C72   C     C_R   0.254149 0.386766 0.430498 0.000777
C73   C     C_R   0.244937 0.888408 0.571287 -0.017193
C74   C     C_R   0.754149 0.886766 0.430498 0.000777
C75   C     C_R   0.737618 0.363728 0.853172 0.540079
C76   C     C_R   0.264549 0.352783 0.142929 0.555764
C77   C     C_R   0.237618 0.863727 0.853172 0.540080
C78   C     C_R   0.764546 0.852794 0.142931 0.555756
C79   C     C_R   0.728440 0.953885 0.648043 0.527334
C80   C     C_R   0.196489 0.930232 0.043114 -0.149587
C81   C     C_R   0.272506 0.955505 0.352542 0.520368
C82   C     C_R   0.228440 0.453885 0.648043 0.527333
C83   C     C_R   0.772506 0.455504 0.352542 0.520367
C84   C     C_R   0.558091 0.180746 0.635727 0.555999
C85   C     C_R   0.476279 0.175703 0.350304 0.538233
C86   C     C_R   0.058091 0.680746 0.635727 0.555999
C87   C     C_R   0.976279 0.675703 0.350304 0.538233
C88   C     C_R   0.739135 0.361161 0.645991 0.527537
C89   C     C_R   0.261728 0.357529 0.355563 0.556693
C90   C     C_R   0.239134 0.861161 0.645991 0.527537
C91   C     C_R   0.801791 0.973413 0.958143 -0.122433
C92   C     C_R   0.761728 0.857529 0.355563 0.556690
C93   C     C_2   0.504789 0.160672 0.922283 -0.112850
C94   C     C_2   0.506047 0.182407 0.082241 -0.096940
C95   C     C_2   0.004788 0.660673 0.922284 -0.112857
C96   C     C_2   0.006046 0.682405 0.082240 -0.096939
C97   C     C_2   0.522610 0.086393 0.043066 -0.031176
C98   C     C_2   0.548837 0.114579 0.972069 -0.028110
C99   C     C_2   0.022608 0.586389 0.043066 -0.031175
C100  C     C_2   0.048834 0.614572 0.972068 -0.028118
C101  C     C_R   0.687217 0.431184 0.969923 -0.035729
C102  C     C_R   0.763222 0.431919 0.071377 0.004587
C103  C     C_R   0.305129 0.461226 0.031748 -0.037195
C104  C     C_R   0.187217 0.931180 0.969924 -0.035727
C105  C     C_R   0.805125 0.961235 0.031751 -0.037196
C106  C     C_3   0.527384 0.958102 0.071793 -0.383297
C107  C     C_3   0.627007 0.106272 0.963055 -0.344103
C108  C     C_3   0.027381 0.458099 0.071795 -0.383296
C109  C     C_3   0.127003 0.606248 0.963052 -0.344094
C110  C     C_3   0.613550 0.448505 0.943892 -0.374331
C111  C     C_3   0.354158 0.545137 0.071722 -0.383345
C112  C     C_3   0.113550 0.948497 0.943893 -0.374329
Cr1   Cr    Cr6+3 0.769270 0.163730 0.750710 0.997878
Cr2   Cr    Cr6+3 0.385840 0.322500 0.252290 1.002824
Cr3   Cr    Cr6+3 0.114160 0.822500 0.747710 0.994491
Cr4   Cr    Cr6+3 0.885840 0.822500 0.252290 1.002825
Cr5   Cr    Cr6+3 0.230730 0.163730 0.249290 0.991222
Cr6   Cr    Cr6+3 0.269270 0.663730 0.750710 0.997879
Cr7   Cr    Cr6+3 0.730730 0.663730 0.249290 0.991223
Cr8   Cr    Cr6+3 0.612620 0.009790 0.748780 1.005069
Cr9   Cr    Cr6+3 0.387380 0.009790 0.251220 0.997220
Cr10  Cr    Cr6+3 0.112620 0.509790 0.748780 1.005067
Cr11  Cr    Cr6+3 0.887380 0.509790 0.251220 0.997220
Cr12  Cr    Cr6+3 0.614160 0.322500 0.747710 0.994490
H1    H     H_    0.795368 0.608910 0.456054 0.128248
H2    H     H_    0.450257 0.178855 0.934572 0.084975
H3    H     H_    0.013398 0.773463 0.059106 0.097173
H4    H     H_    0.950258 0.678867 0.934573 0.084979
H5    H     H_    0.651712 0.435120 0.078343 0.111268
H6    H     H_    0.332855 0.544121 0.932340 0.142901
H7    H     H_    0.151713 0.935114 0.078344 0.111269
H8    H     H_    0.832853 0.044127 0.932342 0.142902
H9    H     H_    0.873280 0.441895 0.048826 0.135967
H10   H     H_    0.179311 0.258314 0.918603 0.136851
H11   H     H_    0.373280 0.941899 0.048825 0.135966
H12   H     H_    0.327064 0.554817 0.561533 0.142509
H13   H     H_    0.679309 0.758320 0.918606 0.136853
H14   H     H_    0.711169 0.205975 0.543170 0.137196
H15   H     H_    0.177668 0.241314 0.447287 0.156388
H16   H     H_    0.211169 0.705975 0.543170 0.137196
H17   H     H_    0.677669 0.741313 0.447287 0.156388
H18   H     H_    0.542235 0.894913 0.028648 0.122254
H19   H     H_    0.567388 0.955695 0.114597 0.139485
H20   H     H_    0.477186 0.924705 0.093576 0.150701
H21   H     H_    0.653572 0.159728 0.005252 0.122688
H22   H     H_    0.641470 0.009846 0.969706 0.156091
H23   H     H_    0.295368 0.108911 0.456054 0.128248
H24   H     H_    0.646545 0.141657 0.911509 0.165438
H25   H     H_    0.042230 0.394907 0.028650 0.122247
H26   H     H_    0.067387 0.455693 0.114597 0.139487
H27   H     H_    0.977184 0.424703 0.093579 0.150704
H28   H     H_    0.153575 0.659673 0.005259 0.122690
H29   H     H_    0.141455 0.509812 0.969684 0.156101
H30   H     H_    0.146543 0.641655 0.911512 0.165432
H31   H     H_    0.724295 0.242968 0.356341 0.320863
H32   H     H_    0.190836 0.220766 0.628731 0.331709
H33   H     H_    0.224294 0.742968 0.356341 0.320864
H34   H     H_    0.827062 0.054818 0.561532 0.142510
H35   H     H_    0.690836 0.720766 0.628731 0.331709
H36   H     H_    0.592286 0.358636 0.930360 0.182507
H37   H     H_    0.578792 0.485556 0.985655 0.093945
H38   H     H_    0.611818 0.513816 0.898517 0.154792
H39   H     H_    0.325216 0.593112 0.114218 0.146550
H40   H     H_    0.398075 0.491915 0.094823 0.165600
H41   H     H_    0.377494 0.616574 0.036583 0.110372
H42   H     H_    0.092287 0.858625 0.930362 0.182504
H43   H     H_    0.078791 0.985545 0.985657 0.093945
H44   H     H_    0.111815 0.013807 0.898519 0.154793
H45   H     H_    0.782804 0.572967 0.584104 0.126286
H46   H     H_    0.825211 0.093120 0.114221 0.146545
H47   H     H_    0.898070 0.991928 0.094825 0.165599
H48   H     H_    0.877487 0.116586 0.036586 0.110375
H49   H     H_    0.892481 0.324336 0.893207 0.159436
H50   H     H_    0.875037 0.479968 0.862709 0.141132
H51   H     H_    0.926657 0.450832 0.940526 0.123861
H52   H     H_    0.176584 0.147104 0.081698 0.191042
H53   H     H_    0.119898 0.274773 0.089273 0.141291
H54   H     H_    0.119204 0.186926 0.010801 0.099538
H55   H     H_    0.392480 0.824338 0.893206 0.159438
H56   H     H_    0.335381 0.525496 0.433441 0.151254
H57   H     H_    0.375037 0.979970 0.862710 0.141131
H58   H     H_    0.426657 0.950832 0.940526 0.123858
H59   H     H_    0.676584 0.647107 0.081698 0.191044
H60   H     H_    0.619896 0.774773 0.089277 0.141290
H61   H     H_    0.619201 0.686933 0.010803 0.099535
H62   H     H_    0.598697 0.425824 0.579202 0.186766
H63   H     H_    0.548414 0.487842 0.509142 0.117060
H64   H     H_    0.503219 0.425746 0.581306 0.158301
H65   H     H_    0.584750 0.349729 0.341031 0.140228
H66   H     H_    0.527100 0.449216 0.390168 0.139099
H67   H     H_    0.282803 0.072967 0.584104 0.126286
H68   H     H_    0.616630 0.428338 0.416735 0.134604
H69   H     H_    0.098697 0.925824 0.579202 0.186766
H70   H     H_    0.048414 0.987842 0.509142 0.117060
H71   H     H_    0.003219 0.925746 0.581306 0.158302
H72   H     H_    0.084750 0.849730 0.341031 0.140227
H73   H     H_    0.027100 0.949216 0.390168 0.139099
H74   H     H_    0.116630 0.928338 0.416735 0.134604
H75   H     H_    0.565730 0.871643 0.437715 0.133945
H76   H     H_    0.475178 0.891501 0.410964 0.151209
H77   H     H_    0.546872 0.946699 0.356259 0.144254
H78   H     H_    0.835380 0.025498 0.433441 0.151254
H79   H     H_    0.486783 0.871379 0.533967 0.116254
H80   H     H_    0.558012 0.906060 0.591760 0.210179
H81   H     H_    0.469792 0.964788 0.606768 0.149467
H82   H     H_    0.065731 0.371643 0.437715 0.133944
H83   H     H_    0.975179 0.391500 0.410964 0.151209
H84   H     H_    0.046872 0.446700 0.356259 0.144255
H85   H     H_    0.986784 0.371378 0.533967 0.116254
H86   H     H_    0.058013 0.406060 0.591760 0.210181
H87   H     H_    0.969793 0.464787 0.606768 0.149466
H88   H     H_    0.513399 0.273466 0.059107 0.097174
O1    O     O_R   0.784320 0.290430 0.830510 -0.523107
O2    O     O_R   0.456080 0.282180 0.333210 -0.525698
O3    O     O_R   0.043920 0.782180 0.666790 -0.523590
O4    O     O_R   0.956080 0.782180 0.333210 -0.525698
O5    O     O_R   0.679040 0.374160 0.674430 -0.518725
O6    O     O_R   0.320960 0.374160 0.325570 -0.494954
O7    O     O_R   0.179040 0.874160 0.674430 -0.518725
O8    O     O_R   0.820960 0.874160 0.325570 -0.494956
O9    O     O_3   0.665350 0.165340 0.749070 -0.262295
O10   O     O_3   0.334650 0.165340 0.250930 -0.242467
O11   O     O_3   0.165350 0.665340 0.749070 -0.262294
O12   O     O_R   0.215680 0.290430 0.169490 -0.534154
O13   O     O_3   0.834650 0.665340 0.250930 -0.242464
O14   O     O_R   0.762640 0.040960 0.825200 -0.506993
O15   O     O_R   0.237360 0.040960 0.174800 -0.518754
O16   O     O_R   0.262640 0.540960 0.825200 -0.506991
O17   O     O_R   0.737360 0.540960 0.174800 -0.518751
O18   O     O_R   0.667400 0.923970 0.829950 -0.524770
O19   O     O_R   0.332600 0.923970 0.170050 -0.529651
O20   O     O_R   0.167400 0.423970 0.829950 -0.524775
O21   O     O_R   0.832600 0.423970 0.170050 -0.529652
O22   O     O_R   0.553960 0.081340 0.821780 -0.485409
O23   O     O_R   0.284320 0.790430 0.830510 -0.523107
O24   O     O_R   0.446040 0.081340 0.178220 -0.502558
O25   O     O_R   0.053960 0.581340 0.821780 -0.485408
O26   O     O_R   0.946040 0.581340 0.178220 -0.502559
O27   O     O_R   0.543180 0.283240 0.826740 -0.524243
O28   O     O_R   0.456820 0.283240 0.173260 -0.536396
O29   O     O_R   0.043180 0.783240 0.826740 -0.524243
O30   O     O_R   0.956820 0.783240 0.173260 -0.536392
O31   O     O_R   0.678360 0.375140 0.822710 -0.511945
O32   O     O_R   0.321640 0.375140 0.177290 -0.503558
O33   O     O_R   0.178360 0.875140 0.822710 -0.511945
O34   O     O_R   0.715680 0.790430 0.169490 -0.534154
O35   O     O_R   0.821640 0.875140 0.177290 -0.503555
O36   O     O_R   0.785050 0.289380 0.670560 -0.514289
O37   O     O_R   0.214950 0.289380 0.329440 -0.531528
O38   O     O_R   0.285050 0.789380 0.670560 -0.514289
O39   O     O_R   0.714950 0.789380 0.329440 -0.531529
O40   O     O_R   0.763320 0.039990 0.676930 -0.510348
O41   O     O_R   0.236680 0.039990 0.323070 -0.510789
O42   O     O_R   0.263320 0.539990 0.676930 -0.510349
O43   O     O_R   0.736680 0.539990 0.323070 -0.510788
O44   O     O_R   0.668130 0.922920 0.670000 -0.513791
O45   O     O_R   0.554640 0.080370 0.673500 -0.510396
O46   O     O_R   0.331870 0.922920 0.330000 -0.510018
O47   O     O_R   0.168130 0.422920 0.670000 -0.513791
O48   O     O_R   0.831870 0.422920 0.330000 -0.510019
O49   O     O_3   0.720481 0.215998 0.406436 -0.718649
O50   O     O_3   0.169425 0.233746 0.581322 -0.720072
O51   O     O_3   0.220481 0.715998 0.406436 -0.718649
O52   O     O_3   0.669426 0.733746 0.581322 -0.720073
O53   O     O_R   0.445360 0.080370 0.326500 -0.505384
O54   O     O_R   0.054640 0.580370 0.673500 -0.510396
O55   O     O_R   0.945360 0.580370 0.326500 -0.505384
O56   O     O_R   0.543920 0.282180 0.666790 -0.523591

loop_
_geom_bond_atom_site_label_1
_geom_bond_atom_site_label_2
_ccdc_geom_bond_type
C44   C49   A    
C70   H78   S    
Cr2   O32   S    
C21   C26   A    
C71   C88   S    
C94   H88   S    
Cr8   O9    S    
Cr9   O19   S    
C6    H55   S    
C79   O40   A    
C91   C105  A    
C66   H45   S    
C5    C23   S    
C17   C91   A    
C59   C82   S    
C21   H13   S    
Cr4   O4    S    
C13   C25   S    
Cr6   O11   S    
C53   O27   A    
Cr8   O44   S    
C97   C98   S    
C110  H38   S    
C5    H53   S    
C57   C62   A    
C76   O12   A    
C19   H10   S    
C99   C108  S    
C90   O38   A    
Cr10  O54   S    
C81   O46   A    
C33   C39   A    
Cr1   O40   S    
C89   O37   A    
C7    H60   S    
C80   C104  A    
C50   C59   A    
C64   C68   A    
C56   O26   A    
C16   H85   S    
C76   O32   A    
Cr7   O34   S    
C73   C90   S    
C38   C42   A    
Cr7   O39   S    
C52   C61   A    
C10   H70   S    
C107  H21   S    
C9    H65   S    
C3    H48   S    
C92   O39   A    
Cr10  O25   S    
C58   H5    S    
Cr8   O45   S    
C112  H44   S    
C96   C99   D    
C45   H15   S    
C49   C57   A    
C88   O5    A    
C84   O56   A    
C18   H9    S    
C103  C111  S    
C67   C72   A    
C18   C102  A    
C74   C92   S    
C92   O8    A    
Cr2   O2    S    
C86   O3    A    
Cr6   O42   S    
C9    C32   S    
Cr8   O22   S    
C89   O6    A    
Cr11  O21   S    
Cr5   O41   S    
Cr6   O23   S    
Cr5   O15   S    
C46   H16   S    
C20   C24   A    
H35   O52   S    
C4    H51   S    
C14   H80   S    
C70   C74   A    
C44   H14   S    
C79   O44   A    
C57   C83   S    
C37   C84   S    
C111  H41   S    
Cr1   O1    S    
Cr4   O8    S    
C9    H68   S    
C109  H29   S    
C15   H84   S    
C36   O20   A    
Cr9   O46   S    
Cr11  O26   S    
Cr3   O33   S    
Cr11  O13   S    
C82   O47   A    
C13   C80   A    
C6    C24   S    
C100  C109  S    
C36   O16   A    
C47   C102  S    
C4    H50   S    
C45   C72   A    
C37   C41   A    
Cr3   O7    S    
Cr5   O10   S    
C27   C101  A    
Cr2   O6    S    
C27   C75   S    
C95   H4    S    
C110  H37   S    
C60   C64   A    
C106  H18   S    
Cr4   O30   S    
C69   C103  A    
C8    H63   S    
Cr3   O29   S    
C33   C34   A    
C52   O52   S    
C63   C67   A    
C62   C66   A    
C6    H57   S    
C53   C93   S    
C32   C35   A    
C85   O53   A    
C84   O45   A    
C106  H19   S    
C109  H28   S    
C111  H39   S    
C11   H72   S    
C55   C95   S    
Cr6   O38   S    
C10   H69   S    
Cr8   O18   S    
C104  C112  S    
C107  H22   S    
C49   O49   S    
C95   C100  D    
C69   H6    S    
C39   C43   A    
C91   H8    S    
C68   H67   S    
C8    H62   S    
C68   C73   A    
C12   H77   S    
C112  H43   S    
C51   O51   S    
C46   C51   A    
Cr12  O56   S    
C17   C21   A    
C98   C107  S    
C31   C37   A    
C29   C104  A    
C83   O43   A    
C44   C71   A    
C30   C78   S    
C12   C40   S    
C19   C23   A    
C11   H73   S    
C66   C71   A    
C48   C74   A    
C88   O36   A    
C108  H27   S    
C4    C22   S    
C60   C81   S    
C25   O15   A    
C31   C32   A    
C3    C105  S    
C1    O14   A    
Cr9   O10   S    
Cr9   O24   S    
C112  H42   S    
C14   H79   S    
C78   O35   A    
C12   H76   S    
Cr3   O3    S    
C83   O48   A    
C58   C101  A    
C23   C28   A    
C55   O25   A    
Cr12  O31   S    
C106  H20   S    
C109  H30   S    
C7    C26   S    
C16   C43   S    
Cr1   O9    S    
C90   O7    A    
C77   O23   A    
C108  H26   S    
C97   C106  S    
Cr2   O10   S    
C40   C41   A    
H33   O51   S    
C6    H58   S    
C1    O18   A    
C4    H49   S    
C14   C41   S    
C64   H23   S    
C22   C27   A    
C5    H52   S    
H32   O50   S    
C42   C43   A    
C86   O54   A    
C87   O4    A    
Cr9   O53   S    
C9    H66   S    
C2    C69   A    
C24   C29   A    
C110  H36   S    
Cr7   O13   S    
Cr2   O28   S    
C10   C33   S    
C50   O50   S    
Cr4   O35   S    
C2    C36   S    
Cr12  O27   S    
C56   O30   A    
Cr12  O5    S    
C25   O19   A    
Cr5   O37   S    
C55   O29   A    
C13   C20   A    
C2    C19   A    
C34   C38   A    
C8    C31   S    
C1    C17   S    
C7    H61   S    
C11   C34   S    
C111  H40   S    
C15   C42   S    
C65   H34   S    
Cr7   O43   S    
C62   H1    S    
C61   C65   A    
C3    H46   S    
C26   C30   A    
C54   O24   A    
C47   O17   A    
C67   H56   S    
Cr11  O48   S    
Cr1   O36   S    
Cr10  O20   S    
Cr4   O13   S    
Cr7   O17   S    
C59   C63   A    
C94   C97   D    
C99   C100  S    
C7    H59   S    
C38   C87   S    
Cr10  O11   S    
Cr6   O16   S    
C63   H12   S    
C18   C22   A    
C35   C40   A    
C101  C110  S    
C11   H74   S    
C54   O28   A    
C30   C105  A    
C10   H71   S    
C107  H24   S    
C35   C85   S    
C28   C103  A    
C3    H47   S    
Cr1   O14   S    
C45   C50   A    
C61   C79   S    
C58   C102  A    
C93   C98   D    
C16   H86   S    
C78   O34   A    
C12   H75   S    
C75   O1    A    
C48   H17   S    
C16   H87   S    
C77   O33   A    
C20   H11   S    
C56   C96   S    
C93   H2    S    
C5    H54   S    
C54   C94   S    
C15   H82   S    
C75   O31   A    
Cr3   O11   S    
C108  H25   S    
H31   O49   S    
Cr11  O55   S    
Cr10  O47   S    
C48   C52   A    
C29   C77   S    
Cr12  O9    S    
C96   H3    S    
C14   H81   S    
C80   H7    S    
C82   O42   A    
Cr5   O12   S    
C72   C89   S    
C51   C60   A    
C39   C86   S    
C81   O41   A    
C85   O2    A    
C53   O22   A    
C8    H64   S    
C46   C73   A    
C15   H83   S    
C65   C70   A    
C87   O55   A    
C47   O21   A    
C28   C76   S    
