data_mof_unit_49095.cif
_audit_creation_date              2012-10-26T18:54:56-0400
_audit_creation_method            fapswitch 2.2
_symmetry_space_group_name_H-M    P1
_symmetry_Int_Tables_number       1
_space_group_crystal_system       triclinic
_cell_length_a                    10.8467
_cell_length_b                    9.520707
_cell_length_c                    10.89238
_cell_angle_alpha                 89.999482
_cell_angle_beta                  89.993733
_cell_angle_gamma                 89.995673
_cell_volume                      1124.83703946

loop_
_atom_site_label
_atom_site_type_symbol
_atom_type_description
_atom_site_fract_x
_atom_site_fract_y
_atom_site_fract_z
_atom_type_partial_charge
C1    C     C_R   0.262139 0.499325 0.507239 0.586076
C2    C     C_R   0.511297 0.619432 0.939066 0.017130
C3    C     C_R   0.490490 0.496967 0.129770 0.024564
C4    C     C_R   0.509437 0.496968 0.870231 0.024695
C5    C     C_R   0.496901 0.368785 0.064490 -0.095163
C6    C     C_R   0.503079 0.368786 0.935512 -0.095107
C7    C     C_3   0.519195 0.775494 0.931724 0.128840
C8    C     C_3   0.480695 0.775502 0.068286 0.128954
C9    C     C_R   0.061798 0.368245 0.518435 0.243716
C10   C     C_R   0.938241 0.368195 0.481832 0.243658
C11   C     C_R   0.872277 0.496606 0.487184 -0.028377
C12   C     C_R   0.737865 0.499311 0.492771 0.586044
C13   C     C_R   0.127732 0.496644 0.512850 -0.028397
C14   C     C_R   0.936376 0.623733 0.497328 -0.133819
C15   C     C_R   0.063613 0.623744 0.502493 -0.133823
C16   C     C_R   0.466275 0.074317 0.397774 0.069171
C17   C     C_R   0.533719 0.074309 0.602228 0.068743
C18   C     C_R   0.466345 0.925986 0.398117 0.026433
C19   C     C_R   0.533649 0.925979 0.601884 0.025866
C20   C     C_R   0.494997 0.499677 0.262598 0.575326
C21   C     C_R   0.504992 0.499676 0.737402 0.575456
C22   C     C_R   0.488496 0.619430 0.060930 0.017137
Cu1   Cu    Cu3+1 0.500000 0.640660 0.500000 1.027765
Cu2   Cu    Cu3+1 0.500000 0.359340 0.500000 1.106605
H1    H     H_    0.496947 0.268987 0.112188 0.179598
H2    H     H_    0.560746 0.870997 0.683045 0.183266
H3    H     H_    0.763049 0.028307 0.862609 0.401587
H4    H     H_    0.236575 0.028752 0.135970 0.401840
H5    H     H_    0.221862 0.030191 0.536373 0.358637
H6    H     H_    0.778824 0.029769 0.464754 0.358710
H7    H     H_    0.503115 0.268985 0.887819 0.179530
H8    H     H_    0.452381 0.823107 0.866719 0.150703
H9    H     H_    0.547546 0.823044 0.133286 0.150769
H10   H     H_    0.888575 0.723659 0.498100 0.189739
H11   H     H_    0.111395 0.723670 0.501547 0.189978
H12   H     H_    0.437833 0.129249 0.315822 0.162358
H13   H     H_    0.562159 0.129234 0.684181 0.162173
H14   H     H_    0.439239 0.871008 0.316960 0.183374
N1    N     N_R   0.500000 0.852070 0.500000 -0.263099
N2    N     N_R   0.500000 0.147940 0.500000 -0.223174
O1    O     O_R   0.319640 0.618740 0.499990 -0.502512
O2    O     O_2   0.731026 0.760046 0.800687 -0.275988
O3    O     O_3   0.678218 0.006506 0.890372 -0.544583
O4    O     O_2   0.247377 0.795348 0.978019 -0.227031
O5    O     O_2   0.268852 0.760279 0.199326 -0.275423
O6    O     O_3   0.321804 0.006665 0.109616 -0.544910
O7    O     O_2   0.208871 0.258640 0.694202 -0.266170
O8    O     O_2   0.019681 0.130775 0.647933 -0.206268
O9    O     O_3   0.198942 0.116329 0.490734 -0.482593
O10   O     O_2   0.791229 0.258081 0.306255 -0.265778
O11   O     O_2   0.980444 0.130390 0.352833 -0.206259
O12   O     O_R   0.680360 0.618740 0.500010 -0.502528
O13   O     O_3   0.801162 0.116348 0.510034 -0.482988
O14   O     O_R   0.319620 0.381170 0.499990 -0.431617
O15   O     O_R   0.680380 0.381170 0.500010 -0.431474
O16   O     O_R   0.499990 0.618810 0.319660 -0.508543
O17   O     O_R   0.500010 0.618810 0.680340 -0.508478
O18   O     O_R   0.499960 0.381240 0.319650 -0.516254
O19   O     O_R   0.500040 0.381240 0.680350 -0.516215
O20   O     O_2   0.752540 0.795149 0.021984 -0.226468
S1    S     S_3+6 0.676364 0.831535 0.911100 0.002716
S2    S     S_3+6 0.323560 0.831691 0.088906 0.002650
S3    S     S_3+6 0.122455 0.215893 0.592908 0.094620
S4    S     S_3+6 0.877636 0.215640 0.407658 0.094609

loop_
_geom_bond_atom_site_label_1
_geom_bond_atom_site_label_2
_ccdc_geom_bond_type
C14   H10   S    
C8    C22   S    
C1    O14   A    
C19   H2    S    
C21   O17   A    
C7    C8    S    
O9    S3    S    
O10   S4    D    
C9    C10   A    
C12   O12   A    
C2    C4    A    
C2    C7    S    
Cu1   O1    S    
C20   O16   A    
C10   S4    S    
C3    C5    A    
C6    H7    S    
C18   H14   S    
C3    C20   S    
C17   H13   S    
C2    C22   A    
C16   H12   S    
Cu2   O15   S    
C4    C21   S    
O2    S1    D    
H4    O6    S    
Cu1   O12   S    
C19   N1    A    
O6    S2    S    
Cu2   O19   S    
Cu1   N1    S    
C1    O1    A    
C17   C19   A    
C16   N2    A    
C21   O19   A    
C8    H9    S    
C13   C15   A    
O7    S3    D    
C5    C6    A    
H6    O13   S    
C5    H1    S    
C4    C6    A    
C1    C13   S    
C10   C11   A    
Cu1   Cu2   S    
Cu2   O14   S    
C12   O15   A    
Cu2   O18   S    
H3    O3    S    
O5    S2    D    
Cu1   O16   S    
O3    S1    S    
C16   C18   A    
C15   H11   S    
C11   C14   A    
Cu1   O17   S    
C18   N1    A    
C9    C13   A    
C14   C15   A    
Cu2   N2    S    
C3    C22   A    
H5    O9    S    
C7    H8    S    
O4    S2    D    
C9    S3    S    
C20   O18   A    
O13   S4    S    
C7    S1    S    
O11   S4    D    
C11   C12   S    
C8    S2    S    
O20   S1    D    
O8    S3    D    
C17   N2    A    
