data_mof_unit_16338.cif
_audit_creation_date              2012-12-10T17:49:39-0500
_audit_creation_method            fapswitch 2.2
_symmetry_space_group_name_H-M    P1
_symmetry_Int_Tables_number       1
_space_group_crystal_system       triclinic
_cell_length_a                    10.50137
_cell_length_b                    10.717329
_cell_length_c                    9.908931
_cell_angle_alpha                 90.700089
_cell_angle_beta                  90.592503
_cell_angle_gamma                 91.860452
_cell_volume                      1114.48145342

loop_
_atom_site_label
_atom_site_type_symbol
_atom_type_description
_atom_site_fract_x
_atom_site_fract_y
_atom_site_fract_z
_atom_type_partial_charge
C1    C     C_R   0.511556 0.260870 0.500108 0.864971
C2    C     C_3   0.961652 0.597259 0.437069 0.432072
C3    C     C_3   0.039097 0.495447 0.369663 -0.257306
C4    C     C_3   0.122807 0.498442 0.497896 -0.112623
C5    C     C_R   0.586891 0.121507 0.745818 -0.188439
C6    C     C_R   0.567635 0.065945 0.870764 0.440820
C7    C     C_R   0.498716 0.953259 0.877567 -0.162677
C8    C     C_R   0.460706 0.890742 0.758826 -0.175962
C9    C     C_R   0.491344 0.940875 0.630793 0.100347
C10   C     C_R   0.536093 0.064742 0.626028 0.028418
C11   C     C_R   0.523922 0.127898 0.502015 -0.070803
C12   C     C_R   0.257566 0.499068 0.499262 0.881017
C13   C     C_R   0.499039 0.062370 0.381623 -0.136709
C14   C     C_R   0.482464 0.935350 0.383447 -0.191072
C15   C     C_R   0.480594 0.873338 0.506664 -0.123043
C16   C     C_R   0.333356 0.335827 0.136600 -0.124546
C17   C     C_R   0.251598 0.254191 0.064701 -0.160682
C18   C     C_R   0.251368 0.253969 0.924992 -0.179890
C19   C     C_R   0.332797 0.335447 0.856349 -0.122776
C20   C     C_R   0.417488 0.419139 0.925818 0.106459
C21   C     C_R   0.417652 0.419204 0.070460 0.177825
C22   C     C_R   0.579361 0.576627 0.073984 -0.136944
C23   C     C_R   0.490168 0.739689 0.501589 0.909882
C24   C     C_R   0.579939 0.576528 0.931073 0.401946
C25   C     C_R   0.742417 0.499954 0.500761 0.991761
C26   C     C_3   0.040601 0.396457 0.564912 -0.218356
C27   C     C_3   0.954270 0.395295 0.438201 0.369429
C28   C     C_3   0.877220 0.498188 0.502346 -0.105060
C29   C     C_3   0.961886 0.500894 0.629657 -0.194519
C30   C     C_3   0.047292 0.602954 0.563210 -0.203581
H1    H     H_    0.477082 0.912460 0.974457 0.161248
H2    H     H_    0.404318 0.805436 0.769537 0.174986
H3    H     H_    0.470542 0.885957 0.287823 0.177835
H4    H     H_    0.644108 0.638982 0.130045 0.202183
H5    H     H_    0.327931 0.330766 0.243585 0.196953
H6    H     H_    0.187931 0.190833 0.117891 0.178698
H7    H     H_    0.187558 0.190369 0.869226 0.158710
H8    H     H_    0.326514 0.329675 0.749252 0.199725
H9    H     H_    0.077986 0.313623 0.616506 0.160995
H10   H     H_    0.926875 0.502613 0.734992 0.213215
H11   H     H_    0.089621 0.688564 0.612163 0.157814
H12   H     H_    0.073550 0.494113 0.264094 0.180996
H13   H     H_    0.490908 0.109090 0.285757 0.211556
H14   H     H_    0.642117 0.208423 0.743723 0.195720
N1    N     N_R   0.498800 0.498800 0.142780 -0.144455
N2    N     N_R   0.498760 0.498720 0.857170 -0.160179
O1    O     O_R   0.500000 0.316780 0.614690 -0.664628
O2    O     O_R   0.499990 0.316750 0.385360 -0.618439
O3    O     O_R   0.313960 0.499980 0.614650 -0.646280
O4    O     O_R   0.313940 0.499960 0.385310 -0.654938
O5    O     O_R   0.500010 0.683250 0.614640 -0.588699
O6    O     O_R   0.500000 0.683220 0.385310 -0.622737
O7    O     O_R   0.686060 0.500040 0.614690 -0.588192
O8    O     O_R   0.686040 0.500020 0.385350 -0.568863
Zn1   Zn    Zn3+2 0.500010 0.500020 0.653130 0.979311
Zn2   Zn    Zn3+2 0.499990 0.499980 0.346870 0.989864
Cl1   Cl    Cl    0.888119 0.258126 0.357622 -0.564358
Cl2   Cl    Cl    0.688772 0.677470 0.850517 -0.578250
O9    O     O_3   0.914416 0.701211 0.371635 -0.725812
H15   H     H_    0.990628 0.748497 0.339393 0.340432
Cl3   Cl    Cl    0.624583 0.140859 0.018899 -0.594369

loop_
_geom_bond_atom_site_label_1
_geom_bond_atom_site_label_2
_ccdc_geom_bond_type
N2    Zn1   S    
C8    C9    A    
C4    C26   S    
C1    O2    A    
C29   C30   S    
C17   H6    S    
C4    C12   S    
O4    Zn2   S    
C9    C10   A    
C23   O5    A    
C19   C20   A    
C1    C11   S    
C13   H13   S    
C2    C30   S    
C24   N2    A    
C14   H3    S    
C15   C23   S    
C12   O3    A    
C26   C27   S    
O1    Zn1   S    
O9    H15   S    
C3    H12   S    
O3    Zn1   S    
C13   C14   A    
C20   C21   A    
C25   C28   S    
C11   C13   A    
C23   O6    A    
C6    C7    A    
C21   N1    A    
C6    Cl3   S    
C3    C27   S    
C28   C29   S    
C19   H8    S    
C18   H7    S    
C25   O7    A    
C17   C18   A    
C2    C3    S    
O7    Zn1   S    
C16   H5    S    
C9    C15   A    
C5    C6    A    
C22   H4    S    
C22   C24   A    
C26   H9    S    
C30   H11   S    
C7    H1    S    
C10   C11   A    
C5    C10   A    
C3    C4    S    
C8    H2    S    
C16   C17   A    
C20   N2    A    
C7    C8    A    
C22   N1    A    
C25   O8    A    
C29   H10   S    
C26   C29   S    
C24   Cl2   S    
C18   C19   A    
C27   Cl1   S    
C27   C28   S    
O2    Zn2   S    
C12   O4    A    
C2    O9    S    
C1    O1    A    
C2    C28   S    
O5    Zn1   S    
C14   C15   A    
C16   C21   A    
C5    H14   S    
C4    C30   S    
O6    Zn2   S    
N1    Zn2   S    
O8    Zn2   S    
