data_mof_unit_22192.cif
_audit_creation_date              2012-10-26T21:24:49-0400
_audit_creation_method            fapswitch 2.2
_symmetry_space_group_name_H-M    P1
_symmetry_Int_Tables_number       1
_space_group_crystal_system       triclinic
_cell_length_a                    9.542498
_cell_length_b                    10.826767
_cell_length_c                    15.425656
_cell_angle_alpha                 90.08912
_cell_angle_beta                  74.202903
_cell_angle_gamma                 89.806316
_cell_volume                      1533.48768064

loop_
_atom_site_label
_atom_site_type_symbol
_atom_type_description
_atom_site_fract_x
_atom_site_fract_y
_atom_site_fract_z
_atom_type_partial_charge
C1    C     C_R   0.999651 0.262348 0.501238 0.549237
C2    C     C_R   0.237354 0.593544 0.050753 -0.003929
C3    C     C_R   0.333273 0.540317 0.096265 0.036416
C4    C     C_R   0.918138 0.499826 0.672498 0.541114
C5    C     C_R   0.090678 0.614112 0.096295 -0.169000
C6    C     C_R   0.037751 0.581278 0.186453 -0.191164
C7    C     C_R   0.271435 0.488089 0.182017 0.294446
C8    C     C_R   0.124098 0.063054 0.504618 0.002217
C9    C     C_R   0.996636 0.129253 0.508856 0.009458
C10   C     C_R   0.864502 0.064847 0.523682 -0.160643
C11   C     C_R   0.864594 0.936103 0.522686 -0.162897
C12   C     C_R   0.680331 0.529087 0.911431 0.017410
C13   C     C_R   0.996809 0.870799 0.506510 0.030639
C14   C     C_R   0.124518 0.936018 0.502042 0.050235
C15   C     C_3   0.271763 0.931152 0.435233 -0.038267
C16   C     C_R   0.999614 0.737631 0.500394 0.548567
C17   C     C_3   0.271456 0.071706 0.439223 -0.222614
C18   C     C_R   0.560569 0.601207 0.528246 0.157502
C19   C     C_R   0.592255 0.406242 0.460379 -0.000705
C20   C     C_R   0.443451 0.406407 0.460182 0.021233
C21   C     C_R   0.413326 0.601162 0.528116 0.149629
C22   C     C_3   0.365577 0.658591 0.619192 -0.280746
C23   C     C_R   0.783149 0.505958 0.960534 -0.004416
C24   C     C_3   0.524296 0.657793 0.619955 -0.280591
C25   C     C_R   0.082031 0.501426 0.327762 0.563843
C26   C     C_R   0.874013 0.502179 0.771627 -0.001819
C27   C     C_R   0.128281 0.519449 0.230000 -0.006121
C28   C     C_R   0.930069 0.484947 0.915114 -0.139244
C29   C     C_R   0.975609 0.484751 0.821234 -0.135132
C30   C     C_R   0.727629 0.522300 0.817023 -0.121599
C31   C     C_3   0.320885 0.283671 0.187072 -0.118139
C32   C     C_3   0.560536 0.668991 0.212400 -0.114538
C33   C     C_R   0.532803 0.554244 0.958062 -0.022438
C34   C     C_R   0.485612 0.536933 0.052877 0.031165
C35   C     C_R   0.593397 0.525990 0.100880 0.298762
C36   C     C_R   0.738983 0.506707 0.054320 -0.126949
C37   C     C_R   0.432476 0.601356 0.913573 -0.139425
C38   C     C_R   0.288640 0.624965 0.960188 -0.138196
Cu1   Cu    Cu3+1 0.140670 0.499980 0.500000 0.956736
Cu2   Cu    Cu3+1 0.859330 0.500020 0.500000 0.934013
H1    H     H_    0.818046 0.494050 0.092361 0.126894
H2    H     H_    0.320867 0.753127 0.617024 0.121342
H3    H     H_    0.296310 0.596373 0.670432 0.145523
H4    H     H_    0.570445 0.751868 0.619659 0.116050
H5    H     H_    0.545665 0.594213 0.671065 0.140146
H6    H     H_    0.926764 0.605293 0.222263 0.147637
H7    H     H_    0.216217 0.665063 0.924466 0.112039
H8    H     H_    0.009752 0.468492 0.952211 0.115827
H9    H     H_    0.089561 0.468718 0.787640 0.121878
H10   H     H_    0.650963 0.528480 0.777585 0.111733
H11   H     H_    0.464180 0.627873 0.843607 0.102201
H12   H     H_    0.018078 0.658914 0.062845 0.118649
H13   H     H_    0.262290 0.788962 0.349883 0.250690
H14   H     H_    0.364908 0.907489 0.300772 0.211252
H15   H     H_    0.382738 0.214569 0.215007 0.135086
H16   H     H_    0.359647 0.277348 0.112282 0.111136
H17   H     H_    0.203450 0.259163 0.210980 0.103276
H18   H     H_    0.475230 0.718759 0.189121 0.109634
H19   H     H_    0.669367 0.710659 0.182167 0.095451
H20   H     H_    0.534936 0.681134 0.286516 0.143404
H21   H     H_    0.762138 0.113343 0.532248 0.129214
H22   H     H_    0.762324 0.888459 0.530802 0.123945
H23   H     H_    0.357061 0.886217 0.461426 0.118959
H24   H     H_    0.353658 0.108640 0.471395 0.094662
H25   H     H_    0.268791 0.118180 0.375403 0.152687
H26   H     H_    0.661171 0.329277 0.430556 0.117263
H27   H     H_    0.401506 0.330018 0.429808 0.128502
N1    N     N_R   0.648210 0.500930 0.499430 -0.231582
N2    N     N_R   0.352300 0.500890 0.499430 -0.232954
N3    N     N_3   0.266004 0.885358 0.347065 -0.631674
O1    O     O_R   0.118810 0.319640 0.500000 -0.507823
O2    O     O_3   0.561126 0.541625 0.193206 -0.511025
O3    O     O_R   0.881230 0.319680 0.499990 -0.514771
O4    O     O_R   0.055580 0.499970 0.629840 -0.506486
O5    O     O_R   0.818000 0.500010 0.629830 -0.506135
O6    O     O_R   0.118770 0.680320 0.500010 -0.511076
O7    O     O_R   0.881190 0.680360 0.500000 -0.507559
O8    O     O_R   0.182000 0.499990 0.370170 -0.445922
O9    O     O_R   0.944420 0.500030 0.370160 -0.506806
O10   O     O_3   0.346872 0.401667 0.218008 -0.505315

loop_
_geom_bond_atom_site_label_1
_geom_bond_atom_site_label_2
_ccdc_geom_bond_type
C18   C21   A    
C20   H27   S    
C35   C36   A    
C32   H18   S    
C11   H22   S    
C31   O10   S    
C32   O2    S    
C29   H9    S    
C12   C23   A    
C1    O1    A    
C18   C24   S    
C24   H5    S    
C28   C29   A    
C34   C35   A    
C3    C7    A    
C17   H24   S    
C5    C6    A    
C37   H11   S    
C18   N1    A    
C7    C27   A    
Cu2   O3    S    
C19   H26   S    
C16   O7    A    
Cu1   O4    S    
C4    O5    A    
C19   C20   A    
C8    C9    A    
C5    H12   S    
C31   H16   S    
C9    C10   A    
C4    O4    A    
C30   H10   S    
C25   O9    A    
C13   C14   A    
C36   H1    S    
H13   N3    S    
C25   O8    A    
Cu1   O8    S    
C1    C9    S    
Cu1   Cu2   S    
C3    C34   A    
C23   C28   A    
C33   C37   A    
C21   N2    A    
C37   C38   A    
C2    C38   A    
C6    C27   A    
H14   N3    S    
C33   C34   A    
Cu1   N2    S    
Cu2   O9    S    
C19   N1    A    
Cu1   O6    S    
C38   H7    S    
C35   O2    S    
C26   C30   A    
C24   H4    S    
C22   C24   S    
C20   N2    A    
C10   H21   S    
C32   H20   S    
C15   C17   S    
C15   N3    S    
C28   H8    S    
C8    C14   A    
C6    H6    S    
C12   C30   A    
C16   O6    A    
C4    C26   S    
C25   C27   S    
C17   H25   S    
C8    C17   S    
Cu2   O5    S    
C15   H23   S    
C1    O3    A    
C31   H17   S    
C2    C3    A    
C11   C13   A    
C22   H2    S    
Cu2   O7    S    
C10   C11   A    
C2    C5    A    
C26   C29   A    
C23   C36   A    
Cu2   N1    S    
C13   C16   S    
Cu1   O1    S    
C14   C15   S    
C32   H19   S    
C31   H15   S    
C12   C33   A    
C21   C22   S    
C22   H3    S    
C7    O10   S    
