data_mof_unit_42707.cif
_audit_creation_date              2012-12-11T16:44:17-0500
_audit_creation_method            fapswitch 2.2
_symmetry_space_group_name_H-M    P1
_symmetry_Int_Tables_number       1
_space_group_crystal_system       triclinic
_cell_length_a                    27.350575
_cell_length_b                    7.18314
_cell_length_c                    22.739149
_cell_angle_alpha                 89.99929
_cell_angle_beta                  101.621399
_cell_angle_gamma                 90.001486
_cell_volume                      4375.82027309

loop_
_atom_site_label
_atom_site_type_symbol
_atom_type_description
_atom_site_fract_x
_atom_site_fract_y
_atom_site_fract_z
_atom_type_partial_charge
O1    O     O_R   0.707300 0.594030 0.176840 -0.531358
O2    O     O_R   0.292700 0.405970 0.823160 -0.530654
O3    O     O_R   0.792700 0.094030 0.323160 -0.531352
O4    O     O_R   0.207300 0.905970 0.676840 -0.530649
O5    O     O_R   0.697330 0.262360 0.295660 -0.542058
O6    O     O_R   0.302670 0.737640 0.704340 -0.543257
O7    O     O_R   0.802670 0.762360 0.204340 -0.542058
O8    O     O_R   0.197330 0.237640 0.795660 -0.543232
C1    C     C_R   0.684047 0.433621 0.310834 0.688495
C2    C     C_R   0.314879 0.566715 0.687422 0.687876
C3    C     C_R   0.815956 0.933623 0.189172 0.688501
C4    C     C_R   0.185117 0.066711 0.812573 0.687869
O9    O     O_R   0.701410 0.264250 0.175600 -0.536505
O10   O     O_R   0.298590 0.735750 0.824400 -0.537381
O11   O     O_R   0.798590 0.764250 0.324400 -0.536533
O12   O     O_R   0.201410 0.235750 0.675600 -0.537401
O13   O     O_R   0.796800 0.094950 0.202240 -0.533222
O14   O     O_R   0.203200 0.905050 0.797760 -0.532083
O15   O     O_R   0.703200 0.594950 0.297760 -0.533230
O16   O     O_R   0.296800 0.405050 0.702240 -0.532079
C5    C     C_R   0.689603 0.433042 0.153477 0.729246
C6    C     C_R   0.310501 0.566673 0.846612 0.729488
C7    C     C_R   0.810400 0.933047 0.346521 0.729207
C8    C     C_R   0.189500 0.066670 0.653386 0.729445
O17   O     O_3   0.781290 0.427390 0.258880 -0.373554
O18   O     O_3   0.218710 0.572610 0.741120 -0.373768
O19   O     O_3   0.718710 0.927390 0.241120 -0.373539
O20   O     O_3   0.281290 0.072610 0.758880 -0.373761
V1    V     V_3+5 0.744190 0.152150 0.248350 1.392855
V2    V     V_3+5 0.255810 0.847850 0.751650 1.389679
V3    V     V_3+5 0.755810 0.652150 0.251650 1.392814
V4    V     V_3+5 0.244190 0.347850 0.748350 1.389658
C9    C     C_R   0.153455 0.054647 0.594893 -0.093255
C10   C     C_R   0.845006 0.943305 0.405815 -0.088480
C11   C     C_R   0.346565 0.554696 0.905090 -0.093189
C12   C     C_R   0.654997 0.443243 0.094184 -0.088436
C13   C     C_R   0.136995 0.028555 0.485208 0.158265
C14   C     C_R   0.858626 0.965133 0.515300 0.156006
C15   C     C_R   0.363051 0.529612 0.014796 0.158285
C16   C     C_R   0.641371 0.463997 0.984679 0.156022
C17   C     C_R   0.170718 0.016430 0.541369 0.105590
C18   C     C_R   0.825534 0.960563 0.458667 0.106677
C19   C     C_R   0.329313 0.517048 0.958658 0.105574
C20   C     C_R   0.674468 0.459795 0.041312 0.106646
C21   C     C_R   0.101304 0.070178 0.592806 0.067419
C22   C     C_R   0.897405 0.946424 0.409241 0.065578
C23   C     C_R   0.398717 0.569904 0.907135 0.067482
C24   C     C_R   0.602602 0.446777 0.090766 0.065653
C25   C     C_R   0.067059 0.047110 0.536712 0.015032
C26   C     C_R   0.930338 0.973872 0.466132 0.013588
C27   C     C_R   0.432968 0.547219 0.963240 0.015019
C28   C     C_R   0.569673 0.473862 0.033853 0.013562
C29   C     C_R   0.085932 0.070052 0.483643 0.043118
C30   C     C_R   0.910873 0.944607 0.518651 0.042407
C31   C     C_R   0.414118 0.570862 0.016296 0.043129
C32   C     C_R   0.589117 0.443844 0.981360 0.042402
C33   C     C_R   0.014961 0.003665 0.530281 0.035291
C34   C     C_R   0.982065 0.024117 0.473481 0.036673
C35   C     C_R   0.485051 0.503520 0.969696 0.035271
C36   C     C_R   0.517965 0.524396 0.026465 0.036653
C37   C     C_R   0.001020 0.111280 0.427548 -0.195732
C38   C     C_R   0.995951 0.919791 0.576654 -0.197200
C39   C     C_R   0.499049 0.612216 0.072313 -0.195707
C40   C     C_R   0.504024 0.418997 0.923403 -0.197178
C41   C     C_R   0.052373 0.132294 0.431375 0.158488
C42   C     C_R   0.944714 0.891808 0.572074 0.160447
C43   C     C_R   0.447704 0.633510 0.068483 0.158470
C44   C     C_R   0.555249 0.390682 0.928001 0.160434
H1    H     H_    0.975931 0.166207 0.388493 0.154485
H2    H     H_    0.021072 0.869207 0.616365 0.154632
H3    H     H_    0.524163 0.667424 0.111300 0.154507
H4    H     H_    0.478878 0.368147 0.883751 0.154650
C45   C     C_R   0.882783 0.116141 0.148087 0.146479
C46   C     C_R   0.138080 0.884657 0.881661 0.160117
C47   C     C_R   0.617247 0.616151 0.351960 0.146516
C48   C     C_R   0.361889 0.384684 0.618307 0.160157
C49   C     C_R   0.916295 0.125130 0.108710 -0.140852
C50   C     C_R   0.100553 0.878159 0.915566 -0.139570
C51   C     C_R   0.583733 0.625104 0.391335 -0.140823
C52   C     C_R   0.399420 0.378168 0.584407 -0.139583
H5    H     H_    0.936653 0.252745 0.105006 0.111843
H6    H     H_    0.093137 0.747026 0.935529 0.105613
H7    H     H_    0.563388 0.752721 0.395061 0.111830
H8    H     H_    0.406823 0.247041 0.564434 0.105618
C53   C     C_R   0.924959 0.970786 0.074883 0.049782
C54   C     C_R   0.072531 0.035673 0.923987 0.054570
C55   C     C_R   0.575049 0.470738 0.425135 0.049771
C56   C     C_R   0.427459 0.535655 0.576003 0.054560
C57   C     C_R   0.899913 0.803676 0.080671 -0.150329
C58   C     C_R   0.081497 0.201852 0.895123 -0.147954
C59   C     C_R   0.600082 0.303639 0.419325 -0.150313
C60   C     C_R   0.418505 0.701828 0.604877 -0.147942
H9    H     H_    0.906557 0.682109 0.055191 0.117928
H10   H     H_    0.061114 0.327478 0.900815 0.112177
H11   H     H_    0.593426 0.182059 0.444788 0.117930
H12   H     H_    0.438900 0.827438 0.599195 0.112182
C61   C     C_R   0.865152 0.793265 0.118186 -0.206476
C62   C     C_R   0.117459 0.209251 0.858938 -0.206262
C63   C     C_R   0.634844 0.293253 0.381812 -0.206560
C64   C     C_R   0.382541 0.709242 0.641059 -0.206249
H13   H     H_    0.845223 0.663818 0.119827 0.134207
H14   H     H_    0.122401 0.339042 0.836756 0.136479
H15   H     H_    0.654766 0.163814 0.380158 0.134246
H16   H     H_    0.377608 0.839028 0.663247 0.136462
C65   C     C_R   0.855375 0.948328 0.152053 -0.059012
C66   C     C_R   0.146621 0.052502 0.851418 -0.064932
C67   C     C_R   0.644634 0.448327 0.347962 -0.058992
C68   C     C_R   0.353367 0.552512 0.648567 -0.064910
C69   C     C_R   0.005182 0.877205 0.047033 -0.150732
C70   C     C_R   0.990671 0.131053 0.951702 -0.150344
C71   C     C_R   0.494816 0.377179 0.452967 -0.150728
C72   C     C_R   0.509333 0.630972 0.548313 -0.150340
H17   H     H_    0.011633 0.780229 0.084285 0.115169
H18   H     H_    0.983440 0.227205 0.914333 0.108859
H19   H     H_    0.488362 0.280228 0.415709 0.115172
H20   H     H_    0.516567 0.727101 0.585687 0.108861
C73   C     C_R   0.041499 0.898054 0.012169 -0.156255
C74   C     C_R   0.954924 0.113559 0.987803 -0.155587
C75   C     C_R   0.458495 0.398041 0.487824 -0.156251
C76   C     C_R   0.545085 0.613466 0.512220 -0.155591
H21   H     H_    0.075350 0.816978 0.024370 0.108841
H22   H     H_    0.921655 0.199134 0.978328 0.113045
H23   H     H_    0.424637 0.317000 0.475611 0.108837
H24   H     H_    0.578360 0.699013 0.521705 0.113042
C77   C     C_R   0.034574 0.023061 0.963206 0.091984
C78   C     C_R   0.961675 0.984825 0.035264 0.085561
C79   C     C_R   0.465422 0.523023 0.536793 0.091986
C80   C     C_R   0.538331 0.484762 0.464751 0.085557
C81   C     C_3   0.068750 0.245656 0.382869 -0.795301
H25   H     H_    0.046210 0.375239 0.374785 0.210089
H26   H     H_    0.108247 0.290365 0.395828 0.223050
H27   H     H_    0.062919 0.164993 0.340382 0.208178
C82   C     C_3   0.929259 0.778107 0.621188 -0.792280
H28   H     H_    0.954880 0.657656 0.632834 0.207745
H29   H     H_    0.931225 0.864534 0.662066 0.208140
H30   H     H_    0.891420 0.717932 0.606951 0.223116
C83   C     C_3   0.431371 0.747556 0.116867 -0.795328
H31   H     H_    0.453911 0.877177 0.124749 0.210149
H32   H     H_    0.391871 0.792208 0.103900 0.223072
H33   H     H_    0.437238 0.667443 0.159464 0.208168
C84   C     C_3   0.570653 0.276273 0.879009 -0.792275
H34   H     H_    0.544995 0.155857 0.867515 0.207780
H35   H     H_    0.568697 0.362210 0.838028 0.208125
H36   H     H_    0.608476 0.216012 0.893296 0.223138
C85   C     C_3   0.916714 0.891496 0.353583 -0.793478
H37   H     H_    0.911627 0.008019 0.320846 0.190738
H38   H     H_    0.956261 0.846457 0.364067 0.220630
H39   H     H_    0.896043 0.768453 0.331878 0.210220
C86   C     C_3   0.084013 0.134886 0.648759 -0.792379
H40   H     H_    0.044682 0.182634 0.639196 0.218256
H41   H     H_    0.089189 0.022111 0.682856 0.193511
H42   H     H_    0.105923 0.258123 0.668173 0.213628
C87   C     C_3   0.583277 0.392597 0.146481 -0.793536
H43   H     H_    0.588401 0.509448 0.179093 0.190826
H44   H     H_    0.543715 0.347719 0.136043 0.220639
H45   H     H_    0.603910 0.269658 0.168316 0.210040
C88   C     C_3   0.416007 0.633902 0.851106 -0.792479
H46   H     H_    0.455352 0.681501 0.860605 0.218264
H47   H     H_    0.410792 0.520788 0.817125 0.193608
H48   H     H_    0.394125 0.757059 0.831570 0.213484
C89   C     C_3   0.769503 0.968866 0.455725 -0.764153
H49   H     H_    0.746713 0.940052 0.410604 0.187669
H50   H     H_    0.758670 0.863030 0.486309 0.210606
H51   H     H_    0.758859 0.109268 0.469166 0.206405
C90   C     C_3   0.224839 0.965006 0.542961 -0.782809
H52   H     H_    0.248377 0.963047 0.588515 0.204799
H53   H     H_    0.227086 0.822505 0.524924 0.212534
H54   H     H_    0.241636 0.065367 0.515622 0.211257
C91   C     C_3   0.730501 0.467703 0.044236 -0.764208
H55   H     H_    0.753289 0.439465 0.089399 0.187692
H56   H     H_    0.741296 0.361291 0.013811 0.210642
H57   H     H_    0.741188 0.607799 0.030578 0.206382
C92   C     C_3   0.275194 0.465752 0.957128 -0.782972
H58   H     H_    0.251666 0.463216 0.911569 0.204766
H59   H     H_    0.272949 0.323498 0.975357 0.212577
H60   H     H_    0.258394 0.566522 0.984332 0.211284
C93   C     C_3   0.154541 0.971545 0.428545 -0.774219
H61   H     H_    0.174023 0.835505 0.435067 0.210116
H62   H     H_    0.123326 0.948275 0.389970 0.216855
H63   H     H_    0.180285 0.078161 0.416654 0.208371
C94   C     C_3   0.838239 0.017817 0.570379 -0.776348
H64   H     H_    0.813578 0.141331 0.560697 0.210558
H65   H     H_    0.816631 0.900505 0.584148 0.207811
H66   H     H_    0.867966 0.060966 0.608545 0.217038
C95   C     C_3   0.345511 0.473322 0.071530 -0.774281
H67   H     H_    0.326036 0.337248 0.065172 0.210102
H68   H     H_    0.376724 0.450456 0.110135 0.216869
H69   H     H_    0.319761 0.580132 0.083290 0.208395
C96   C     C_3   0.661771 0.515868 0.929538 -0.776385
H70   H     H_    0.686463 0.639342 0.939074 0.210522
H71   H     H_    0.683348 0.398247 0.915908 0.207842
H72   H     H_    0.632055 0.558735 0.891320 0.217041
C97   C     C_3   0.878720 0.286366 0.185818 -0.733993
H73   H     H_    0.883413 0.246895 0.233843 0.202150
H74   H     H_    0.908047 0.390851 0.182689 0.185679
H75   H     H_    0.842146 0.355427 0.170079 0.218681
C98   C     C_3   0.168990 0.711120 0.881289 -0.764553
H76   H     H_    0.209048 0.747220 0.895520 0.212648
H77   H     H_    0.160656 0.603901 0.913094 0.188514
H78   H     H_    0.161421 0.647428 0.835918 0.223506
C99   C     C_3   0.621342 0.786448 0.314277 -0.734019
H79   H     H_    0.616607 0.747127 0.266240 0.202184
H80   H     H_    0.592061 0.891036 0.317474 0.185664
H81   H     H_    0.657941 0.855328 0.330005 0.218680
C100  C     C_3   0.330955 0.211188 0.618652 -0.764599
H82   H     H_    0.290901 0.247349 0.604420 0.212612
H83   H     H_    0.339280 0.103994 0.586835 0.188508
H84   H     H_    0.338513 0.147424 0.664013 0.223519

loop_
_geom_bond_atom_site_label_1
_geom_bond_atom_site_label_2
_ccdc_geom_bond_type
O17   V3    S    
C63   H15   S    
C24   C87   S    
C47   C67   A    
C90   H52   S    
C45   C97   S    
O19   V1    S    
C9    C21   A    
C91   H55   S    
O12   C8    A    
C2    C68   S    
C10   C18   A    
C60   H12   S    
C52   H8    S    
C11   C23   A    
C70   C74   A    
C95   H68   S    
C51   C55   A    
C85   H37   S    
C47   C99   S    
C18   C89   S    
C69   C73   A    
C33   C38   A    
C5    C12   S    
C100  H82   S    
O1    C5    A    
C6    C11   S    
C83   H32   S    
C35   C40   A    
C88   H46   S    
C14   C94   S    
C36   C39   A    
C40   C44   A    
O2    V4    S    
O9    V1    S    
C14   C18   A    
C56   C79   S    
C55   C59   A    
C86   H41   S    
O16   V4    S    
O4    C8    A    
C100  H84   S    
C22   C85   S    
O1    V3    S    
C25   C33   A    
C38   H2    S    
C71   C75   A    
C74   H22   S    
C32   C44   A    
C96   H71   S    
C73   H21   S    
C20   C91   S    
C72   C79   A    
C28   C36   A    
C85   H38   S    
O3    C7    A    
C1    O15   A    
C64   H16   S    
C15   C31   A    
C16   C96   S    
C56   C60   A    
C96   H72   S    
C2    O16   A    
C16   C32   A    
C17   C90   S    
C3    C65   S    
C82   H30   S    
C10   C22   A    
C21   C25   A    
C87   H44   S    
C11   C19   A    
O15   V3    S    
C70   H18   S    
C27   C31   A    
C69   H17   S    
C81   H27   S    
C13   C29   A    
C7    C10   S    
C34   C37   A    
O11   C7    A    
C49   C53   A    
C35   C36   A    
C48   C68   A    
C92   H58   S    
C54   C77   S    
C57   H9    S    
C91   H56   S    
C53   C78   S    
C90   H53   S    
C99   H80   S    
O10   V2    S    
C55   C80   S    
C89   H50   S    
C58   H10   S    
O5    V1    S    
C94   H65   S    
C83   H33   S    
C39   C43   A    
C64   C68   A    
O7    V3    S    
C38   C42   A    
O8    V4    S    
C24   C28   A    
C54   C58   A    
C86   H42   S    
C72   C76   A    
C53   C57   A    
O18   V4    S    
C95   H69   S    
C15   C19   A    
C93   H62   S    
C94   H64   S    
C57   C61   A    
C26   C34   A    
C98   H78   S    
O7    C3    A    
O5    C1    A    
C62   H14   S    
C41   C81   S    
C46   C66   A    
C42   C82   S    
C50   H6    S    
C31   C43   A    
C98   H76   S    
C14   C30   A    
C46   C98   S    
C49   H5    S    
O8    C4    A    
C93   H63   S    
C97   H74   S    
O9    C5    A    
C44   C84   S    
C26   C30   A    
C87   H45   S    
C92   H59   S    
O14   V2    S    
O6    V2    S    
C39   H3    S    
C98   H77   S    
C97   H73   S    
C90   H54   S    
C84   H34   S    
C82   H28   S    
C91   H57   S    
C84   H36   S    
C51   H7    S    
C27   C35   A    
C4    O14   A    
C72   H20   S    
C85   H39   S    
C29   C41   A    
C48   C100  S    
C60   C64   A    
C89   H51   S    
C81   H25   S    
C23   C88   S    
C92   H60   S    
C37   H1    S    
C3    O13   A    
C94   H66   S    
C48   C52   A    
O6    C2    A    
C23   C27   A    
C76   C80   A    
O11   V3    S    
C30   C42   A    
C75   H23   S    
C88   H48   S    
O12   V4    S    
C63   C67   A    
C83   H31   S    
C22   C26   A    
C8    C9    S    
C62   C66   A    
C99   H79   S    
C45   C65   A    
C9    C17   A    
O10   C6    A    
C84   H35   S    
C87   H43   S    
C61   C65   A    
C52   C56   A    
C89   H49   S    
O13   V1    S    
C97   H75   S    
C4    C66   S    
C19   C92   S    
C50   C54   A    
C95   H67   S    
C73   C77   A    
C25   C29   A    
O20   V2    S    
O2    C6    A    
C99   H81   S    
C12   C24   A    
C21   C86   S    
C40   H4    S    
C13   C17   A    
C96   H70   S    
C43   C83   S    
C61   H13   S    
C12   C20   A    
C76   H24   S    
C70   C77   A    
C59   H11   S    
C15   C95   S    
C37   C41   A    
C69   C78   A    
C16   C20   A    
C88   H47   S    
C93   H61   S    
C46   C50   A    
C13   C93   S    
C71   C80   A    
C82   H29   S    
C45   C49   A    
C1    C67   S    
O3    V1    S    
C71   H19   S    
C74   C78   A    
C59   C63   A    
C33   C34   A    
C86   H40   S    
C100  H83   S    
C47   C51   A    
C58   C62   A    
O4    V2    S    
C28   C32   A    
C81   H26   S    
C75   C79   A    
