data_mof_unit_25896.cif
_audit_creation_date              2012-12-10T17:32:15-0500
_audit_creation_method            fapswitch 2.2
_symmetry_space_group_name_H-M    P1
_symmetry_Int_Tables_number       1
_space_group_crystal_system       triclinic
_cell_length_a                    12.338635
_cell_length_b                    13.13053
_cell_length_c                    15.020619
_cell_angle_alpha                 77.430601
_cell_angle_beta                  100.53819
_cell_angle_gamma                 116.540139
_cell_volume                      2114.66513304

loop_
_atom_site_label
_atom_site_type_symbol
_atom_type_description
_atom_site_fract_x
_atom_site_fract_y
_atom_site_fract_z
_atom_type_partial_charge
C1    C     C_R   0.855121 0.286475 0.507263 0.780836
C2    C     C_R   0.954753 0.561399 0.074791 0.127466
C3    C     C_R   0.069807 0.339951 0.084981 -0.154834
C4    C     C_R   0.071611 0.341114 0.991934 0.151436
C5    C     C_R   0.033174 0.416065 0.925745 0.095299
C6    C     C_R   0.992757 0.488326 0.953927 0.040687
C7    C     C_R   0.952354 0.562478 0.888248 0.129614
C8    C     C_R   0.913268 0.634423 0.916321 -0.214877
C9    C     C_R   0.914921 0.634221 0.009121 -0.191501
C10   C     C_R   0.034457 0.421364 0.831896 -0.238835
C11   C     C_R   0.994942 0.495143 0.767504 -0.073601
C12   C     C_R   0.998908 0.499502 0.670812 0.801854
C13   C     C_R   0.952705 0.564454 0.795359 -0.259343
C14   C     C_R   0.277737 0.025765 0.380496 -0.174309
C15   C     C_R   0.228565 0.835734 0.468091 -0.050156
C16   C     C_R   0.814594 0.082417 0.562428 -0.172233
C17   C     C_R   0.735466 0.966632 0.578629 -0.147463
C18   C     C_R   0.612630 0.930114 0.547733 -0.188107
C19   C     C_R   0.566799 0.009069 0.496110 0.075889
C20   C     C_R   0.650797 0.124489 0.469895 0.079795
C21   C     C_R   0.440619 0.977004 0.468618 0.070231
C22   C     C_R   0.401952 0.056419 0.408070 0.151903
C23   C     C_R   0.145061 0.713710 0.486573 0.790971
C24   C     C_R   0.487795 0.164427 0.373853 -0.237120
C25   C     C_R   0.610418 0.197384 0.403075 -0.187411
C26   C     C_R   0.351294 0.868547 0.500261 -0.253153
C27   C     C_R   0.191371 0.915478 0.409789 -0.194440
C28   C     C_R   0.773193 0.162971 0.510394 -0.087397
C29   C     C_R   0.304162 0.282702 0.588840 -0.275318
C30   C     C_R   0.772515 0.661326 0.389377 0.064989
C31   C     C_R   0.683409 0.703537 0.369044 0.121332
C32   C     C_R   0.572708 0.640715 0.407466 -0.186506
C33   C     C_R   0.549543 0.535126 0.465588 -0.084857
C34   C     C_R   0.998625 0.496309 0.329529 0.855262
C35   C     C_R   0.644227 0.496254 0.486537 0.234353
C36   C     C_R   0.436621 0.466920 0.505734 -0.014965
C37   C     C_R   0.410613 0.351577 0.545748 0.130185
C38   C     C_R   0.496806 0.309375 0.550557 -0.253524
C39   C     C_R   0.618010 0.388860 0.546488 0.195301
C40   C     C_R   0.348385 0.507106 0.508820 0.053849
C41   C     C_R   0.224217 0.328752 0.593539 0.104563
C42   C     C_R   0.957547 0.562544 0.167305 -0.309617
C43   C     C_R   0.996450 0.489880 0.233573 -0.138756
C44   C     C_R   0.030871 0.412126 0.207628 0.325227
C45   C     C_R   0.031555 0.412491 0.113922 -0.013324
C46   C     C_R   0.993114 0.487295 0.047632 0.000469
Cu1   Cu    Cu3+1 0.098270 0.475420 0.521130 0.968988
Cu2   Cu    Cu3+1 0.901730 0.524580 0.478870 0.925906
H1    H     H_    0.930393 0.621325 0.187985 0.162599
H2    H     H_    0.460066 0.224039 0.324372 0.157055
H3    H     H_    0.247815 0.086063 0.334165 0.157153
H4    H     H_    0.374767 0.806836 0.549585 0.147231
H5    H     H_    0.908017 0.109198 0.592536 0.145989
H6    H     H_    0.556732 0.839068 0.563519 0.126874
H7    H     H_    0.768801 0.905079 0.618030 0.139166
H8    H     H_    0.672897 0.279764 0.370527 0.180851
H9    H     H_    0.140723 0.274741 0.625084 0.113010
H10   H     H_    0.477280 0.222376 0.585807 0.158376
H11   H     H_    0.284200 0.194560 0.620523 0.133783
H12   H     H_    0.358513 0.591780 0.475315 0.115313
H13   H     H_    0.858327 0.709885 0.359866 0.128101
H14   H     H_    0.504783 0.674329 0.388894 0.148153
H15   H     H_    0.100094 0.282453 0.134519 0.200319
H16   H     H_    0.065004 0.367619 0.807715 0.161002
H17   H     H_    0.922762 0.621735 0.744739 0.145855
H18   H     H_    0.882266 0.691452 0.866478 0.139039
H19   H     H_    0.885158 0.691150 0.029592 0.141188
H20   H     H_    0.096620 0.891281 0.384070 0.150761
N1    N     N_R   0.246280 0.438190 0.553160 -0.184777
N2    N     N_R   0.754320 0.561190 0.447410 -0.220025
O1    O     O_R   0.972510 0.318130 0.526570 -0.572087
O2    O     O_R   0.806530 0.359650 0.490890 -0.589442
O3    O     O_R   0.082980 0.479210 0.647590 -0.585076
O4    O     O_R   0.917000 0.520730 0.611900 -0.586835
O5    O     O_R   0.193470 0.640350 0.509110 -0.595137
O6    O     O_R   0.027490 0.681870 0.473430 -0.594277
O7    O     O_R   0.083000 0.479270 0.388100 -0.521518
O8    O     O_R   0.917020 0.520790 0.352410 -0.603163
Cl1   Cl    Cl    0.065216 0.309728 0.291790 -0.649197
C47   C     C_3   0.705749 0.815905 0.306980 -0.867756
H21   H     H_    0.797433 0.856189 0.282021 0.226597
H22   H     H_    0.636432 0.801293 0.246740 0.240538
H23   H     H_    0.699087 0.876596 0.344660 0.253358
C48   C     C_3   0.687479 0.382305 0.639738 -0.749328
H24   H     H_    0.731802 0.468280 0.661819 0.231717
H25   H     H_    0.626922 0.328032 0.694700 0.189018
H26   H     H_    0.748918 0.340967 0.641829 0.238816
C49   C     C_3   0.114873 0.261874 0.965374 -0.888278
H27   H     H_    0.041125 0.201847 0.922329 0.230453
H28   H     H_    0.195991 0.313352 0.926721 0.235451
H29   H     H_    0.140951 0.209126 0.026190 0.234371

loop_
_geom_bond_atom_site_label_1
_geom_bond_atom_site_label_2
_ccdc_geom_bond_type
C16   C28   A    
C21   C26   A    
C8    H18   S    
C40   H12   S    
C12   O4    A    
Cu2   O6    S    
C19   C20   A    
C25   H8    S    
C23   O6    A    
C7    C8    A    
C13   H17   S    
C45   C46   A    
C2    C46   A    
C1    O1    A    
C5    C6    A    
C36   C37   A    
C19   C21   A    
C48   H25   S    
C39   C48   S    
C34   O7    A    
C30   C31   A    
C31   C32   A    
C20   C25   A    
C33   C36   A    
C18   C19   A    
Cu2   O8    S    
C16   H5    S    
Cu1   N1    S    
C27   H20   S    
C38   H10   S    
C29   H11   S    
C35   N2    A    
C8    C9    A    
C1    C28   S    
C48   H26   S    
C14   C27   A    
C17   H7    S    
C15   C23   S    
C12   O3    A    
Cu2   O2    S    
C47   H23   S    
C30   N2    A    
C24   H2    S    
C1    O2    A    
C40   N1    A    
Cu2   O4    S    
C36   C40   A    
C24   C25   A    
Cu1   O3    S    
C47   H22   S    
Cu2   N2    S    
C16   C17   A    
C15   C26   A    
C20   C28   A    
C3    C45   A    
C35   C39   A    
C43   C44   A    
C9    H19   S    
C37   C38   A    
C26   H4    S    
C15   C27   A    
Cu1   Cu2   S    
C49   H29   S    
C7    C13   A    
C17   C18   A    
C48   H24   S    
Cu1   O1    S    
C49   H28   S    
C22   C24   A    
C42   C43   A    
Cu1   O7    S    
C3    C4    A    
C44   C45   A    
C41   N1    A    
C6    C46   A    
C29   C41   A    
C44   Cl1   S    
C10   H16   S    
C34   C43   S    
C23   O5    A    
C47   H21   S    
C11   C12   S    
C6    C7    A    
C4    C49   S    
C3    H15   S    
C31   C47   S    
C32   C33   A    
C14   C22   A    
C41   H9    S    
C5    C10   A    
C34   O8    A    
C11   C13   A    
C38   C39   A    
C2    C42   A    
C33   C35   A    
C10   C11   A    
C18   H6    S    
C42   H1    S    
Cu1   O5    S    
C4    C5    A    
C49   H27   S    
C14   H3    S    
C30   H13   S    
C29   C37   A    
C32   H14   S    
C21   C22   A    
C2    C9    A    
