data_mof_unit_5221.cif
_audit_creation_date              2012-12-11T15:54:04-0500
_audit_creation_method            fapswitch 2.2
_symmetry_space_group_name_H-M    P1
_symmetry_Int_Tables_number       1
_space_group_crystal_system       triclinic
_cell_length_a                    10.678061
_cell_length_b                    10.658203
_cell_length_c                    17.027523
_cell_angle_alpha                 80.488561
_cell_angle_beta                  99.515629
_cell_angle_gamma                 118.263637
_cell_volume                      1674.90403703

loop_
_atom_site_label
_atom_site_type_symbol
_atom_type_description
_atom_site_fract_x
_atom_site_fract_y
_atom_site_fract_z
_atom_type_partial_charge
C1    C     C_R   0.361231 0.228523 0.627381 0.544238
C2    C     C_1   0.320340 0.159627 0.778096 -0.054473
C3    C     C_1   0.334854 0.664971 0.277948 0.006097
C4    C     C_R   0.370130 0.654792 0.586152 0.540199
C5    C     C_1   0.322450 0.674227 0.207145 -0.032206
C6    C     C_R   0.796044 0.647794 0.147469 -0.039034
C7    C     C_R   0.767647 0.518449 0.195096 0.017019
C8    C     C_R   0.737051 0.500697 0.272384 -0.060507
C9    C     C_R   0.721814 0.723227 0.249999 0.216924
C10   C     C_R   0.759844 0.743704 0.172351 -0.102903
C11   C     C_3   0.853145 0.436923 0.216391 0.150745
C12   C     C_R   0.391803 0.829434 0.674440 -0.140247
C13   C     C_3   0.820696 0.418558 0.302034 0.139781
C14   C     C_R   0.723590 0.606081 0.304044 0.018277
C15   C     C_R   0.338014 0.178824 0.156401 0.032481
C16   C     C_R   0.720659 0.587497 0.633360 0.549983
C17   C     C_R   0.278822 0.258628 0.177479 -0.054696
C18   C     C_R   0.283356 0.272752 0.256390 -0.003315
C19   C     C_R   0.429445 0.151988 0.295110 -0.154448
C20   C     C_R   0.425504 0.137556 0.214961 -0.103502
C21   C     C_3   0.135480 0.255622 0.157251 -0.201123
C22   C     C_3   0.141108 0.272382 0.244790 0.149875
C23   C     C_R   0.375202 0.851005 0.750159 -0.158255
C24   C     C_R   0.345805 0.207152 0.316564 0.050557
C25   C     C_R   0.885285 0.699164 0.857086 0.544988
C26   C     C_R   0.282474 0.750279 0.882857 0.558440
C27   C     C_R   0.284169 0.114526 0.857694 0.538707
C28   C     C_R   0.354044 0.232479 0.397559 0.557720
C29   C     C_R   0.882464 0.688508 0.081811 0.555165
C30   C     C_R   0.312675 0.701063 0.123931 0.548755
C31   C     C_R   0.287680 0.110944 0.083558 0.558300
C32   C     C_R   0.365068 0.654594 0.360990 0.583889
C33   C     C_R   0.703824 0.585510 0.388975 0.585801
C34   C     C_3   0.142876 0.456654 0.796175 -0.251633
C35   C     C_R   0.281705 0.735790 0.799031 0.005761
C36   C     C_R   0.186390 0.609410 0.764409 0.024871
C37   C     C_R   0.203938 0.587370 0.690064 0.034649
C38   C     C_3   0.162758 0.432706 0.714684 -0.248724
C39   C     C_R   0.316176 0.691768 0.647618 0.025039
C40   C     C_1   0.773232 0.630423 0.712239 -0.034889
C41   C     C_1   0.819468 0.669559 0.777915 -0.034457
C42   C     C_1   0.345386 0.187037 0.709770 -0.056933
Cl1   Cl    Cl    0.771242 0.273133 0.171168 -0.575433
Cl2   Cl    Cl    0.981432 0.512134 0.364908 -0.571010
Cl3   Cl    Cl    0.007507 0.119511 0.295431 -0.445208
Cl4   Cl    Cl    0.690262 0.857790 0.275684 -0.474322
Cr1   Cr    Cr6+3 0.608440 0.389080 0.519680 1.039676
Cr2   Cr    Cr6+3 0.288640 0.400090 0.490760 1.100845
Cr3   Cr    Cr6+3 0.602940 0.710800 0.489510 1.105710
Cr4   Cr    Cr6+3 0.052530 0.947560 0.964210 1.030324
Cr5   Cr    Cr6+3 0.059970 0.626800 0.992920 1.042186
Cr6   Cr    Cr6+3 0.373320 0.938440 0.995370 1.068163
H1    H     H_    0.474360 0.916217 0.641171 0.150261
H2    H     H_    0.220845 0.443955 0.844736 0.154172
H3    H     H_    0.773482 0.840789 0.134515 0.181158
H4    H     H_    0.968395 0.502632 0.207587 0.172286
H5    H     H_    0.252713 0.407093 0.716321 0.143800
H6    H     H_    0.061124 0.361110 0.681444 0.166072
H7    H     H_    0.752940 0.306205 0.325535 0.182313
H8    H     H_    0.490316 0.112660 0.340182 0.152083
H9    H     H_    0.477139 0.078988 0.200744 0.213373
H10   H     H_    0.048721 0.151533 0.138691 0.212773
H11   H     H_    0.141131 0.350752 0.116666 0.131265
H12   H     H_    0.147595 0.375579 0.254821 0.143430
H13   H     H_    0.443512 0.953943 0.772792 0.141064
H14   H     H_    0.029630 0.399347 0.809804 0.157293
O1    O     O_R   0.754020 0.497590 0.609930 -0.486509
O2    O     O_R   0.406180 0.826930 0.920660 -0.509170
O3    O     O_R   0.358620 0.062870 0.901950 -0.513657
O4    O     O_R   0.481420 0.271390 0.600630 -0.514931
O5    O     O_R   0.163910 0.085460 0.050210 -0.524100
O6    O     O_R   0.935200 0.815170 0.045770 -0.500518
O7    O     O_R   0.916120 0.596690 0.069430 -0.489272
O8    O     O_R   0.192310 0.631200 0.086170 -0.515133
O9    O     O_R   0.406770 0.819480 0.096420 -0.469833
O10   O     O_R   0.359170 0.055960 0.064880 -0.486585
O11   O     O_3   0.161940 0.837600 0.984160 -0.284046
O12   O     O_R   0.295080 0.533620 0.397890 -0.471401
O13   O     O_R   0.263810 0.254550 0.589590 -0.497643
O14   O     O_R   0.300820 0.531200 0.560890 -0.484694
O15   O     O_R   0.491480 0.744020 0.564270 -0.529890
O16   O     O_R   0.726290 0.693800 0.583010 -0.476017
O17   O     O_R   0.747830 0.500190 0.434090 -0.451937
O18   O     O_R   0.475680 0.273800 0.437630 -0.542396
O19   O     O_R   0.257620 0.257160 0.413750 -0.448737
O20   O     O_R   0.485280 0.746620 0.388440 -0.465336
O21   O     O_R   0.720550 0.696220 0.420010 -0.415852
O22   O     O_3   0.500010 0.499990 0.499980 -0.334110
O23   O     O_R   0.163320 0.092900 0.874450 -0.507933
O24   O     O_R   0.934650 0.822080 0.882840 -0.492901
O25   O     O_R   0.915520 0.604140 0.893670 -0.512810
O26   O     O_R   0.191760 0.638110 0.923230 -0.503780

loop_
_geom_bond_atom_site_label_1
_geom_bond_atom_site_label_2
_ccdc_geom_bond_type
C8    C13   S    
C28   O18   A    
Cr3   O21   S    
C19   C20   A    
Cr5   O8    S    
C9    C14   A    
Cr6   O9    S    
C34   H14   S    
C14   C33   S    
C7    C8    A    
C7    C11   S    
C12   C23   A    
C25   O24   A    
C18   C24   A    
Cr2   O13   S    
C36   C37   A    
C4    O14   A    
C30   O8    A    
C29   O7    A    
C26   O26   A    
Cr2   O12   S    
C20   H9    S    
Cr4   O6    S    
Cr6   O3    S    
Cr5   O25   S    
C38   H6    S    
Cr4   O24   S    
C4    O15   A    
C35   C36   A    
Cr2   O22   S    
C11   Cl1   S    
C2    C27   S    
Cr1   O17   S    
C9    C10   A    
C34   C36   S    
C12   H1    S    
Cr6   O2    S    
C29   O6    A    
C31   O5    A    
C9    Cl4   S    
C34   C38   S    
C21   C22   S    
Cr3   O22   S    
Cr1   O1    S    
C15   C20   A    
C25   O25   A    
C24   C28   S    
C25   C41   S    
Cr6   O10   S    
C22   H12   S    
C17   C21   S    
Cr3   O16   S    
Cr4   O5    S    
Cr5   O11   S    
Cr1   O4    S    
C37   C38   S    
Cr5   O26   S    
C38   H5    S    
C1    C42   S    
Cr4   O23   S    
C4    C39   S    
C32   O20   A    
C6    C29   S    
C16   O16   A    
C17   C18   A    
C16   O1    A    
Cr1   O18   S    
C10   H3    S    
C33   O17   A    
C21   H10   S    
C16   C40   S    
C40   C41   T    
C34   H2    S    
C23   C35   A    
C1    O13   A    
Cr6   O11   S    
Cr4   O11   S    
C5    C30   S    
C15   C17   A    
C8    C14   A    
C18   C22   S    
Cr3   O20   S    
Cr5   O7    S    
C3    C5    T    
C27   O3    A    
C6    C10   A    
C15   C31   S    
C6    C7    A    
C13   H7    S    
C19   H8    S    
C1    O4    A    
C26   O2    A    
Cr1   O22   S    
Cr2   O14   S    
C12   C39   A    
C19   C24   A    
C33   O21   A    
C37   C39   A    
C30   O9    A    
C11   C13   S    
C23   H13   S    
C31   O10   A    
C2    C42   T    
C27   O23   A    
Cr3   O15   S    
C3    C32   S    
C21   H11   S    
C32   O12   A    
C26   C35   S    
C22   Cl3   S    
C28   O19   A    
Cr2   O19   S    
C13   Cl2   S    
C11   H4    S    
