data_mof_unit_50518.cif
_audit_creation_date              2012-12-11T16:56:20-0500
_audit_creation_method            fapswitch 2.2
_symmetry_space_group_name_H-M    P1
_symmetry_Int_Tables_number       1
_space_group_crystal_system       triclinic
_cell_length_a                    6.974075
_cell_length_b                    14.519816
_cell_length_c                    16.215107
_cell_angle_alpha                 90.509345
_cell_angle_beta                  89.809317
_cell_angle_gamma                 90.074814
_cell_volume                      1641.90348848

loop_
_atom_site_label
_atom_site_type_symbol
_atom_type_description
_atom_site_fract_x
_atom_site_fract_y
_atom_site_fract_z
_atom_type_partial_charge
O1    O     O_R   0.505830 0.583360 0.413880 -0.539798
O2    O     O_R   0.175830 0.595460 0.585520 -0.535214
O3    O     O_R   0.005520 0.416640 0.586120 -0.562353
C1    C     C_R   0.344423 0.617339 0.614458 0.698765
O4    O     O_R   0.176120 0.594390 0.414490 -0.548504
O5    O     O_R   0.005810 0.415570 0.413870 -0.528384
C2    C     C_R   0.345402 0.616696 0.386350 0.758348
O6    O     O_R   0.505540 0.584430 0.586130 -0.546610
O7    O     O_3   0.339200 0.441330 0.500000 -0.336278
V1    V     V_3+5 0.064350 0.510880 0.500000 1.560633
O8    O     O_R   0.676100 0.404540 0.414480 -0.505716
C3    C     C_R   0.845098 0.381106 0.386981 0.756698
O9    O     O_R   0.675810 0.405610 0.585510 -0.500934
C4    C     C_R   0.844008 0.386663 0.615762 0.724323
V2    V     V_3+5 0.564340 0.489120 0.500000 1.642975
O10   O     O_3   0.839360 0.558670 0.500000 -0.374942
C5    C     C_2   0.726124 0.207501 0.784933 -0.123696
C6    C     C_2   0.888708 0.173255 0.816844 -0.268050
H1    H     H_    0.588485 0.186025 0.809754 0.153271
H2    H     H_    0.025687 0.189442 0.788378 0.146580
C7    C     C_2   0.723448 0.266406 0.710249 0.627024
C8    C     C_2   0.853346 0.333863 0.693591 -0.286710
C9    C     C_R   0.720896 0.242207 0.194189 0.016378
C10   C     C_R   0.881004 0.184788 0.183883 -0.159878
C11   C     C_R   0.030671 0.193688 0.241419 -0.057280
H3    H     H_    0.153017 0.148241 0.237846 0.124156
C12   C     C_R   0.017338 0.256673 0.307707 -0.071428
H4    H     H_    0.127504 0.258547 0.353580 0.192633
C13   C     C_R   0.856031 0.312746 0.318645 -0.167201
C14   C     C_R   0.706854 0.302084 0.262188 0.001553
C15   C     C_3   0.505942 0.272939 0.279578 0.446647
C16   C     C_3   0.516156 0.213762 0.201785 0.432545
H5    H     H_    0.496231 0.138441 0.210535 -0.057735
C17   C     C_R   0.509890 0.746367 0.691622 -0.049552
C18   C     C_R   0.352598 0.687028 0.682057 -0.128817
C19   C     C_R   0.202299 0.695463 0.739907 -0.058224
H6    H     H_    0.079533 0.650200 0.735905 0.130577
C20   C     C_R   0.215620 0.757455 0.807186 -0.044580
H7    H     H_    0.103084 0.758729 0.852944 0.205815
C21   C     C_R   0.378755 0.813112 0.818734 -0.109143
C22   C     C_R   0.522520 0.807829 0.758463 -0.047740
C23   C     C_3   0.729618 0.787369 0.769700 0.995918
C24   C     C_3   0.717194 0.722443 0.696095 0.402695
H8    H     H_    0.743504 0.648763 0.710255 0.017572
C25   C     C_R   0.529602 0.705356 0.279423 0.006866
C26   C     C_R   0.357760 0.688479 0.321794 -0.137080
C27   C     C_R   0.200204 0.745351 0.302970 -0.237652
H9    H     H_    0.067045 0.738800 0.336968 0.161488
C28   C     C_R   0.210581 0.809814 0.238357 0.582902
C29   C     C_R   0.379209 0.818306 0.189792 -0.167402
C30   C     C_R   0.539788 0.768093 0.215167 -0.042935
C31   C     C_3   0.673318 0.707847 0.166810 0.550432
C32   C     C_3   0.662833 0.639555 0.237300 -0.398393
H10   H     H_    0.817378 0.738742 0.157380 0.113529
H11   H     H_    0.800648 0.632628 0.270895 0.128332
H12   H     H_    0.592192 0.573273 0.220571 0.227598
O11   O     O_R   0.229930 0.912420 0.917160 -0.544139
O12   O     O_R   0.559420 0.902500 0.088780 -0.542327
O13   O     O_R   0.729660 0.081330 0.089380 -0.548687
C33   C     C_R   0.390167 0.881522 0.118076 0.757825
O14   O     O_R   0.559650 0.901420 0.917750 -0.510899
O15   O     O_R   0.729880 0.080250 0.917130 -0.546722
C34   C     C_R   0.390817 0.879065 0.889191 0.747810
O16   O     O_R   0.229700 0.913500 0.089410 -0.515619
O17   O     O_3   0.396250 0.055540 0.003280 -0.374610
V3    V     V_3+5 0.671130 0.986010 0.003260 1.620577
O18   O     O_R   0.059600 0.091310 0.917720 -0.543591
C35   C     C_R   0.891627 0.111143 0.888299 0.792620
O19   O     O_R   0.059370 0.092380 0.088750 -0.523570
C36   C     C_R   0.890357 0.114578 0.117195 0.747875
V4    V     V_3+5 0.171120 0.007820 0.003230 1.612944
O20   O     O_3   0.896130 0.938240 0.003240 -0.356620
F1    F     F_    0.764264 0.742603 0.843182 -0.716887
F2    F     F_    0.844837 0.863748 0.757285 -0.651317
F3    F     F_    0.816510 0.754215 0.627946 -0.629142
F4    F     F_    0.053926 0.862189 0.222893 -0.711161
F5    F     F_    0.589567 0.674045 0.095342 -0.629134
F6    F     F_    0.579941 0.248901 0.655611 -0.656287
C37   C     C_2   0.997592 0.366940 0.754687 0.316009
H13   H     H_    0.131905 0.396414 0.733493 0.089597
O21   O     O_2   0.963395 0.367206 0.828598 -0.491692
F7    F     F_    0.380479 0.346531 0.274705 -0.615937
C38   C     C_2   0.488936 0.216929 0.357622 0.242665
H14   H     H_    0.527398 0.144501 0.357253 0.027144
O22   O     O_2   0.439222 0.252931 0.422510 -0.468654
F8    F     F_    0.408268 0.248910 0.137831 -0.592093

loop_
_geom_bond_atom_site_label_1
_geom_bond_atom_site_label_2
_ccdc_geom_bond_type
C3    C13   S    
C12   C13   A    
C22   C23   S    
C18   C19   A    
C1    O6    A    
C10   C36   S    
C27   C28   A    
C25   C26   A    
C21   C34   S    
C38   H14   S    
C19   H6    S    
C8    C37   S    
O13   V3    S    
O5    C3    A    
C14   C15   S    
C25   C30   A    
O12   C33   A    
V2    O10   S    
C15   C38   S    
O19   V4    S    
C17   C18   A    
O16   V4    S    
O14   C34   A    
O8    V2    S    
O14   V3    S    
O12   V3    S    
V3    O20   S    
C15   C16   S    
C7    F6    S    
C9    C10   A    
O11   C34   A    
O1    V2    S    
O7    V1    S    
O18   V4    S    
C1    C18   S    
C25   C32   S    
O9    C4    A    
C17   C22   A    
C31   H10   S    
C29   C30   A    
C32   H11   S    
C24   F3    S    
C23   F2    S    
O15   V3    S    
C30   C31   S    
C9    C14   A    
C10   C11   A    
O4    C2    A    
C11   H3    S    
O17   V4    S    
C5    C7    S    
O18   C35   A    
O2    C1    A    
C24   H8    S    
C2    C26   S    
C13   C14   A    
C27   H9    S    
C16   F8    S    
C5    C6    D    
C28   F4    S    
O11   V4    S    
C15   F7    S    
O3    C4    A    
C21   C22   A    
C38   O22   D    
O17   V3    S    
O6    V2    S    
O9    V2    S    
C23   C24   S    
C31   F5    S    
O2    V1    S    
C31   C32   S    
C37   O21   D    
C32   H12   S    
C26   C27   A    
C23   F1    S    
O1    C2    A    
C17   C24   S    
O5    V1    S    
O8    C3    A    
C11   C12   A    
O15   C35   A    
C33   O16   A    
C29   C33   S    
C16   H5    S    
C4    C8    S    
C19   C20   A    
O7    V2    S    
O4    V1    S    
O3    V1    S    
V1    O10   S    
C9    C16   S    
C20   C21   A    
C20   H7    S    
C5    H1    S    
C6    H2    S    
O19   C36   A    
O13   C36   A    
C37   H13   S    
V4    O20   S    
C28   C29   A    
C12   H4    S    
C7    C8    D    
C6    C35   S    
