data_mof_unit_66699.cif
_audit_creation_date              2013-03-05T15:41:27-0500
_audit_creation_method            fapswitch 2.2
_symmetry_space_group_name_H-M    P1
_symmetry_Int_Tables_number       1
_space_group_crystal_system       triclinic
_cell_length_a                    11.778897
_cell_length_b                    18.216707
_cell_length_c                    10.183959
_cell_angle_alpha                 89.741217
_cell_angle_beta                  110.615153
_cell_angle_gamma                 89.171245
_cell_volume                      2044.95188526

loop_
_atom_site_label
_atom_site_type_symbol
_atom_site_description
_atom_site_fract_x
_atom_site_fract_y
_atom_site_fract_z
_atom_type_partial_charge
O1    O     O_R   0.267710 0.668200 0.902110 -0.489963
O2    O     O_R   0.732290 0.331800 0.097890 -0.480847
O3    O     O_R   0.732290 0.168200 0.097890 -0.478487
O4    O     O_R   0.267710 0.831800 0.902110 -0.477387
O5    O     O_R   0.099480 0.674460 0.038850 -0.481704
O6    O     O_R   0.900520 0.325540 0.961150 -0.464611
O7    O     O_R   0.900520 0.174460 0.961150 -0.460873
O8    O     O_R   0.099480 0.825540 0.038850 -0.461522
C1    C     C_R   0.076660 0.644970 0.143044 0.565141
C2    C     C_R   0.921723 0.356270 0.857522 0.593571
C3    C     C_R   0.923105 0.141391 0.860490 0.558033
C4    C     C_R   0.076709 0.858525 0.139454 0.560011
O9    O     O_R   0.116720 0.669210 0.267660 -0.450540
O10   O     O_R   0.883280 0.330790 0.732340 -0.457188
O11   O     O_R   0.883280 0.169210 0.732340 -0.469489
O12   O     O_R   0.116720 0.830790 0.267660 -0.463168
O13   O     O_R   0.366710 0.675440 0.427590 -0.520953
O14   O     O_R   0.633290 0.324560 0.572410 -0.489490
O15   O     O_R   0.633290 0.175440 0.572410 -0.523550
O16   O     O_R   0.366710 0.824560 0.427590 -0.515698
C5    C     C_R   0.470025 0.645573 0.438723 0.565235
C6    C     C_R   0.524862 0.350212 0.552789 0.604165
C7    C     C_R   0.530163 0.147351 0.557533 0.581910
C8    C     C_R   0.470533 0.852063 0.443526 0.585933
O17   O     O_R   0.534870 0.669390 0.371760 -0.472762
O18   O     O_R   0.465130 0.330610 0.628240 -0.472155
O19   O     O_R   0.465130 0.169390 0.628240 -0.478066
O20   O     O_R   0.534870 0.830610 0.371760 -0.476094
O21   O     O_R   0.453080 0.674480 0.075160 -0.492059
O22   O     O_R   0.546920 0.325520 0.924840 -0.495837
O23   O     O_R   0.546920 0.174480 0.924840 -0.492825
O24   O     O_R   0.453080 0.825520 0.075160 -0.487401
C9    C     C_R   0.375353 0.644106 0.966912 0.542516
C10   C     C_R   0.623713 0.355030 0.034174 0.548973
C11   C     C_R   0.623519 0.146127 0.037131 0.556724
C12   C     C_R   0.376308 0.854077 0.963277 0.560703
Cr1   Cr    Cr6+3 0.187610 0.750000 0.979860 1.158243
Cr2   Cr    Cr6+3 0.812390 0.250000 0.020140 1.172457
Cr3   Cr    Cr6+3 0.245810 0.750000 0.341640 1.099217
Cr4   Cr    Cr6+3 0.754190 0.250000 0.658360 1.106678
Cr5   Cr    Cr6+3 0.485760 0.750000 0.219910 1.148534
Cr6   Cr    Cr6+3 0.514240 0.250000 0.780090 1.140487
O25   O     O_3   0.306390 0.750000 0.180470 -0.311658
O26   O     O_3   0.693610 0.250000 0.819530 -0.304378
C13   C     C_R   0.478396 0.417005 0.466290 0.038600
C14   C     C_R   0.497197 0.569544 0.492300 0.026791
C15   C     C_R   0.502005 0.922607 0.517162 0.029472
C16   C     C_R   0.500979 0.075680 0.487315 0.030898
C17   C     C_R   0.275415 0.425495 0.496296 0.215677
C18   C     C_R   0.699331 0.556810 0.458714 0.248473
C19   C     C_R   0.714906 0.917700 0.524421 0.217953
C20   C     C_R   0.286949 0.079556 0.475735 0.217408
C21   C     C_R   0.193151 0.469051 0.534840 -0.058389
C22   C     C_R   0.783426 0.509498 0.430804 0.010674
C23   C     C_R   0.795321 0.948043 0.466791 -0.032426
C24   C     C_R   0.205963 0.049541 0.532941 -0.031832
C25   C     C_R   0.219267 0.541226 0.574534 0.048181
C26   C     C_R   0.756787 0.436582 0.396547 0.084491
C27   C     C_R   0.783787 0.021104 0.424614 0.059222
C28   C     C_R   0.218215 0.976850 0.577453 0.059828
C29   C     C_R   0.328209 0.570221 0.579994 -0.095674
C30   C     C_R   0.641976 0.412075 0.375900 -0.101182
C31   C     C_R   0.687876 0.063714 0.432602 -0.093416
C32   C     C_R   0.315521 0.934540 0.572501 -0.093703
C33   C     C_R   0.404481 0.532543 0.522722 -0.046332
C34   C     C_R   0.562866 0.453525 0.422760 -0.038442
C35   C     C_R   0.598410 0.032898 0.477117 -0.049436
C36   C     C_R   0.405377 0.965433 0.528768 -0.050701
C37   C     C_R   0.384327 0.457611 0.490845 -0.007197
C38   C     C_R   0.585345 0.528280 0.455551 0.005916
C39   C     C_R   0.606477 0.957514 0.511389 -0.001777
C40   C     C_R   0.396776 0.040518 0.493014 -0.003040
H1    H     H_    0.108651 0.446954 0.534561 0.190323
H2    H     H_    0.875402 0.526600 0.455188 0.232086
H3    H     H_    0.866560 0.914604 0.453507 0.214927
H4    H     H_    0.133420 0.082837 0.543297 0.214058
H5    H     H_    0.350762 0.623998 0.625733 0.156671
H6    H     H_    0.621094 0.355898 0.342282 0.144413
H7    H     H_    0.678535 0.119254 0.391649 0.160375
H8    H     H_    0.325002 0.879014 0.613642 0.161238
H9    H     H_    0.445052 0.062699 0.889303 0.200193
H10   H     H_    0.554605 0.937675 0.112602 0.200165
H11   H     H_    0.509330 0.549433 0.151866 0.157425
H12   H     H_    0.405305 0.418887 0.956340 0.182753
C41   C     C_2   0.406924 0.924483 0.922798 -0.075490
C42   C     C_2   0.592298 0.076176 0.078948 -0.073438
C43   C     C_2   0.592511 0.425557 0.073994 -0.103769
C44   C     C_2   0.398280 0.568865 0.940803 -0.079254
C45   C     C_2   0.494852 0.961931 0.014084 -0.092132
C46   C     C_2   0.504400 0.038627 0.988094 -0.091392
C47   C     C_2   0.479635 0.450706 0.025618 -0.150682
C48   C     C_2   0.461729 0.526843 0.048672 -0.138638
H13   H     H_    0.653735 0.048814 0.169900 0.148773
H14   H     H_    0.344748 0.952244 0.832773 0.151023
H15   H     H_    0.349216 0.544252 0.841223 0.118152
H16   H     H_    0.665881 0.461334 0.131645 0.158530
C49   C     C_2   0.967803 0.911036 0.093951 0.240074
C50   C     C_2   0.031679 0.088610 0.905815 0.243597
C51   C     C_2   0.940535 0.436114 0.863793 0.217361
C52   C     C_2   0.003365 0.579237 0.126540 0.209319
C53   C     C_2   0.951190 0.975090 0.010462 0.053924
C54   C     C_2   0.048194 0.024671 0.989572 0.055883
C55   C     C_2   0.994640 0.472454 0.983052 0.046753
C56   C     C_2   0.951349 0.548200 0.003324 0.151722
I1    I     I_    0.094633 0.611141 0.618101 -0.094477
I2    I     I_    0.892158 0.356326 0.411028 -0.099641
I3    I     I_    0.905554 0.066998 0.339096 -0.246928
I4    I     I_    0.094212 0.930859 0.659584 -0.249402
N1    N     N_R   0.243558 0.350517 0.458515 0.119894
O27   O     O_R   0.185373 0.313772 0.523909 -0.264207
O28   O     O_R   0.279857 0.316797 0.367705 -0.246994
N2    N     N_R   0.743073 0.626863 0.519160 0.143274
O29   O     O_R   0.722507 0.650283 0.629371 -0.226559
O30   O     O_R   0.804173 0.667691 0.463679 -0.207524
N3    N     N_R   0.745041 0.848029 0.597741 0.112948
O31   O     O_R   0.834577 0.807956 0.589519 -0.232511
O32   O     O_R   0.696781 0.829908 0.690033 -0.278479
N4    N     N_R   0.253868 0.146583 0.394023 0.122172
O33   O     O_R   0.308087 0.164217 0.307173 -0.277016
O34   O     O_R   0.153721 0.181373 0.383308 -0.231787
I5    I     I_    0.231728 0.998969 0.119521 -0.258694
I6    I     I_    0.767661 0.000818 0.880537 -0.263659
I7    I     I_    0.758668 0.570090 0.934034 -0.095168
I8    I     I_    0.160548 0.428452 0.121689 -0.253350
N5    N     N_R   0.136017 0.118459 0.882921 0.105522
O35   O     O_R   0.154997 0.188875 0.893078 -0.270953
O36   O     O_R   0.204786 0.077125 0.837337 -0.356597
N6    N     N_R   0.863408 0.880692 0.116032 0.104834
O37   O     O_R   0.845213 0.810203 0.105767 -0.252423
O38   O     O_R   0.793641 0.921662 0.160796 -0.354475
N7    N     N_R   0.959646 0.560724 0.236239 0.055397
O39   O     O_R   0.939970 0.492423 0.256222 -0.372689
O40   O     O_R   0.911550 0.612095 0.288920 -0.272425
N8    N     N_R   0.865518 0.476472 0.745375 0.046123
O41   O     O_R   0.902607 0.539150 0.716659 -0.320299
O42   O     O_R   0.751200 0.460805 0.694655 -0.358714

loop_
_geom_bond_atom_site_label_1
_geom_bond_atom_site_label_2
_geom_bond_distance
_ccdc_geom_bond_type
C26   C30   1.374943 A    
C51   C55   1.339350 D    
O4    C12   1.282644 A    
C53   C54   1.538127 S    
C24   H4    1.076202 S    
O23   Cr6   1.944385 S    
C43   C47   1.318875 D    
Cr5   O25   2.006886 S    
C25   I1    2.093752 S    
N6    O37   1.303507 A    
N2    O30   1.299386 A    
C52   N7    1.426089 S    
O1    C9    1.275867 A    
C56   I7    2.156721 S    
C31   H7    1.081832 S    
O7    C3    1.295189 A    
H11   C48   1.088030 S    
C18   C22   1.407326 A    
H10   C45   1.089488 S    
Cr6   O26   2.006886 S    
C3    C50   1.522441 S    
C32   C36   1.407904 A    
C9    C44   1.437165 S    
C41   C45   1.323036 D    
C23   C27   1.386671 A    
N1    O28   1.300526 A    
C11   C42   1.435028 S    
C33   C37   1.408602 A    
O5    Cr1   1.950675 S    
N3    O31   1.301022 A    
O21   C9    1.291934 A    
O20   Cr5   2.073060 S    
C52   C56   1.320869 D    
C19   N3    1.444333 S    
O13   Cr3   1.922108 S    
C1    O9    1.271857 A    
N4    O33   1.301715 A    
O14   Cr4   1.922106 S    
C22   H2    1.073980 S    
C3    O11   1.317619 A    
C50   N5    1.442356 S    
C4    O12   1.317548 A    
O3    Cr2   2.072120 S    
C29   H5    1.082486 S    
N3    O32   1.301681 A    
O24   Cr5   1.944384 S    
O6    Cr2   1.950673 S    
H12   C47   1.087975 S    
C7    O19   1.283979 A    
C54   I5    2.143505 S    
C19   C23   1.396731 A    
C28   I4    2.103391 S    
O1    Cr1   2.057585 S    
C23   H3    1.076745 S    
O2    C10   1.277985 A    
C44   H15   1.078119 S    
C17   C37   1.436194 A    
C32   H8    1.082176 S    
C19   C39   1.424006 A    
C16   C40   1.411646 A    
C49   N6    1.442708 S    
C55   I8    2.111020 S    
N2    O29   1.301242 A    
Cr2   O26   2.029419 S    
C31   C35   1.407976 A    
C14   C38   1.427157 A    
O22   C10   1.287318 A    
C13   C37   1.417917 A    
C44   C48   1.322515 D    
C14   C33   1.414444 A    
C2    O10   1.284776 A    
O17   Cr5   2.051198 S    
C47   C48   1.432692 S    
O16   Cr3   1.956496 S    
C30   C34   1.400798 A    
N8    O42   1.297736 A    
C50   C54   1.410572 D    
C27   I3    2.102923 S    
C24   C28   1.386638 A    
C51   N8    1.413671 S    
C36   C40   1.406855 A    
C26   I2    2.113459 S    
Cr1   O25   2.029419 S    
O15   C7    1.284295 A    
O5    C1    1.298711 A    
C20   C40   1.422024 A    
C42   H13   1.069333 S    
C41   H14   1.070014 S    
O2    Cr2   2.057584 S    
O3    C11   1.282552 A    
O8    C4    1.295029 A    
C43   H16   1.085727 S    
C18   N2    1.440717 S    
C15   C39   1.412573 A    
C4    C49   1.522253 S    
H9    C46   1.088609 S    
C1    C52   1.461848 S    
C42   C46   1.321951 D    
N5    O35   1.303590 A    
O23   C11   1.281870 A    
O8    Cr1   1.933240 S    
N7    O39   1.297095 A    
O24   C12   1.281447 A    
C15   C36   1.409940 A    
C55   C56   1.504315 S    
O18   Cr6   2.051197 S    
C17   N1    1.439558 S    
C5    C14   1.475033 S    
C22   C26   1.386972 A    
C5    O17   1.269008 A    
C21   C25   1.384076 A    
C7    C16   1.477324 S    
O21   Cr5   1.961609 S    
O14   C6    1.300623 A    
C8    C15   1.475786 S    
C30   H6    1.084486 S    
C21   H1    1.078109 S    
C8    O20   1.282651 A    
N7    O40   1.299129 A    
N6    O38   1.299728 A    
O6    C2    1.293756 A    
Cr3   O25   2.006972 S    
C25   C29   1.377796 A    
N8    O41   1.296692 A    
C12   C41   1.434670 S    
C27   C31   1.387555 A    
C53   I6    2.143489 S    
C28   C32   1.387728 A    
C18   C38   1.436552 A    
N1    O27   1.300741 A    
O19   Cr6   2.073062 S    
C34   C38   1.410097 A    
C17   C21   1.403906 A    
O7    Cr2   1.933241 S    
C35   C39   1.408979 A    
C10   C43   1.430442 S    
C16   C35   1.412082 A    
C2    C51   1.472734 S    
N4    O34   1.300839 A    
O11   Cr4   2.040638 S    
O9    Cr3   2.076946 S    
O15   Cr4   1.956498 S    
O12   Cr3   2.040636 S    
O10   Cr4   2.076945 S    
C29   C33   1.404691 A    
Cr4   O26   2.006973 S    
C6    C13   1.479053 S    
O4    Cr1   2.072118 S    
C6    O18   1.264287 A    
C13   C34   1.398619 A    
N5    O36   1.299589 A    
O22   Cr6   1.961608 S    
C45   C46   1.434177 S    
O16   C8    1.285141 A    
C49   C53   1.410679 D    
C20   C24   1.397094 A    
C20   N4    1.443572 S    
O13   C5    1.293425 A    
