data_mof_unit_14729.cif
_audit_creation_date              2012-12-10T16:54:04-0500
_audit_creation_method            fapswitch 2.2
_symmetry_space_group_name_H-M    P1
_symmetry_Int_Tables_number       1
_space_group_crystal_system       triclinic
_cell_length_a                    9.75751
_cell_length_b                    10.923692
_cell_length_c                    13.473392
_cell_angle_alpha                 91.119889
_cell_angle_beta                  72.007303
_cell_angle_gamma                 89.917958
_cell_volume                      1365.56803992

loop_
_atom_site_label
_atom_site_type_symbol
_atom_type_description
_atom_site_fract_x
_atom_site_fract_y
_atom_site_fract_z
_atom_type_partial_charge
C1    C     C_R   0.502781 0.733795 0.492162 0.691747
C2    C     C_R   0.464408 0.533500 0.965625 -0.021618
C3    C     C_R   0.466991 0.472060 0.871385 0.001518
C4    C     C_R   0.552249 0.489402 0.024561 -0.029188
C5    C     C_R   0.662418 0.402172 0.978196 -0.121226
C6    C     C_R   0.659813 0.339555 0.886868 -0.247522
C7    C     C_R   0.558101 0.368608 0.836824 0.471630
C8    C     C_R   0.525468 0.521102 0.131476 0.278442
C9    C     C_R   0.748283 0.418460 0.130175 0.390970
C10   C     C_R   0.377428 0.515715 0.814120 -0.256805
C11   C     C_2   0.617250 0.065655 0.470208 0.496487
C12   C     C_R   0.422096 0.499566 0.699935 0.913099
C13   C     C_2   0.496776 0.133219 0.515081 0.235553
C14   C     C_2   0.610988 0.932953 0.488762 -0.266991
C15   C     C_2   0.509997 0.863722 0.467908 0.300059
C16   C     C_2   0.060067 0.590088 0.537624 0.627464
C17   C     C_2   0.897643 0.567940 0.562921 0.653025
C18   C     C_R   0.499488 0.265551 0.502352 0.758775
C19   C     C_R   0.577863 0.498232 0.299609 0.893676
C20   C     C_R   0.764905 0.371755 0.029274 0.319403
C21   C     C_R   0.622363 0.484501 0.184418 -0.274100
C22   C     C_R   0.268357 0.602368 0.860582 0.343166
C23   C     C_R   0.275963 0.670834 0.947283 0.427679
C24   C     C_R   0.377976 0.640219 0.995760 -0.332596
Cu1   Cu    Cu3+1 0.361370 0.499980 0.499980 1.040742
Cu2   Cu    Cu3+1 0.638630 0.500020 0.500020 1.041921
H1    H     H_    0.690825 0.893651 0.519588 0.099437
H2    H     H_    0.729999 0.261705 0.857176 0.143598
H3    H     H_    0.387834 0.701684 0.056875 0.233430
N1    N     N_2   0.152660 0.501340 0.501130 -0.014258
N2    N     N_2   0.846520 0.501370 0.501160 -0.049120
O1    O     O_R   0.382960 0.678040 0.499980 -0.544583
O2    O     O_R   0.617100 0.678080 0.500020 -0.614949
O3    O     O_R   0.325800 0.499940 0.650950 -0.550049
O4    O     O_R   0.559930 0.499980 0.650990 -0.526329
O5    O     O_R   0.382900 0.321920 0.499980 -0.601185
O6    O     O_R   0.617040 0.321960 0.500020 -0.526259
O7    O     O_R   0.440070 0.500020 0.349010 -0.547252
O8    O     O_R   0.674200 0.500060 0.349050 -0.562567
O9    O     O_3   0.844223 0.382510 0.181419 -0.538559
C25   C     C_3   0.969832 0.453955 0.146304 -0.231268
H4    H     H_    0.044143 0.429167 0.190638 0.179176
H5    H     H_    0.944662 0.553501 0.160123 0.166499
H6    H     H_    0.028701 0.434873 0.062700 0.170982
O10   O     O_3   0.373353 0.078127 0.578161 -0.732471
H7    H     H_    0.299844 0.142124 0.609738 0.335087
O11   O     O_3   0.418299 0.914998 0.419028 -0.696810
H8    H     H_    0.359048 0.849883 0.400984 0.365293
O12   O     O_3   0.109557 0.709570 0.528109 -0.619160
C26   C     C_3   0.087369 0.766991 0.626805 -0.249594
H9    H     H_    0.024126 0.713381 0.694174 0.174945
H10   H     H_    0.031581 0.855874 0.628513 0.165345
H11   H     H_    0.192533 0.787676 0.638368 0.226695
O13   O     O_3   0.093357 0.388867 0.521403 -0.532964
C27   C     C_3   0.144978 0.313379 0.430788 -0.031015
H12   H     H_    0.190295 0.227550 0.450718 0.159448
H13   H     H_    0.226279 0.357096 0.364241 0.157292
H14   H     H_    0.053257 0.283614 0.404348 0.149604
O14   O     O_3   0.808385 0.597382 0.662454 -0.623896
C28   C     C_3   0.757821 0.719336 0.667965 -0.337940
H15   H     H_    0.640430 0.719806 0.679319 0.200161
H16   H     H_    0.813295 0.775257 0.599151 0.146600
H17   H     H_    0.772242 0.765202 0.738203 0.167227
O15   O     O_3   0.938412 0.485563 0.404571 -0.699361
H18   H     H_    0.890126 0.427150 0.369847 0.391771
O16   O     O_3   0.878518 0.291741 0.986266 -0.710879
H19   H     H_    0.909894 0.298637 0.909503 0.309826
O17   O     O_3   0.397016 0.575213 0.189331 -0.706265
H20   H     H_    0.318439 0.531251 0.171616 0.328064
O18   O     O_3   0.164592 0.631041 0.814466 -0.583176
C29   C     C_3   0.044390 0.556241 0.858862 -0.261124
H21   H     H_    0.074913 0.457477 0.850873 0.161408
H22   H     H_    0.963746 0.568842 0.817307 0.192840
H23   H     H_    0.991207 0.582604 0.942053 0.168572
O19   O     O_3   0.181227 0.766842 0.986514 -0.563578
C30   C     C_3   0.240615 0.873782 0.933603 -0.247122
H24   H     H_    0.254304 0.865081 0.848588 0.175522
H25   H     H_    0.345246 0.896753 0.946199 0.144732
H26   H     H_    0.165265 0.951298 0.965411 0.198886
O20   O     O_3   0.542377 0.294055 0.756857 -0.749701
H27   H     H_    0.613989 0.226267 0.742310 0.318411
O21   O     O_3   0.744537 0.123931 0.414093 -0.595529
C31   C     C_3   0.846198 0.042637 0.347727 -0.261697
H28   H     H_    0.797852 0.987623 0.296788 0.179890
H29   H     H_    0.894825 0.982493 0.393616 0.163118
H30   H     H_    0.934528 0.097238 0.296003 0.199493

loop_
_geom_bond_atom_site_label_1
_geom_bond_atom_site_label_2
_ccdc_geom_bond_type
C27   H12   S    
C25   H4    S    
C30   H26   S    
C15   O11   S    
C4    C8    A    
C1    O2    A    
C5    C20   A    
O10   H7    S    
C10   C22   A    
N1    O13   S    
C13   C18   S    
C28   H17   S    
C19   O8    A    
C20   O16   S    
C19   C21   S    
C18   O6    A    
C30   H25   S    
C3    C7    A    
C5    C6    A    
C11   C14   S    
Cu2   O8    S    
C16   N1    D    
C28   H16   S    
C24   H3    S    
C9    C20   A    
O17   H20   S    
C6    H2    S    
C31   H28   S    
C16   C17   S    
C26   H10   S    
C23   C24   A    
O18   C29   S    
C1    C15   S    
C14   H1    S    
Cu1   O3    S    
Cu1   O1    S    
O16   H19   S    
Cu2   N2    S    
C25   H5    S    
C26   H9    S    
C11   O21   S    
C26   H11   S    
C30   H24   S    
C29   H22   S    
C4    C5    A    
Cu1   Cu2   S    
O21   C31   S    
C1    O1    A    
C28   H15   S    
C2    C4    A    
O19   C30   S    
C19   O7    A    
Cu1   O7    S    
Cu2   O2    S    
O11   H8    S    
C8    C21   A    
C16   O12   S    
C12   O4    A    
C10   C12   S    
C17   O14   S    
O9    C25   S    
C31   H29   S    
C8    O17   S    
C27   H13   S    
C2    C24   A    
C17   N2    D    
C25   H6    S    
C12   O3    A    
Cu1   N1    S    
O13   C27   S    
C14   C15   D    
N2    O15   S    
C23   O19   S    
O20   H27   S    
C29   H23   S    
Cu2   O6    S    
C6    C7    A    
O15   H18   S    
C2    C3    A    
C29   H21   S    
C3    C10   A    
C13   O10   S    
C11   C13   D    
C9    C21   A    
C9    O9    S    
Cu1   O5    S    
Cu2   O4    S    
O14   C28   S    
C31   H30   S    
O12   C26   S    
C27   H14   S    
C22   C23   A    
C18   O5    A    
C22   O18   S    
C7    O20   S    
