data_mof_unit_62153.cif
_audit_creation_date              2012-12-10T18:12:04-0500
_audit_creation_method            fapswitch 2.2
_symmetry_space_group_name_H-M    P1
_symmetry_Int_Tables_number       1
_space_group_crystal_system       triclinic
_cell_length_a                    28.510309
_cell_length_b                    18.370214
_cell_length_c                    18.3685
_cell_angle_alpha                 89.998818
_cell_angle_beta                  130.308265
_cell_angle_gamma                 89.998608
_cell_volume                      7336.22102803

loop_
_atom_site_label
_atom_site_type_symbol
_atom_type_description
_atom_site_fract_x
_atom_site_fract_y
_atom_site_fract_z
_atom_type_partial_charge
C1    C     C_R   0.500289 0.000025 0.360404 0.837608
C2    C     C_R   0.499702 0.000025 0.639586 0.837210
C3    C     C_R   0.000292 0.500026 0.360407 0.837436
C4    C     C_R   0.999707 0.500025 0.639591 0.837345
C5    C     C_R   0.814152 0.002711 0.813908 -0.071857
C6    C     C_R   0.185854 0.002711 0.186104 -0.072019
C7    C     C_R   0.314150 0.502701 0.813901 -0.071874
C8    C     C_R   0.685850 0.502704 0.186098 -0.071918
C9    C     C_R   0.780444 0.048747 0.733242 0.002395
C10   C     C_R   0.219550 0.048665 0.266851 0.002513
C11   C     C_R   0.280447 0.548728 0.733223 0.002417
C12   C     C_R   0.719548 0.548717 0.266786 0.002437
C13   C     C_R   0.716399 0.047127 0.671652 -0.226629
C14   C     C_R   0.283598 0.047041 0.328469 -0.226774
C15   C     C_R   0.216401 0.547110 0.671621 -0.226668
C16   C     C_R   0.783595 0.547102 0.328391 -0.226682
C17   C     C_R   0.685827 0.000006 0.688571 -0.067771
C18   C     C_R   0.314178 0.000020 0.311470 -0.067738
C19   C     C_R   0.185825 0.500008 0.688552 -0.067783
C20   C     C_R   0.814175 0.500017 0.311451 -0.067768
C21   C     C_R   0.719535 0.953317 0.768586 0.026311
C22   C     C_R   0.280486 0.953448 0.231360 0.026058
C23   C     C_R   0.219528 0.453337 0.768581 0.026221
C24   C     C_R   0.780479 0.453366 0.231410 0.026182
C25   C     C_R   0.801296 0.093208 0.628050 -0.135283
C26   C     C_R   0.198702 0.092996 0.372097 -0.135372
C27   C     C_R   0.301320 0.593166 0.628047 -0.135275
C28   C     C_R   0.698667 0.593105 0.371968 -0.135298
C29   C     C_R   0.827884 0.143124 0.606668 -0.124612
C30   C     C_R   0.172088 0.142842 0.393506 -0.124615
C31   C     C_R   0.327918 0.643071 0.606672 -0.124651
C32   C     C_R   0.672060 0.642989 0.393350 -0.124602
C33   C     C_R   0.862932 0.200943 0.668729 -0.103133
C34   C     C_R   0.136994 0.200655 0.331463 -0.103155
C35   C     C_R   0.362961 0.700895 0.668724 -0.103166
C36   C     C_R   0.637010 0.700821 0.331309 -0.103057
C37   C     C_R   0.871495 0.208872 0.752298 -0.113391
C38   C     C_R   0.128413 0.208653 0.247886 -0.113317
C39   C     C_R   0.371508 0.708841 0.752278 -0.113389
C40   C     C_R   0.628464 0.708797 0.247760 -0.113358
C41   C     C_R   0.845531 0.158639 0.774518 -0.123919
C42   C     C_R   0.154409 0.158494 0.225644 -0.123706
C43   C     C_R   0.345533 0.658619 0.774491 -0.123906
C44   C     C_R   0.654449 0.658596 0.225540 -0.123884
C45   C     C_R   0.618942 0.999936 0.620498 0.786073
C46   C     C_R   0.381059 0.999941 0.379519 0.786404
C47   C     C_R   0.118942 0.499937 0.620490 0.786185
C48   C     C_R   0.881058 0.499940 0.379512 0.786270
C49   C     C_R   0.810275 0.100398 0.712449 0.115159
C50   C     C_R   0.189707 0.100252 0.287689 0.115237
C51   C     C_R   0.310283 0.600372 0.712432 0.115185
C52   C     C_R   0.689706 0.600341 0.287587 0.115190
C53   C     C_1   0.500510 0.000163 0.283095 -0.182561
C54   C     C_1   0.499482 0.000164 0.716897 -0.182989
C55   C     C_1   0.000514 0.500166 0.283098 -0.182742
C56   C     C_1   0.999486 0.500163 0.716901 -0.182858
C57   C     C_1   0.500421 0.000202 0.217703 -0.182978
C58   C     C_1   0.499576 0.000204 0.782295 -0.182807
C59   C     C_1   0.000422 0.500205 0.217704 -0.182849
C60   C     C_1   0.999578 0.500202 0.782296 -0.182876
C61   C     C_R   0.000002 0.139921 0.000002 0.834099
C62   C     C_R   0.500001 0.639921 0.000000 0.834153
C63   C     C_R   0.881041 0.001558 0.880890 0.784729
C64   C     C_R   0.118961 0.001549 0.119112 0.784676
C65   C     C_R   0.381040 0.501550 0.880889 0.784723
C66   C     C_R   0.618960 0.501549 0.119111 0.784710
C67   C     C_R   0.999999 0.860132 0.999999 0.838460
C68   C     C_R   0.499999 0.360132 1.000000 0.838437
C69   C     C_R   0.499999 0.139721 0.999999 0.838121
C70   C     C_R   0.999999 0.639721 0.999999 0.838128
C71   C     C_R   0.500101 0.000068 0.139839 0.831314
C72   C     C_R   0.499899 0.000069 0.860160 0.831371
C73   C     C_R   0.000101 0.500070 0.139839 0.831357
C74   C     C_R   0.999899 0.500069 0.860160 0.831345
C75   C     C_R   0.500001 0.860266 0.000001 0.824831
C76   C     C_R   0.000002 0.360266 0.000002 0.824840
C77   C     C_1   0.000005 0.217438 0.000005 -0.196839
C78   C     C_1   0.500003 0.717437 0.000002 -0.196781
C79   C     C_R   0.672470 0.780111 0.817908 0.433825
C80   C     C_R   0.328154 0.780598 0.182442 0.433581
C81   C     C_R   0.172237 0.280186 0.817642 0.433603
C82   C     C_R   0.827970 0.280283 0.182582 0.433652
C83   C     C_1   0.500004 0.782734 0.000003 -0.205221
C84   C     C_1   0.000005 0.282734 0.000006 -0.205184
C85   C     C_1   0.999997 0.782582 0.999999 -0.165577
C86   C     C_1   0.499997 0.282582 0.999999 -0.165585
C87   C     C_1   0.499997 0.217276 0.999998 -0.156808
C88   C     C_1   0.999996 0.717276 0.999998 -0.156799
C89   C     C_R   0.698834 0.827697 0.793737 -0.186121
C90   C     C_R   0.301752 0.827982 0.206736 -0.185420
C91   C     C_R   0.198628 0.327727 0.793471 -0.185952
C92   C     C_R   0.801540 0.327788 0.206721 -0.185730
C93   C     C_R   0.689751 0.903127 0.790925 0.050875
C94   C     C_R   0.310308 0.903486 0.208898 0.050805
C95   C     C_R   0.189726 0.403206 0.790937 0.050996
C96   C     C_R   0.810295 0.403268 0.209046 0.050856
C97   C     C_R   0.654609 0.930419 0.813661 -0.117215
C98   C     C_R   0.344971 0.931065 0.185429 -0.118562
C99   C     C_R   0.154743 0.430596 0.813946 -0.117695
C100  C     C_R   0.845169 0.430698 0.185864 -0.117912
C101  C     C_R   0.628864 0.882723 0.838732 -0.183227
C102  C     C_R   0.370729 0.883570 0.160197 -0.183554
C103  C     C_R   0.128989 0.382947 0.839048 -0.183195
C104  C     C_R   0.870961 0.383084 0.160791 -0.183283
C105  C     C_R   0.637513 0.807697 0.840439 -0.150222
C106  C     C_R   0.362599 0.808465 0.159113 -0.149942
C107  C     C_R   0.137452 0.307870 0.840476 -0.150154
C108  C     C_R   0.862647 0.308006 0.159572 -0.150089
C109  C     C_R   0.783572 0.955635 0.830849 -0.212050
C110  C     C_R   0.216451 0.955736 0.169091 -0.211897
C111  C     C_R   0.283564 0.455639 0.830846 -0.212019
C112  C     C_R   0.716443 0.455661 0.169143 -0.211958
Cu1   Cu    Cu3+1 0.500000 0.927480 0.500000 0.997282
Cu2   Cu    Cu3+1 0.000000 0.427480 0.500000 0.997287
Cu3   Cu    Cu3+1 0.500000 0.072500 0.500000 0.979011
Cu4   Cu    Cu3+1 0.000000 0.572500 0.500000 0.979050
Cu5   Cu    Cu3+1 0.999980 0.000040 0.072510 0.995456
Cu6   Cu    Cu3+1 0.000020 0.000040 0.927490 0.995382
Cu7   Cu    Cu3+1 0.499980 0.500040 0.072510 0.995527
Cu8   Cu    Cu3+1 0.500020 0.500040 0.927490 0.995324
Cu9   Cu    Cu3+1 0.561800 0.999990 0.061810 0.990322
Cu10  Cu    Cu3+1 0.438200 0.999990 0.938190 0.990206
Cu11  Cu    Cu3+1 0.061800 0.499990 0.061810 0.990099
Cu12  Cu    Cu3+1 0.938200 0.499990 0.938190 0.990387
H1    H     H_    0.617339 0.771138 0.859762 0.163581
H2    H     H_    0.382784 0.772060 0.139667 0.163520
H3    H     H_    0.117266 0.271346 0.859815 0.163537
H4    H     H_    0.882863 0.271510 0.140259 0.163519
H5    H     H_    0.883190 0.239811 0.651835 0.134647
H6    H     H_    0.116712 0.239466 0.348376 0.134686
H7    H     H_    0.383227 0.739754 0.651835 0.134617
H8    H     H_    0.616736 0.739663 0.348203 0.134699
H9    H     H_    0.897957 0.254245 0.799472 0.141762
H10   H     H_    0.101910 0.254017 0.200719 0.141671
H11   H     H_    0.397966 0.754217 0.799446 0.141745
H12   H     H_    0.601999 0.754178 0.200599 0.141742
H13   H     H_    0.852224 0.165573 0.839259 0.116689
H14   H     H_    0.147702 0.165481 0.160896 0.116569
H15   H     H_    0.352215 0.665565 0.839222 0.116697
H16   H     H_    0.647768 0.665565 0.160812 0.116679
H17   H     H_    0.726249 0.806047 0.777032 0.161289
H18   H     H_    0.274717 0.806120 0.224039 0.161247
H19   H     H_    0.225918 0.306005 0.776542 0.161269
H20   H     H_    0.774337 0.306038 0.223790 0.161257
H21   H     H_    0.647873 0.988496 0.813169 0.132114
H22   H     H_    0.351312 0.989199 0.185467 0.132919
H23   H     H_    0.148143 0.488709 0.813646 0.132318
H24   H     H_    0.851657 0.488812 0.186012 0.132607
H25   H     H_    0.602520 0.903844 0.857503 0.161139
H26   H     H_    0.396680 0.904910 0.140823 0.161565
H27   H     H_    0.102781 0.404143 0.858055 0.161205
H28   H     H_    0.897083 0.404309 0.141650 0.161305
H29   H     H_    0.809816 0.920194 0.892815 0.158692
H30   H     H_    0.190229 0.920364 0.107061 0.158819
H31   H     H_    0.309799 0.420201 0.892818 0.158702
H32   H     H_    0.690215 0.420234 0.107164 0.158730
H33   H     H_    0.690149 0.082604 0.609722 0.153986
H34   H     H_    0.309843 0.082448 0.390463 0.153898
H35   H     H_    0.190153 0.582577 0.609681 0.153972
H36   H     H_    0.809839 0.582557 0.390339 0.153959
H37   H     H_    0.773866 0.048893 0.579082 0.131435
H38   H     H_    0.226163 0.048680 0.421047 0.131428
H39   H     H_    0.273895 0.548845 0.579087 0.131420
H40   H     H_    0.726096 0.548777 0.420918 0.131431
H41   H     H_    0.821047 0.137199 0.541740 0.143473
H42   H     H_    0.178938 0.136865 0.458440 0.143500
H43   H     H_    0.321093 0.637133 0.541755 0.143429
H44   H     H_    0.678883 0.637028 0.458262 0.143483
O1    O     O_R   0.500010 0.938760 0.394210 -0.576290
O2    O     O_R   0.499990 0.938760 0.605790 -0.576450
O3    O     O_R   0.000010 0.438760 0.394210 -0.576372
O4    O     O_R   0.999990 0.438760 0.605790 -0.576386
O5    O     O_R   0.552180 0.999990 0.157990 -0.582262
O6    O     O_R   0.447820 0.999990 0.842010 -0.582316
O7    O     O_R   0.052180 0.499990 0.157990 -0.582309
O8    O     O_R   0.947820 0.499990 0.842010 -0.582285
O9    O     O_R   0.447790 0.000000 0.053610 -0.579338
O10   O     O_R   0.552210 0.000000 0.946390 -0.579138
O11   O     O_R   0.947790 0.500000 0.053610 -0.579177
O12   O     O_R   0.052210 0.500000 0.946390 -0.579268
O13   O     O_R   0.552190 0.894190 0.052180 -0.585803
O14   O     O_R   0.447810 0.894190 0.947820 -0.585856
O15   O     O_R   0.052190 0.394190 0.052180 -0.585796
O16   O     O_R   0.947810 0.394190 0.947820 -0.585850
O17   O     O_R   0.499990 0.061230 0.394210 -0.579930
O18   O     O_R   0.500010 0.061230 0.605790 -0.579830
O19   O     O_R   0.999990 0.561230 0.394210 -0.579860
O20   O     O_R   0.000010 0.561230 0.605790 -0.579867
O21   O     O_R   0.590180 0.938760 0.590180 -0.574956
O22   O     O_R   0.409820 0.938760 0.409820 -0.575004
O23   O     O_R   0.090180 0.438760 0.590180 -0.574971
O24   O     O_R   0.909820 0.438760 0.409820 -0.574985
O25   O     O_R   0.590160 0.061230 0.590180 -0.586067
O26   O     O_R   0.409840 0.061230 0.409820 -0.586079
O27   O     O_R   0.090160 0.561230 0.590180 -0.586076
O28   O     O_R   0.909840 0.561230 0.409820 -0.586057
O29   O     O_R   0.999970 0.105830 0.061210 -0.575133
O30   O     O_R   0.000030 0.105830 0.938790 -0.575100
O31   O     O_R   0.499970 0.605830 0.061210 -0.575057
O32   O     O_R   0.500030 0.605830 0.938790 -0.575149
O33   O     O_R   0.909810 0.000030 0.971060 -0.581574
O34   O     O_R   0.090190 0.000030 0.028940 -0.581618
O35   O     O_R   0.409810 0.500030 0.971060 -0.581549
O36   O     O_R   0.590190 0.500030 0.028940 -0.581608
O37   O     O_R   0.909820 0.000000 0.848600 -0.576593
O38   O     O_R   0.090180 0.000000 0.151400 -0.576572
O39   O     O_R   0.409820 0.500000 0.848600 -0.576607
O40   O     O_R   0.590180 0.500000 0.151400 -0.576587
O41   O     O_R   0.000000 0.894230 0.061260 -0.579575
O42   O     O_R   0.000000 0.894230 0.938740 -0.579602
O43   O     O_R   0.500000 0.394230 0.061260 -0.579594
O44   O     O_R   0.500000 0.394230 0.938740 -0.579604
O45   O     O_R   0.552180 0.105790 0.052210 -0.574672
O46   O     O_R   0.447820 0.105790 0.947790 -0.574636
O47   O     O_R   0.052180 0.605790 0.052210 -0.574745
O48   O     O_R   0.947820 0.605790 0.947790 -0.574577
Cl1   Cl    Cl    0.683759 0.685952 0.820856 -0.613205
Cl2   Cl    Cl    0.317532 0.686330 0.180308 -0.613193
Cl3   Cl    Cl    0.183277 0.185956 0.820211 -0.613149
Cl4   Cl    Cl    0.817117 0.186050 0.180274 -0.613106

loop_
_geom_bond_atom_site_label_1
_geom_bond_atom_site_label_2
_ccdc_geom_bond_type
Cu8   O44   S    
Cu10  O9    S    
C99   C103  A    
C81   C107  A    
C8    C66   S    
C55   C59   T    
C42   H14   S    
C68   C86   S    
C107  H3    S    
C14   C18   A    
C35   C39   A    
C24   C112  A    
C72   O10   A    
C70   C88   S    
C76   C84   S    
C26   C50   A    
C68   O43   A    
Cu11  Cu12  S    
C39   H11   S    
Cu2   O4    S    
Cu1   O22   S    
Cu4   O20   S    
Cu9   O45   S    
C5    C63   S    
C5    C9    A    
C5    C109  A    
C14   H34   S    
C37   C41   A    
Cu7   O31   S    
C70   O47   A    
C32   C36   A    
C47   O27   A    
C17   C45   S    
C62   O31   A    
Cu12  O16   S    
Cu11  O47   S    
C8    C112  A    
C54   C58   T    
Cu3   O17   S    
C9    C13   A    
C19   C47   S    
C79   Cl1   S    
C16   H36   S    
C94   C98   A    
C6    C64   S    
C81   Cl3   S    
C80   C106  A    
C100  C104  A    
C82   C92   A    
C79   C105  A    
C67   O42   A    
C29   H41   S    
C1    C53   S    
Cu12  O11   S    
Cu11  O15   S    
C101  H25   S    
C27   H39   S    
C15   C19   A    
Cu4   O27   S    
C3    C55   S    
C78   C83   T    
Cu9   O5    S    
C20   C24   A    
C29   C33   A    
C25   H37   S    
C22   C110  A    
C82   Cl4   S    
Cu10  O46   S    
C43   H15   S    
C82   C108  A    
C76   O15   A    
C109  H29   S    
C59   C73   S    
Cu1   O21   S    
C41   H13   S    
C69   C87   S    
C8    C12   A    
C66   O36   A    
C44   C52   A    
C104  C108  A    
Cu3   O25   S    
C43   C51   A    
C44   H16   S    
C34   C38   A    
C48   O28   A    
C25   C29   A    
C73   O7    A    
C22   C94   S    
Cu6   O34   S    
C61   O30   A    
C11   C15   A    
C46   O22   A    
Cu5   O33   S    
C18   C46   S    
C41   C49   A    
C12   C52   S    
C27   C51   A    
C90   C94   A    
Cu10  O14   S    
C91   H19   S    
C13   H33   S    
C92   C96   A    
C101  C105  A    
Cu2   O3    S    
Cu4   O19   S    
C67   C85   S    
Cu2   O24   S    
C30   C34   A    
C27   C31   A    
C12   C16   A    
C28   C32   A    
Cu6   O37   S    
C9    C49   S    
C30   H42   S    
C108  H4    S    
Cu5   O38   S    
C2    C54   S    
C61   O29   A    
Cu3   O18   S    
C53   C57   T    
C86   C87   T    
Cu1   O1    S    
C98   H22   S    
C77   C84   T    
C98   C102  A    
C64   O38   A    
C26   H38   S    
C89   C93   A    
C33   C37   A    
C56   C60   T    
C46   O26   A    
C45   O25   A    
C73   O11   A    
C6    C110  A    
C19   C23   A    
C17   C21   A    
C2    O18   A    
C74   O8    A    
C110  H30   S    
C7    C65   S    
C66   O40   A    
Cu2   Cu4   S    
C65   O35   A    
C36   C40   A    
C16   C20   A    
C97   C101  A    
C24   C96   S    
Cu7   O35   S    
C104  H28   S    
C20   C48   S    
C57   C71   S    
Cu9   Cu10  S    
C90   H18   S    
Cu9   O10   S    
C42   C50   A    
Cu12  O8    S    
C45   O21   A    
C112  H32   S    
Cu3   O26   S    
C102  H26   S    
C26   C30   A    
C72   O6    A    
C3    O3    A    
C10   C14   A    
Cu8   O36   S    
C37   H9    S    
C10   C50   S    
Cu6   O30   S    
C93   C97   A    
C1    O1    A    
Cu4   O28   S    
Cu5   O29   S    
C28   H40   S    
Cu9   O13   S    
Cu12  O48   S    
C85   C88   T    
C33   H5    S    
C61   C77   S    
C99   H23   S    
Cu2   O23   S    
C4    O4    A    
C36   H8    S    
C18   C22   A    
Cu8   O39   S    
C97   H21   S    
C62   C78   S    
C75   O13   A    
C69   O46   A    
C31   H43   S    
Cu11  O12   S    
C64   O34   A    
C3    O19   A    
C15   H35   S    
C6    C10   A    
Cu11  O7    S    
Cu7   Cu8   S    
C47   O23   A    
C38   C42   A    
Cu1   O2    S    
C65   O39   A    
C103  H27   S    
C23   C111  A    
C106  H2    S    
Cu7   O43   S    
C69   O45   A    
C105  H1    S    
C58   C72   S    
Cu6   O42   S    
C70   O48   A    
C1    O17   A    
C71   O9    A    
Cu5   O41   S    
C35   H7    S    
C62   O32   A    
C2    O2    A    
Cu10  O6    S    
Cu5   Cu6   S    
C80   Cl2   S    
C28   C52   A    
C75   C83   S    
C21   C93   S    
C100  H24   S    
C89   H17   S    
C96   C100  A    
C31   C35   A    
C60   C74   S    
Cu8   O32   S    
C7    C111  A    
C67   O41   A    
C95   C99   A    
C38   H10   S    
C80   C90   A    
C92   H20   S    
C25   C49   A    
C48   O24   A    
C11   C51   S    
C91   C95   A    
C13   C17   A    
C81   C91   A    
C71   O5    A    
C40   C44   A    
C74   O12   A    
C34   H6    S    
C63   O37   A    
C102  C106  A    
C32   H44   S    
C63   O33   A    
C23   C95   S    
C79   C89   A    
C103  C107  A    
Cu7   O40   S    
C40   H12   S    
C76   O16   A    
C75   O14   A    
C111  H31   S    
C39   C43   A    
C4    C56   S    
C4    O20   A    
C7    C11   A    
C21   C109  A    
Cu1   Cu3   S    
C68   O44   A    
