data_mof_unit_68477.cif
_audit_creation_date              2012-12-10T16:55:48-0500
_audit_creation_method            fapswitch 2.2
_symmetry_space_group_name_H-M    P1
_symmetry_Int_Tables_number       1
_space_group_crystal_system       triclinic
_cell_length_a                    8.033485
_cell_length_b                    8.851496
_cell_length_c                    10.675859
_cell_angle_alpha                 95.825151
_cell_angle_beta                  83.419023
_cell_angle_gamma                 90.814034
_cell_volume                      750.243999684

loop_
_atom_site_label
_atom_site_type_symbol
_atom_type_description
_atom_site_fract_x
_atom_site_fract_y
_atom_site_fract_z
_atom_type_partial_charge
C1    C     C_R   0.541068 0.792149 0.492053 0.973875
C2    C     C_3   0.493412 0.499394 0.876828 -0.431399
C3    C     C_3   0.372666 0.408980 0.045302 0.543281
C4    C     C_3   0.626618 0.577113 0.952399 0.520850
C5    C     C_2   0.555883 0.947780 0.463772 -0.034841
C6    C     C_2   0.432621 0.049471 0.511684 -0.036456
C7    C     C_3   0.194520 0.633079 0.962140 -0.289721
C8    C     C_3   0.095183 0.690194 0.087291 -0.792912
C9    C     C_3   0.810716 0.350166 0.019197 -0.285789
C10   C     C_3   0.884455 0.269086 0.891807 -0.722573
C11   C     C_3   0.024167 0.320697 0.399568 -0.159626
C12   C     C_R   0.457575 0.207576 0.499915 0.917908
C13   C     C_3   0.949192 0.280827 0.279167 -0.836765
C14   C     C_3   0.963348 0.610437 0.652149 -0.083734
C15   C     C_3   0.045787 0.750039 0.707310 -0.921233
C16   C     C_3   0.702473 0.991691 0.369689 -0.426366
C17   C     C_3   0.796269 0.865446 0.283185 -0.746691
C18   C     C_3   0.267616 0.016027 0.590359 -0.466656
C19   C     C_3   0.289768 0.028432 0.730826 -0.713463
C20   C     C_R   0.498058 0.501392 0.741941 0.997972
C21   C     C_R   0.501598 0.492969 0.257418 0.977480
C22   C     C_3   0.354419 0.555380 0.981721 -0.122705
C23   C     C_3   0.645887 0.430367 0.014786 -0.130911
C24   C     C_3   0.488631 0.632891 0.057460 0.558552
C25   C     C_3   0.510816 0.353486 0.940036 0.559055
C26   C     C_3   0.506846 0.486831 0.121090 -0.425574
F1    F     F_    0.476987 0.778855 0.117608 -0.647403
F2    F     F_    0.527423 0.207063 0.882724 -0.663553
F3    F     F_    0.245064 0.316649 0.090854 -0.676976
F4    F     F_    0.752990 0.669493 0.906046 -0.691372
H1    H     H_    0.089387 0.604058 0.156127 0.269656
H2    H     H_    0.786896 0.263162 0.086238 0.226821
H3    H     H_    0.813380 0.265642 0.298020 0.269120
H4    H     H_    0.975934 0.376631 0.222140 0.283959
H5    H     H_    0.006244 0.175237 0.227966 0.273502
H6    H     H_    0.156551 0.335437 0.368264 0.267666
H7    H     H_    0.005271 0.227049 0.461079 0.152764
H8    H     H_    0.182942 0.738319 0.694609 0.304288
H9    H     H_    0.999428 0.849331 0.666305 0.242269
H10   H     H_    0.003537 0.771301 0.809622 0.296663
H11   H     H_    0.841792 0.653364 0.636835 0.261516
H12   H     H_    0.152558 0.795516 0.129236 0.296514
H13   H     H_    0.952232 0.525838 0.721810 0.198533
H14   H     H_    0.890255 0.811781 0.333097 0.262257
H15   H     H_    0.709460 0.778484 0.246014 0.306587
H16   H     H_    0.865114 0.917298 0.202061 0.242752
H17   H     H_    0.650998 0.064185 0.304288 0.231214
H18   H     H_    0.796191 0.054008 0.423478 0.232869
H19   H     H_    0.389320 0.950850 0.749887 0.281619
H20   H     H_    0.321050 0.147952 0.759033 0.305166
H21   H     H_    0.171235 0.006359 0.789756 0.238796
H22   H     H_    0.166606 0.097259 0.583029 0.213140
H23   H     H_    0.966295 0.715308 0.068670 0.275075
H24   H     H_    0.205152 0.916581 0.548876 0.247485
H25   H     H_    0.230193 0.731822 0.908791 0.223433
H26   H     H_    0.117864 0.552010 0.906649 0.233688
H27   H     H_    0.836989 0.150577 0.880776 0.291263
H28   H     H_    0.850917 0.327271 0.811438 0.258368
H29   H     H_    0.023073 0.264518 0.887623 0.245542
H30   H     H_    0.900397 0.437281 0.050222 0.228338
N1    N     N_2   0.950320 0.457950 0.465730 -0.058022
N2    N     N_2   0.049680 0.542050 0.534270 -0.065438
O1    O     O_R   0.389250 0.738570 0.508410 -0.637862
O2    O     O_R   0.610750 0.261430 0.491590 -0.644105
O3    O     O_R   0.678390 0.711620 0.486450 -0.646778
O4    O     O_R   0.321610 0.288380 0.513550 -0.670100
O5    O     O_R   0.355460 0.513510 0.697030 -0.643464
O6    O     O_R   0.644540 0.486490 0.302970 -0.646306
O7    O     O_R   0.644600 0.486560 0.675070 -0.638004
O8    O     O_R   0.355400 0.513440 0.324930 -0.607737
Zn1   Zn    Zn3+2 0.306940 0.517990 0.514670 0.933098
Zn2   Zn    Zn3+2 0.693060 0.482010 0.485330 0.921598

loop_
_geom_bond_atom_site_label_1
_geom_bond_atom_site_label_2
_ccdc_geom_bond_type
C8    H23   S    
C2    C22   S    
O7    Zn2   S    
C2    C4    S    
C21   C26   S    
C15   H8    S    
C13   H3    S    
O8    Zn1   S    
C7    C22   S    
C9    C10   S    
C19   H19   S    
C20   O5    A    
C1    O3    A    
O4    Zn1   S    
C24   F1    S    
C7    H25   S    
C21   O8    A    
O6    Zn2   S    
C9    H30   S    
C16   H18   S    
O2    Zn2   S    
C10   H29   S    
C17   H14   S    
C18   H22   S    
C7    C8    S    
C25   F2    S    
C11   C13   S    
C19   H20   S    
C15   H9    S    
N1    N2    D    
C7    H26   S    
C14   H11   S    
C1    C5    S    
C1    O1    A    
C16   H17   S    
C11   H6    S    
C10   H28   S    
C8    H12   S    
N2    Zn1   S    
C13   H5    S    
C2    C25   S    
O5    Zn1   S    
C23   C25   S    
C21   O6    A    
C6    C12   S    
C5    C6    D    
C4    C24   S    
C6    C18   S    
C22   C24   S    
C15   H10   S    
C18   H24   S    
C2    C20   S    
O3    Zn2   S    
C19   H21   S    
C3    C25   S    
C10   H27   S    
C17   H16   S    
N1    Zn2   S    
C24   C26   S    
C11   H7    S    
C18   C19   S    
C23   C26   S    
C3    F3    S    
C12   O2    A    
C14   H13   S    
C20   O7    A    
C9    C23   S    
C5    C16   S    
C13   H4    S    
C9    H2    S    
C11   N1    S    
C4    C23   S    
C14   C15   S    
C8    H1    S    
C12   O4    A    
C3    C26   S    
C4    F4    S    
C17   H15   S    
O1    Zn1   S    
C16   C17   S    
C3    C22   S    
C14   N2    S    
