data_mof_unit_38987.cif
_audit_creation_date              2012-12-10T16:54:53-0500
_audit_creation_method            fapswitch 2.2
_symmetry_space_group_name_H-M    P1
_symmetry_Int_Tables_number       1
_space_group_crystal_system       triclinic
_cell_length_a                    8.032857
_cell_length_b                    8.637788
_cell_length_c                    15.715024
_cell_angle_alpha                 93.368239
_cell_angle_beta                  86.911572
_cell_angle_gamma                 92.229677
_cell_volume                      1086.24100315

loop_
_atom_site_label
_atom_site_type_symbol
_atom_type_description
_atom_site_fract_x
_atom_site_fract_y
_atom_site_fract_z
_atom_type_partial_charge
C1    C     C_R   0.542630 0.791468 0.490480 0.871764
C2    C     C_2   0.432742 0.043105 0.473058 -0.251433
C3    C     C_R   0.503492 0.499634 0.660616 0.881952
C4    C     C_R   0.456178 0.206437 0.494170 0.854777
C5    C     C_R   0.496375 0.499212 0.339326 0.885959
C6    C     C_3   0.416279 0.614316 0.948025 -0.491117
C7    C     C_3   0.702221 0.520903 0.950698 -0.163415
C8    C     C_3   0.692104 0.533945 0.053184 0.130740
C9    C     C_1   0.486311 0.498862 0.250868 -0.084685
C10   C     C_3   0.526451 0.478592 0.915125 0.140754
C11   C     C_2   0.420257 0.782092 0.089166 0.497177
C12   C     C_3   0.384622 0.620940 0.047179 0.151045
C13   C     C_3   0.099975 0.707601 0.032951 -0.760093
C14   C     C_2   0.562990 0.203663 0.079534 0.580290
C15   C     C_3   0.798910 0.962735 0.368142 -0.710214
C16   C     C_2   0.261047 0.987374 0.451027 0.419900
C17   C     C_3   0.948985 0.331427 0.339334 -0.579241
C18   C     C_3   0.073241 0.721215 0.643259 -0.725504
C19   C     C_3   0.907560 0.458713 0.828843 -0.735328
C20   C     C_3   0.770450 0.745607 0.170323 -0.704733
C21   C     C_2   0.820988 0.430773 0.089002 0.382605
C22   C     C_3   0.207514 0.166028 0.868621 -0.713921
C23   C     C_3   0.499408 0.492941 0.082768 -0.028508
C24   C     C_2   0.541063 0.178429 0.901289 0.321333
C25   C     C_2   0.273331 0.267112 0.085991 0.512755
C26   C     C_3   0.444632 0.320156 0.047048 -0.243863
C27   C     C_3   0.445762 0.317091 0.943899 0.143629
C28   C     C_1   0.484818 0.498467 0.175445 -0.025081
C29   C     C_1   0.526702 0.485233 0.823139 0.092871
C30   C     C_1   0.514738 0.492813 0.748681 -0.171282
C31   C     C_2   0.565709 0.950726 0.470639 0.013515
H1    H     H_    0.297772 0.603464 0.914293 0.197587
H2    H     H_    0.813435 0.983970 0.499527 0.243763
H3    H     H_    0.928061 0.010830 0.358868 0.253006
H4    H     H_    0.720544 0.007941 0.319664 0.253967
H5    H     H_    0.803214 0.834563 0.358381 0.252334
H6    H     H_    0.152489 0.038608 0.483910 0.083599
H7    H     H_    0.144975 0.346873 0.415249 0.276636
H8    H     H_    0.948532 0.447134 0.311963 0.255470
H9    H     H_    0.822274 0.277272 0.344412 0.287081
H10   H     H_    0.025749 0.254537 0.295109 0.198434
H11   H     H_    0.858436 0.650248 0.588603 0.278504
H12   H     H_    0.474190 0.724919 0.925766 0.191849
H13   H     H_    0.005109 0.816476 0.678667 0.196338
H14   H     H_    0.196900 0.769862 0.623093 0.271746
H15   H     H_    0.085077 0.626887 0.687276 0.239156
H16   H     H_    0.831590 0.308039 0.926211 0.240334
H17   H     H_    0.043091 0.439535 0.826244 0.237380
H18   H     H_    0.892434 0.581789 0.814911 0.220579
H19   H     H_    0.850575 0.382433 0.778243 0.288148
H20   H     H_    0.735198 0.783610 0.041405 0.244883
H21   H     H_    0.653376 0.754407 0.209842 0.225376
H22   H     H_    0.828318 0.864554 0.172266 0.237733
H23   H     H_    0.735060 0.639060 0.929189 0.160408
H24   H     H_    0.857166 0.670055 0.199425 0.267093
H25   H     H_    0.933137 0.398612 0.052223 0.095778
H26   H     H_    0.184468 0.370425 0.947335 0.251957
H27   H     H_    0.271029 0.152365 0.804259 0.250470
H28   H     H_    0.072309 0.175618 0.860200 0.233081
H29   H     H_    0.223765 0.061146 0.904393 0.264562
H30   H     H_    0.528422 0.066432 0.928715 0.127177
H31   H     H_    0.215292 0.329149 0.140802 0.060187
H32   H     H_    0.403546 0.800445 0.157900 0.095597
H33   H     H_    0.174214 0.573698 0.128013 0.208786
H34   H     H_    0.051760 0.784737 0.086265 0.271386
H35   H     H_    0.002626 0.647614 0.995890 0.256001
H36   H     H_    0.165716 0.787666 0.988584 0.263366
H37   H     H_    0.672522 0.166464 0.041689 0.012929
N1    N     N_2   0.950340 0.457950 0.477370 0.015259
N2    N     N_2   0.049660 0.542050 0.522630 0.033972
N3    N     N_2   0.206619 0.593170 0.065066 -0.352873
N4    N     N_2   0.733024 0.007392 0.453259 -0.267975
N5    N     N_2   0.019307 0.345112 0.421895 -0.263067
N6    N     N_2   0.980926 0.664915 0.570797 -0.218068
N7    N     N_2   0.833810 0.422957 0.912275 -0.317279
N8    N     N_2   0.741017 0.694766 0.081997 -0.328699
N9    N     N_2   0.273476 0.304748 0.914342 -0.297378
O1    O     O_R   0.389240 0.738570 0.505550 -0.593959
O2    O     O_2   0.544322 0.157636 0.151774 -0.537562
O3    O     O_2   0.240212 0.889967 0.392634 -0.554415
O4    O     O_2   0.809028 0.392152 0.162578 -0.586534
O5    O     O_2   0.615962 0.184122 0.831814 -0.597703
O6    O     O_2   0.206474 0.143956 0.062097 -0.566833
O7    O     O_R   0.678400 0.711630 0.491050 -0.651102
O8    O     O_R   0.355360 0.513470 0.630110 -0.616082
O9    O     O_R   0.644510 0.486530 0.615610 -0.641019
O10   O     O_R   0.321600 0.288370 0.508950 -0.668556
O11   O     O_R   0.610760 0.261430 0.494450 -0.563030
O12   O     O_R   0.355490 0.513470 0.384390 -0.630455
O13   O     O_R   0.644640 0.486530 0.369890 -0.612027
O14   O     O_2   0.454064 0.893918 0.047095 -0.617052
Zn1   Zn    Zn3+2 0.306930 0.517990 0.509680 0.975065
Zn2   Zn    Zn3+2 0.693070 0.482010 0.490320 0.972046

loop_
_geom_bond_atom_site_label_1
_geom_bond_atom_site_label_2
_ccdc_geom_bond_type
C10   C27   S    
C7    C10   S    
C6    H1    S    
C24   H30   S    
C3    O8    A    
C19   H19   S    
C24   C27   S    
C8    N8    S    
C7    C8    S    
C4    O10   A    
C13   H34   S    
C1    O7    A    
C15   N4    S    
C12   C23   S    
C26   C27   S    
N1    Zn2   S    
C6    C12   S    
H33   N3    S    
C1    C31   S    
C8    C23   S    
C20   N8    S    
C17   H8    S    
C23   C26   S    
C24   O5    D    
H2    N4    S    
N2    N6    S    
N1    N5    S    
C2    C16   S    
C15   H3    S    
C5    O13   A    
C16   H6    S    
O7    Zn2   S    
C18   N6    S    
O10   Zn1   S    
C3    O9    A    
C17   N5    S    
C1    O1    A    
C20   H24   S    
C18   H15   S    
C15   H4    S    
O8    Zn1   S    
C13   H35   S    
H11   N6    S    
H26   N9    S    
H20   N8    S    
C22   H28   S    
C19   H17   S    
C7    N7    S    
C13   N3    S    
O1    Zn1   S    
C25   C26   S    
C14   O2    D    
C2    C31   D    
C16   O3    D    
C17   H9    S    
C3    C30   S    
C2    C4    S    
C5    C9    S    
C29   C30   T    
O9    Zn2   S    
C18   H13   S    
C19   H18   S    
C8    C21   S    
C23   C28   S    
C14   C26   S    
O12   Zn1   S    
C22   H27   S    
C31   N4    S    
C12   N3    S    
C21   O4    D    
C6    H12   S    
C18   H14   S    
C15   H5    S    
O13   Zn2   S    
C13   H36   S    
O11   Zn2   S    
N2    Zn1   S    
C22   N9    S    
C20   H22   S    
C27   N9    S    
C6    C10   S    
C21   H25   S    
C11   C12   S    
C4    O11   A    
C11   H32   S    
C19   N7    S    
H16   N7    S    
C20   H21   S    
C22   H29   S    
C10   C29   S    
C25   H31   S    
N1    N2    D    
C17   H10   S    
C11   O14   D    
C25   O6    D    
C14   H37   S    
C7    H23   S    
C5    O12   A    
C9    C28   T    
H7    N5    S    
