data_mof_unit_67935.cif
_audit_creation_date              2012-12-10T19:24:02-0500
_audit_creation_method            fapswitch 2.2
_symmetry_space_group_name_H-M    P1
_symmetry_Int_Tables_number       1
_space_group_crystal_system       triclinic
_cell_length_a                    10.492428
_cell_length_b                    10.573392
_cell_length_c                    9.859232
_cell_angle_alpha                 87.925496
_cell_angle_beta                  90.98716
_cell_angle_gamma                 89.001623
_cell_volume                      1092.73126961

loop_
_atom_site_label
_atom_site_type_symbol
_atom_type_description
_atom_site_fract_x
_atom_site_fract_y
_atom_site_fract_z
_atom_type_partial_charge
C1    C     C_R   0.500695 0.258153 0.502483 0.904472
C2    C     C_R   0.499306 0.741848 0.497517 0.904464
C3    C     C_3   0.404364 0.955516 0.573189 0.125464
C4    C     C_3   0.595646 0.044487 0.426810 0.125504
C5    C     C_3   0.454998 0.397158 0.049943 0.257558
C6    C     C_3   0.545002 0.602841 0.950057 0.257561
C7    C     C_3   0.568399 0.408715 0.957478 0.226334
C8    C     C_3   0.431601 0.591285 0.042522 0.226333
C9    C     C_3   0.384272 0.488515 0.949009 -0.212664
C10   C     C_3   0.615728 0.511485 0.050991 -0.212657
C11   C     C_R   0.258248 0.498560 0.498794 0.900293
C12   C     C_R   0.741752 0.501440 0.501206 0.900307
C13   C     C_3   0.044807 0.420056 0.595602 0.184818
C14   C     C_3   0.955192 0.579945 0.404395 0.184813
C15   C     C_3   0.957039 0.381755 0.477961 -0.370497
C16   C     C_3   0.042961 0.618246 0.522035 -0.370497
C17   C     C_3   0.876430 0.501586 0.503768 -0.198803
C18   C     C_3   0.123570 0.498416 0.496229 -0.198808
C19   C     C_3   0.963529 0.537744 0.622421 0.451155
C20   C     C_3   0.036471 0.462258 0.377577 0.451155
C21   C     C_3   0.515545 0.030461 0.631827 0.377369
C22   C     C_3   0.484464 0.969540 0.368171 0.377394
C23   C     C_3   0.610294 0.952443 0.549940 0.086125
C24   C     C_3   0.389715 0.047558 0.450060 0.086148
C25   C     C_3   0.499326 0.876524 0.492758 -0.304499
C26   C     C_3   0.500682 0.123477 0.507242 -0.304527
H1    H     H_    0.920917 0.285379 0.462436 0.164198
H2    H     H_    0.079088 0.714621 0.537561 0.164204
H3    H     H_    0.288080 0.479768 0.901958 0.196377
H4    H     H_    0.711920 0.520234 0.098040 0.196382
N1    N     N_3   0.499910 0.500030 0.863290 -0.146617
N2    N     N_3   0.500090 0.499970 0.136710 -0.146618
O1    O     O_R   0.500010 0.313960 0.616610 -0.588873
O2    O     O_R   0.499990 0.686040 0.383390 -0.588862
O3    O     O_R   0.500060 0.313950 0.383350 -0.626879
O4    O     O_R   0.499940 0.686050 0.616650 -0.626900
O5    O     O_R   0.313930 0.499970 0.616610 -0.617011
O6    O     O_R   0.686070 0.500030 0.383390 -0.617004
O7    O     O_R   0.313980 0.499960 0.383350 -0.597823
O8    O     O_R   0.686020 0.500040 0.616650 -0.597821
Zn1   Zn    Zn3+2 0.499970 0.500010 0.655740 0.974341
Zn2   Zn    Zn3+2 0.500030 0.499990 0.344260 0.974356
N3    N     N_2   0.100949 0.332575 0.697156 -0.274506
H5    H     H_    0.168287 0.272924 0.657401 0.233677
C27   C     C_3   0.010817 0.266522 0.781883 -0.760296
H6    H     H_    0.062173 0.197159 0.851100 0.231702
H7    H     H_    0.942033 0.214939 0.718714 0.226764
H8    H     H_    0.958561 0.334146 0.844766 0.301219
N4    N     N_2   0.899046 0.667421 0.302838 -0.274503
H9    H     H_    0.831702 0.727068 0.342588 0.233684
C28   C     C_3   0.989172 0.733473 0.218106 -0.760293
H10   H     H_    0.937813 0.802845 0.148900 0.231700
H11   H     H_    0.041415 0.665850 0.155211 0.301222
H12   H     H_    0.057968 0.785047 0.281270 0.226769
Cl1   Cl    Cl    0.916604 0.591536 0.783524 -0.673425
Cl2   Cl    Cl    0.083397 0.408465 0.216474 -0.673409
N5    N     N_2   0.728763 0.893243 0.599554 -0.288870
H13   H     H_    0.716098 0.813533 0.660596 0.284685
C29   C     C_3   0.823139 0.976751 0.653543 -0.760674
H14   H     H_    0.914720 0.923741 0.669687 0.247977
H15   H     H_    0.792540 0.012913 0.752111 0.265520
H16   H     H_    0.839546 0.057848 0.582165 0.232586
N6    N     N_2   0.271238 0.106745 0.400456 -0.288848
H17   H     H_    0.283886 0.186469 0.339429 0.284660
C30   C     C_3   0.176878 0.023226 0.346456 -0.760526
H18   H     H_    0.085260 0.076198 0.330418 0.247921
H19   H     H_    0.160560 0.942063 0.417777 0.232567
H20   H     H_    0.207441 0.987156 0.247831 0.265488
Cl3   Cl    Cl    0.534234 0.062664 0.806357 -0.651700
Cl4   Cl    Cl    0.465762 0.937333 0.193643 -0.651710
N7    N     N_2   0.302717 0.899603 0.651618 -0.277795
H21   H     H_    0.258526 0.826443 0.604627 0.215758
C31   C     C_3   0.214856 0.986930 0.712398 -0.758216
H22   H     H_    0.152033 0.933957 0.782911 0.235528
H23   H     H_    0.153859 0.036414 0.633628 0.249679
H24   H     H_    0.266999 0.057674 0.770783 0.278551
N8    N     N_2   0.697294 0.100430 0.348407 -0.277789
H25   H     H_    0.741507 0.173539 0.395467 0.215759
C32   C     C_3   0.785134 0.013133 0.287552 -0.758444
H26   H     H_    0.848151 0.066182 0.217295 0.235510
H27   H     H_    0.732971 0.942616 0.228859 0.278647
H28   H     H_    0.845940 0.963377 0.366312 0.249782
N9    N     N_2   0.647376 0.309037 0.904698 -0.238270
H29   H     H_    0.694948 0.337301 0.818612 0.273759
C33   C     C_3   0.730497 0.243146 0.003160 -0.708883
H30   H     H_    0.780343 0.163760 0.954379 0.246282
H31   H     H_    0.674840 0.203277 0.088236 0.277682
H32   H     H_    0.803090 0.308196 0.042861 0.243284
N10   N     N_2   0.352625 0.690963 0.095302 -0.238251
H33   H     H_    0.305062 0.662704 0.181396 0.273767
C34   C     C_3   0.269492 0.756842 0.996843 -0.708898
H34   H     H_    0.219657 0.836238 0.045620 0.246287
H35   H     H_    0.196890 0.691788 0.957166 0.243278
H36   H     H_    0.325138 0.796695 0.911749 0.277652
N11   N     N_2   0.402743 0.282348 0.108771 -0.259824
H37   H     H_    0.470415 0.221028 0.151640 0.278306
C35   C     C_3   0.310141 0.221444 0.024088 -0.655562
H38   H     H_    0.285604 0.127957 0.069880 0.262567
H39   H     H_    0.348322 0.208520 0.921442 0.269611
H40   H     H_    0.221761 0.280184 0.014655 0.268010
N12   N     N_2   0.597252 0.717654 0.891229 -0.259816
H41   H     H_    0.529575 0.778975 0.848368 0.278313
C36   C     C_3   0.689858 0.778556 0.975910 -0.655628
H42   H     H_    0.714368 0.872061 0.930133 0.262584
H43   H     H_    0.778252 0.719828 0.985306 0.268039
H44   H     H_    0.651694 0.791447 0.078575 0.269592

loop_
_geom_bond_atom_site_label_1
_geom_bond_atom_site_label_2
_ccdc_geom_bond_type
C16   H2    S    
C7    C10   S    
C7    N9    S    
C21   C26   S    
N6    C30   S    
C11   C18   S    
N12   H41   S    
C31   H22   S    
N11   H37   S    
O2    Zn2   S    
C20   Cl2   S    
C35   H38   S    
O4    Zn1   S    
C1    O1    A    
C33   H30   S    
C13   C18   S    
C24   C26   S    
O6    Zn2   S    
C27   H8    S    
C14   N4    S    
C2    O4    A    
C2    C25   S    
C15   C17   S    
C6    N12   S    
C11   O5    A    
O3    Zn2   S    
C5    N11   S    
C8    C9    S    
N4    C28   S    
C22   C25   S    
C12   C17   S    
N10   C34   S    
C18   C20   S    
C9    H3    S    
C5    N2    S    
C2    O2    A    
C27   H7    S    
C6    N1    S    
C29   H14   S    
N12   C36   S    
O5    Zn1   S    
C31   H23   S    
C14   C17   S    
C3    C24   S    
C35   H39   S    
O7    Zn2   S    
N8    C32   S    
C15   C20   S    
C29   H15   S    
C7    N1    S    
C13   C19   S    
C33   H31   S    
C28   H10   S    
C8    N2    S    
C14   C20   S    
C3    C25   S    
C34   H34   S    
C5    C7    S    
C4    C23   S    
C6    C8    S    
C30   H19   S    
N8    H25   S    
C32   H26   S    
C21   Cl3   S    
C28   H11   S    
C12   O8    A    
C3    N7    S    
N3    H5    S    
C5    C9    S    
C34   H35   S    
C4    C22   S    
C10   H4    S    
C15   H1    S    
N9    H29   S    
C30   H20   S    
C27   H6    S    
C36   H43   S    
C11   O7    A    
N3    C27   S    
O8    Zn1   S    
N9    C33   S    
N4    H9    S    
C24   N6    S    
C13   C15   S    
C1    C26   S    
C31   H24   S    
C22   C24   S    
C3    C21   S    
C13   N3    S    
C35   H40   S    
C1    O3    A    
N7    C31   S    
C33   H32   S    
C19   Cl1   S    
C23   N5    S    
C29   H16   S    
N1    Zn1   S    
C6    C10   S    
C32   H28   S    
C4    C26   S    
N11   C35   S    
C32   H27   S    
C28   H12   S    
O1    Zn1   S    
C21   C23   S    
N7    H21   S    
C34   H36   S    
N5    H13   S    
C16   C19   S    
C17   C19   S    
C36   H44   S    
C14   C16   S    
C23   C25   S    
C12   O6    A    
N5    C29   S    
C9    N1    S    
N6    H17   S    
C10   N2    S    
C4    N8    S    
C16   C18   S    
C30   H18   S    
C36   H42   S    
N2    Zn2   S    
C8    N10   S    
N10   H33   S    
C22   Cl4   S    
