data_mof_unit_26697.cif
_audit_creation_date              2012-12-10T20:35:52-0500
_audit_creation_method            fapswitch 2.2
_symmetry_space_group_name_H-M    P1
_symmetry_Int_Tables_number       1
_space_group_crystal_system       triclinic
_cell_length_a                    15.747137
_cell_length_b                    10.679307
_cell_length_c                    9.857135
_cell_angle_alpha                 90.137374
_cell_angle_beta                  89.989193
_cell_angle_gamma                 90.035647
_cell_volume                      1657.65459523

loop_
_atom_site_label
_atom_site_type_symbol
_atom_type_description
_atom_site_fract_x
_atom_site_fract_y
_atom_site_fract_z
_atom_type_partial_charge
C1    C     C_R   0.497265 0.259941 0.499884 0.908973
C2    C     C_3   0.950376 0.429700 0.624037 -0.466633
C3    C     C_3   0.917266 0.503601 0.499803 0.048920
C4    C     C_3   0.949611 0.640240 0.511930 -0.434996
C5    C     C_3   0.048635 0.643159 0.508883 0.847558
C6    C     C_1   0.825818 0.502086 0.499942 0.023646
C7    C     C_1   0.174298 0.502595 0.500517 -0.024701
C8    C     C_1   0.249531 0.501094 0.500194 -0.175151
C9    C     C_R   0.479456 0.064320 0.622413 -0.077729
C10   C     C_R   0.483154 0.128713 0.499914 -0.075003
C11   C     C_R   0.469721 0.064465 0.377514 -0.211304
C12   C     C_R   0.338304 0.499919 0.500074 0.897779
C13   C     C_R   0.469483 0.934968 0.377735 -0.188453
C14   C     C_R   0.482241 0.871298 0.500465 -0.104844
C15   C     C_R   0.477864 0.936336 0.622891 -0.004235
C16   C     C_3   0.531907 0.928439 0.748274 0.189338
C17   C     C_3   0.534075 0.071389 0.747319 0.216303
C18   C     C_R   0.462816 0.404141 0.070973 0.213738
C19   C     C_R   0.543948 0.587710 0.072218 -0.095001
C20   C     C_R   0.544193 0.587431 0.928166 -0.045626
C21   C     C_R   0.462777 0.404214 0.928444 0.225043
C22   C     C_3   0.371807 0.366024 0.922465 -0.510010
C23   C     C_R   0.496958 0.740094 0.500124 0.871818
C24   C     C_3   0.371810 0.365963 0.076620 -0.499124
C25   C     C_R   0.661718 0.500030 0.499944 0.904463
C26   C     C_3   0.048446 0.423085 0.620716 0.216352
C27   C     C_3   0.050228 0.444080 0.367332 -0.585836
C28   C     C_3   0.951767 0.440545 0.367983 0.308124
C29   C     C_1   0.750553 0.500963 0.499951 -0.154186
C30   C     C_3   0.082742 0.504638 0.501027 0.096411
H1    H     H_    0.923854 0.332988 0.623646 0.164577
H2    H     H_    0.928359 0.475384 0.719472 0.239438
H3    H     H_    0.465768 0.113004 0.281330 0.169270
H4    H     H_    0.465647 0.885907 0.281595 0.182321
H5    H     H_    0.594223 0.881985 0.731252 0.137885
H6    H     H_    0.501631 0.117059 0.834542 0.144237
H7    H     H_    0.330364 0.439597 0.878158 0.232160
H8    H     H_    0.074603 0.496079 0.277685 0.249039
H9    H     H_    0.075037 0.346818 0.357490 0.170150
H10   H     H_    0.931743 0.340505 0.368458 0.151514
H11   H     H_    0.924678 0.682911 0.607072 0.156608
N1    N     N_R   0.499430 0.499140 0.142800 -0.115409
N2    N     N_R   0.499430 0.499180 0.857150 -0.113382
O1    O     O_R   0.500010 0.316790 0.614690 -0.591742
O2    O     O_R   0.500000 0.316760 0.385350 -0.632616
O3    O     O_R   0.377150 0.500020 0.614720 -0.614625
O4    O     O_R   0.377140 0.499990 0.385380 -0.619656
O5    O     O_R   0.500000 0.683240 0.614650 -0.600545
O6    O     O_R   0.499990 0.683210 0.385310 -0.629511
O7    O     O_R   0.622860 0.500010 0.614620 -0.608418
O8    O     O_R   0.622850 0.499980 0.385280 -0.603458
Zn1   Zn    Zn3+2 0.500010 0.500020 0.653130 0.988685
Zn2   Zn    Zn3+2 0.499990 0.499980 0.346870 0.959928
O9    O     O_3   0.081677 0.461325 0.746679 -0.742460
H12   H     H_    0.137934 0.420546 0.757107 0.343708
H13   H     H_    0.922920 0.698519 0.428826 0.202883
O10   O     O_3   0.487930 0.878829 0.860394 -0.764326
H14   H     H_    0.430736 0.917875 0.865029 0.337012
O11   O     O_3   0.615667 0.120920 0.723289 -0.737850
H15   H     H_    0.639905 0.079848 0.641443 0.326136
H16   H     H_    0.578032 0.659966 0.126742 0.158361
H17   H     H_    0.066475 0.323203 0.602442 0.114057
H18   H     H_    0.578848 0.658998 0.873944 0.173037
H19   H     H_    0.363736 0.271118 0.877707 0.193479
H20   H     H_    0.330370 0.439506 0.121394 0.230371
H21   H     H_    0.363692 0.271016 0.120750 0.197987
O12   O     O_3   0.917477 0.494520 0.249744 -0.728324
H22   H     H_    0.941832 0.579573 0.239245 0.366580
O13   O     O_3   0.081431 0.706737 0.623551 -0.746594
H23   H     H_    0.050662 0.678844 0.705778 0.363237
O14   O     O_3   0.073461 0.709602 0.391938 -0.776662
H24   H     H_    0.134994 0.728512 0.399966 0.357286

loop_
_geom_bond_atom_site_label_1
_geom_bond_atom_site_label_2
_ccdc_geom_bond_type
O1    Zn1   S    
C14   C23   S    
O7    Zn1   S    
C25   O8    A    
C18   C24   S    
C17   H6    S    
C13   C14   A    
C18   C21   A    
C9    C10   A    
C16   H5    S    
C1    O1    A    
C19   C20   A    
C14   C15   A    
C19   N1    A    
C24   H21   S    
C8    C12   S    
C3    C6    S    
C6    C29   T    
C20   H18   S    
C2    C3    S    
C26   H17   S    
O2    Zn2   S    
C13   H4    S    
C2    C26   S    
C7    C30   S    
C5    O14   S    
C21   C22   S    
C4    H13   S    
C27   C30   S    
C11   C13   A    
C1    O2    A    
O10   H14   S    
C16   C17   S    
C24   H20   S    
C19   H16   S    
C12   O4    A    
O6    Zn2   S    
O4    Zn2   S    
C26   O9    S    
C9    C17   S    
C3    C28   S    
C17   O11   S    
C26   C30   S    
O5    Zn1   S    
C16   O10   S    
C18   N1    A    
N1    Zn2   S    
C25   C29   S    
O13   H23   S    
C22   C24   S    
N2    Zn1   S    
C23   O6    A    
C7    C8    T    
C10   C11   A    
C28   H10   S    
C27   H8    S    
C22   H19   S    
O12   H22   S    
O3    Zn1   S    
O11   H15   S    
C28   O12   S    
O14   H24   S    
C2    H2    S    
C5    C30   S    
C4    H11   S    
C11   H3    S    
C27   C28   S    
C25   O7    A    
C2    H1    S    
C5    O13   S    
C23   O5    A    
O9    H12   S    
C22   H7    S    
C20   N2    A    
C15   C16   S    
C21   N2    A    
C1    C10   S    
C3    C4    S    
C9    C15   A    
C27   H9    S    
C4    C5    S    
O8    Zn2   S    
C12   O3    A    
