data_mof_unit_61351.cif
_audit_creation_date              2012-12-10T18:16:18-0500
_audit_creation_method            fapswitch 2.2
_symmetry_space_group_name_H-M    P1
_symmetry_Int_Tables_number       1
_space_group_crystal_system       triclinic
_cell_length_a                    42.383785
_cell_length_b                    29.20903
_cell_length_c                    29.202533
_cell_angle_alpha                 90.000566
_cell_angle_beta                  133.833283
_cell_angle_gamma                 89.998879
_cell_volume                      26078.8402312

loop_
_atom_site_label
_atom_site_type_symbol
_atom_type_description
_atom_site_fract_x
_atom_site_fract_y
_atom_site_fract_z
_atom_type_partial_charge
C1    C     C_R   0.499969 0.586678 0.499989 0.908392
C2    C     C_1   0.834697 0.000278 0.335614 0.165225
C3    C     C_3   0.761192 0.959815 0.246493 0.409261
C4    C     C_1   0.372675 0.500195 0.373334 -0.115507
C5    C     C_1   0.872675 0.000161 0.373334 -0.115546
C6    C     C_1   0.121133 0.500005 0.120578 -0.113201
C7    C     C_1   0.621134 0.000003 0.120579 -0.113213
C8    C     C_3   0.261248 0.508469 0.304818 -0.425411
C9    C     C_3   0.761252 0.007643 0.304959 -0.425514
C10   C     C_3   0.289221 0.500347 0.289904 -0.197379
C11   C     C_3   0.789221 0.000281 0.289901 -0.197356
C12   C     C_1   0.159114 0.500053 0.158465 0.170895
C13   C     C_1   0.659114 0.000040 0.158466 0.170852
C14   C     C_1   0.499945 0.637262 0.499939 -0.195379
C15   C     C_1   0.499939 0.362738 0.499933 -0.191789
C16   C     C_1   0.999945 0.137262 0.499939 -0.195224
C17   C     C_1   0.999940 0.862738 0.499933 -0.191883
C18   C     C_1   0.499932 0.679400 0.499918 0.025888
C19   C     C_1   0.499924 0.320600 0.499910 0.028081
C20   C     C_1   0.999932 0.179400 0.499918 0.026010
C21   C     C_R   0.499966 0.413321 0.499986 0.912051
C22   C     C_1   0.999925 0.820600 0.499910 0.028032
C23   C     C_1   0.499928 0.729136 0.499916 0.026597
C24   C     C_1   0.499919 0.270864 0.499907 0.027307
C25   C     C_1   0.999927 0.229136 0.499915 0.026665
C26   C     C_1   0.999920 0.770864 0.499908 0.027291
C27   C     C_1   0.499931 0.771274 0.499925 0.024095
C28   C     C_1   0.499924 0.228726 0.499918 0.024086
C29   C     C_1   0.999931 0.271274 0.499925 0.024128
C30   C     C_1   0.999924 0.728726 0.499918 0.024082
C31   C     C_1   0.499940 0.821010 0.499946 0.019587
C32   C     C_R   0.999968 0.086678 0.499988 0.908536
C33   C     C_1   0.499935 0.178990 0.499941 0.019309
C34   C     C_1   0.999940 0.321010 0.499945 0.019601
C35   C     C_1   0.999935 0.678990 0.499941 0.019311
C36   C     C_1   0.499949 0.863149 0.499964 -0.198660
C37   C     C_1   0.499946 0.136851 0.499961 -0.198957
C38   C     C_1   0.999949 0.363149 0.499964 -0.198652
C39   C     C_1   0.999946 0.636851 0.499961 -0.198954
C40   C     C_R   0.417151 0.499982 0.417357 0.946180
C41   C     C_R   0.917151 0.999987 0.417357 0.946243
C42   C     C_1   0.635845 0.500000 0.635488 -0.208235
C43   C     C_R   0.999966 0.913322 0.499986 0.911981
C44   C     C_1   0.135845 0.000000 0.635488 -0.208241
C45   C     C_1   0.677114 0.500000 0.676734 0.026214
C46   C     C_1   0.177114 0.000000 0.676734 0.026211
C47   C     C_1   0.726261 0.500001 0.725945 0.013892
C48   C     C_1   0.226261 0.000001 0.725945 0.013890
C49   C     C_1   0.767531 0.500001 0.767299 0.013925
C50   C     C_1   0.267531 0.000001 0.767299 0.013925
C51   C     C_1   0.816679 0.500001 0.816559 0.026351
C52   C     C_1   0.316679 0.000001 0.816559 0.026352
C53   C     C_1   0.857948 0.500001 0.857923 -0.207949
C54   C     C_3   0.204592 0.500165 0.204289 -0.183368
C55   C     C_1   0.357948 0.000001 0.857923 -0.207947
C56   C     C_R   0.994880 0.500000 0.081698 0.913250
C57   C     C_R   0.494880 0.000000 0.081697 0.913247
C58   C     C_R   0.076653 0.499999 0.076385 0.940109
C59   C     C_R   0.576653 0.999999 0.076386 0.940073
C60   C     C_R   0.992984 0.500000 0.906354 0.900695
C61   C     C_R   0.492984 1.000000 0.906354 0.900660
C62   C     C_R   0.907985 0.500000 0.908063 0.881408
C63   C     C_R   0.407985 0.000000 0.908063 0.881408
C64   C     C_R   0.585811 0.500000 0.585697 0.881937
C65   C     C_3   0.704592 0.000132 0.204289 -0.183291
C66   C     C_R   0.085811 1.000000 0.585697 0.881941
C67   C     C_R   0.499073 1.000000 0.412887 0.895051
C68   C     C_R   0.999073 0.500000 0.412887 0.895041
C69   C     C_R   0.499957 0.913733 0.499983 0.894573
C70   C     C_R   0.499956 0.086267 0.499982 0.894579
C71   C     C_R   0.999957 0.413733 0.499983 0.894572
C72   C     C_R   0.999956 0.586267 0.499982 0.894575
C73   C     C_R   0.500774 0.000000 0.587059 0.894181
C74   C     C_R   0.000774 0.500000 0.587059 0.894188
C75   C     C_1   0.995642 0.500000 0.133030 -0.190165
C76   C     C_3   0.232570 0.492040 0.189379 -0.374933
C77   C     C_1   0.495641 1.000000 0.133030 -0.190153
C78   C     C_1   0.996284 0.499999 0.175806 0.028748
C79   C     C_1   0.496284 0.999999 0.175805 0.028758
C80   C     C_1   0.997029 0.499999 0.226275 0.027982
C81   C     C_1   0.497029 0.999999 0.226275 0.028000
C82   C     C_1   0.497630 0.999999 0.269008 0.024750
C83   C     C_1   0.997630 0.499999 0.269008 0.024729
C84   C     C_1   0.498278 0.999999 0.319382 0.019701
C85   C     C_1   0.998278 0.499999 0.319382 0.019682
C86   C     C_1   0.498730 1.000000 0.361970 -0.198600
C87   C     C_3   0.732566 0.992766 0.189235 -0.374999
C88   C     C_1   0.998730 0.499999 0.361970 -0.198614
C89   C     C_1   0.994043 0.500000 0.856815 -0.200615
C90   C     C_1   0.494043 1.000000 0.856815 -0.200664
C91   C     C_3   0.232609 0.540905 0.246959 0.325549
C92   C     C_3   0.232673 0.467606 0.260915 0.431995
C93   C     C_3   0.732620 0.040599 0.247691 0.325465
C94   C     C_3   0.732666 0.967064 0.260322 0.431955
C95   C     C_1   0.995274 0.500000 0.815913 0.020844
C96   C     C_1   0.495274 1.000000 0.815913 0.020795
C97   C     C_1   0.996905 0.500000 0.767814 0.022798
C98   C     C_1   0.334697 0.500340 0.335616 0.165265
C99   C     C_1   0.496905 1.000000 0.767814 0.022757
C100  C     C_1   0.498276 0.000000 0.727057 0.021504
C101  C     C_1   0.998276 0.500000 0.727058 0.021536
C102  C     C_1   0.499720 0.000000 0.678764 0.018104
C103  C     C_1   0.999720 0.500000 0.678764 0.018130
C104  C     C_1   0.500575 0.000000 0.637474 -0.199954
C105  C     C_1   0.000575 0.500000 0.637474 -0.199933
C106  C     C_3   0.261142 0.532905 0.233278 0.413701
C107  C     C_3   0.261201 0.459609 0.247227 0.409278
C108  C     C_3   0.761148 0.033348 0.233868 0.413758
H1    H     H_    0.219759 0.485409 0.141552 0.226856
H2    H     H_    0.240183 0.372989 0.349809 0.387060
H3    H     H_    0.772797 0.111969 0.340973 0.347843
H4    H     H_    0.740153 0.871141 0.347659 0.387029
H5    H     H_    0.719751 0.986762 0.141292 0.226810
H6    H     H_    0.274064 0.515098 0.352648 0.218722
H7    H     H_    0.774072 0.013645 0.352904 0.218742
H8    H     H_    0.253700 0.627742 0.144696 0.389426
H9    H     H_    0.253876 0.341805 0.198710 0.387234
H10   H     H_    0.753724 0.129629 0.147025 0.389428
H11   H     H_    0.753852 0.842870 0.195566 0.387168
H12   H     H_    0.272706 0.613221 0.339001 0.347817
O1    O     O_R   0.500400 0.563130 0.536080 -0.597758
O2    O     O_R   0.963990 0.500000 0.400890 -0.590954
O3    O     O_R   0.534410 0.000000 0.471310 -0.590418
O4    O     O_R   0.034410 0.500000 0.471310 -0.590420
O5    O     O_R   0.464750 0.936830 0.464780 -0.589361
O6    O     O_R   0.464750 0.063170 0.464780 -0.590001
O7    O     O_R   0.964750 0.436830 0.464780 -0.589358
O8    O     O_R   0.964750 0.563170 0.464780 -0.589993
O9    O     O_R   0.535170 0.936820 0.535200 -0.591944
O10   O     O_R   0.535170 0.063180 0.535200 -0.591652
O11   O     O_R   0.035170 0.436820 0.535200 -0.591945
O12   O     O_R   0.500400 0.436870 0.536080 -0.595032
O13   O     O_R   0.035170 0.563180 0.535200 -0.591656
O14   O     O_R   0.465520 0.000000 0.528690 -0.591034
O15   O     O_R   0.965520 0.500000 0.528690 -0.591027
O16   O     O_R   0.535930 0.000000 0.599110 -0.590609
O17   O     O_R   0.035930 0.500000 0.599110 -0.590604
O18   O     O_R   0.499540 0.563080 0.463930 -0.590152
O19   O     O_R   0.499540 0.436920 0.463930 -0.591173
O20   O     O_R   0.999540 0.063080 0.463930 -0.590185
O21   O     O_R   0.999540 0.936920 0.463930 -0.591140
O22   O     O_R   0.438030 0.500000 0.473700 -0.616561
O23   O     O_R   0.000400 0.063130 0.536080 -0.597701
O24   O     O_R   0.938030 0.000000 0.473700 -0.616684
O25   O     O_R   0.437170 0.500000 0.401550 -0.587085
O26   O     O_R   0.937170 0.000000 0.401550 -0.587051
O27   O     O_R   0.562760 0.500000 0.598450 -0.592221
O28   O     O_R   0.062760 0.000000 0.598450 -0.592213
O29   O     O_R   0.561900 0.500000 0.526300 -0.592348
O30   O     O_R   0.061900 0.000000 0.526300 -0.592359
O31   O     O_R   0.994600 0.535610 0.057840 -0.591223
O32   O     O_R   0.994600 0.464390 0.057840 -0.591762
O33   O     O_R   0.494600 0.035610 0.057840 -0.591181
O34   O     O_R   0.000400 0.936870 0.536080 -0.595106
O35   O     O_R   0.494600 0.964390 0.057840 -0.591773
O36   O     O_R   0.056200 0.535620 0.056290 -0.594292
O37   O     O_R   0.056200 0.464380 0.056290 -0.600092
O38   O     O_R   0.556200 0.035620 0.056290 -0.594497
O39   O     O_R   0.556200 0.964380 0.056290 -0.599846
O40   O     O_R   0.993060 0.535640 0.930020 -0.593578
O41   O     O_R   0.993060 0.464360 0.930020 -0.595863
O42   O     O_R   0.493060 0.035640 0.930020 -0.593671
O43   O     O_R   0.493060 0.964360 0.930020 -0.595791
O44   O     O_2   0.309982 0.608567 0.271270 -0.264081
O45   O     O_R   0.931470 0.535630 0.931560 -0.592175
O46   O     O_2   0.308825 0.553239 0.206815 -0.271836
O47   O     O_3   0.239906 0.603995 0.150266 -0.490692
O48   O     O_2   0.309341 0.413614 0.234092 -0.275550
O49   O     O_2   0.309729 0.384943 0.313521 -0.252005
O50   O     O_3   0.240066 0.371072 0.194015 -0.496682
O51   O     O_2   0.810018 0.109173 0.273230 -0.264329
O52   O     O_2   0.808818 0.054989 0.207752 -0.271886
O53   O     O_3   0.739924 0.105541 0.152160 -0.490617
O54   O     O_2   0.809313 0.914920 0.232522 -0.275794
O55   O     O_2   0.809712 0.884838 0.311436 -0.251592
O56   O     O_R   0.931470 0.464370 0.931560 -0.592402
O57   O     O_3   0.740038 0.871862 0.191697 -0.496668
O58   O     O_2   0.183204 0.614976 0.180174 -0.200033
O59   O     O_2   0.185142 0.587362 0.261330 -0.268302
O60   O     O_3   0.253338 0.630408 0.298467 -0.458019
O61   O     O_2   0.184589 0.447233 0.286690 -0.280831
O62   O     O_2   0.184277 0.391630 0.223313 -0.246952
O63   O     O_3   0.253946 0.396950 0.344448 -0.496247
O64   O     O_2   0.683207 0.114960 0.182238 -0.200035
O65   O     O_2   0.685196 0.085959 0.262946 -0.268324
O66   O     O_3   0.753370 0.129552 0.300777 -0.457955
O67   O     O_R   0.431470 0.035630 0.931560 -0.592172
O68   O     O_2   0.684577 0.945396 0.285716 -0.280960
O69   O     O_2   0.684255 0.890913 0.221359 -0.246547
O70   O     O_3   0.753923 0.895314 0.342579 -0.496245
O71   O     O_R   0.431470 0.964370 0.931560 -0.592403
O72   O     O_R   0.463990 1.000000 0.400890 -0.590948
S1    S     S_3+6 0.281927 0.575713 0.216515 0.086185
S2    S     S_3+6 0.282049 0.406026 0.248776 0.087066
S3    S     S_3+6 0.781941 0.076814 0.217878 0.086065
S4    S     S_3+6 0.782029 0.906582 0.247076 0.087159
S5    S     S_3+6 0.211740 0.594518 0.245394 0.113171
S6    S     S_3+6 0.211908 0.424809 0.277724 0.088544
S7    S     S_3+6 0.711766 0.093864 0.247096 0.113177
S8    S     S_3+6 0.711892 0.923611 0.276357 0.088694
Zn1   Zn    Zn3+2 0.500540 0.500000 0.548170 1.002410
Zn2   Zn    Zn3+2 0.952950 0.500000 0.452980 0.998473
Zn3   Zn    Zn3+2 0.546980 0.000000 0.547020 0.995223
Zn4   Zn    Zn3+2 0.046980 0.500000 0.547020 0.995229
Zn5   Zn    Zn3+2 0.000540 0.000000 0.548170 1.002306
Zn6   Zn    Zn3+2 0.499390 0.500000 0.451830 1.028994
Zn7   Zn    Zn3+2 0.999390 0.000000 0.451830 1.028975
Zn8   Zn    Zn3+2 0.993830 0.547580 0.993940 1.026124
Zn9   Zn    Zn3+2 0.993830 0.452420 0.993940 1.018808
Zn10  Zn    Zn3+2 0.493830 0.047580 0.993940 1.025942
Zn11  Zn    Zn3+2 0.493830 0.952420 0.993940 1.019032
Zn12  Zn    Zn3+2 0.452950 0.000000 0.452980 0.998458

loop_
_geom_bond_atom_site_label_1
_geom_bond_atom_site_label_2
_ccdc_geom_bond_type
O38   Zn10  S    
O32   Zn9   S    
O54   S4    D    
C67   C86   S    
O7    Zn2   S    
O57   S4    S    
C40   O22   A    
C6    C58   S    
C44   C66   S    
O62   S6    D    
O46   S1    D    
C68   O4    A    
O21   Zn7   S    
C81   C82   T    
O18   Zn6   S    
O70   S8    S    
C47   C49   T    
C13   C65   S    
C60   C89   S    
C61   C90   S    
C15   C19   T    
C57   O35   A    
O12   Zn1   S    
C40   O25   A    
C72   O8    A    
C3    C87   S    
C93   S7    S    
C84   C86   T    
O30   Zn7   S    
C66   O30   A    
C4    C98   T    
C93   C108  S    
C6    C12   T    
O33   Zn10  S    
C59   O38   A    
C78   C80   S    
C20   C25   S    
O68   S8    D    
C96   C99   S    
C70   O10   A    
O39   Zn11  S    
O56   Zn9   S    
C10   C98   S    
C14   C18   T    
O72   Zn12  S    
C32   O23   A    
O60   S5    S    
C59   O39   A    
H9    O50   S    
C73   C104  S    
C87   C108  S    
C4    C40   S    
H10   O53   S    
C56   O31   A    
C76   H1    S    
C49   C51   S    
C55   C63   S    
O53   S3    S    
C50   C52   S    
C39   C72   S    
O67   Zn10  S    
H8    O47   S    
C8    C92   S    
C23   C27   T    
O31   Zn8   S    
C56   O32   A    
C43   O34   A    
C66   O28   A    
C52   C55   T    
C8    H6    S    
C70   O6    A    
O13   Zn4   S    
C48   C50   T    
C69   O5    A    
C101  C103  S    
C56   C75   S    
C34   C38   T    
C37   C70   S    
O47   S1    S    
C91   C106  S    
C71   O7    A    
C10   C107  S    
C80   C83   T    
C92   S6    S    
C2    C11   S    
C7    C59   S    
O25   Zn6   S    
O45   Zn8   S    
O5    Zn12  S    
C44   C46   T    
C65   C87   S    
O15   Zn2   S    
C45   C47   S    
C25   C29   T    
C74   O17   A    
C46   C48   S    
O63   S6    S    
O14   Zn12  S    
C41   O26   A    
C27   C31   S    
C61   O42   A    
C9    H7    S    
O22   Zn1   S    
C57   C77   S    
O27   Zn1   S    
C3    C11   S    
C41   O24   A    
O51   S3    D    
C68   O2    A    
C79   C81   S    
O43   Zn11  S    
O44   S1    D    
O42   Zn10  S    
C57   O33   A    
C29   C34   S    
C33   C37   T    
C18   C23   S    
C51   C53   T    
C42   C45   T    
O9    Zn3   S    
C89   C95   T    
C35   C39   T    
C17   C43   S    
C21   O12   A    
C54   C92   S    
O19   Zn6   S    
C67   O72   A    
O40   Zn8   S    
C53   C62   S    
C92   C107  S    
C99   C100  T    
C73   O16   A    
C7    C13   T    
C16   C20   T    
O64   S7    D    
C62   O56   A    
C74   O15   A    
C100  C102  S    
C60   O41   A    
C77   C79   T    
C103  C105  T    
C8    C91   S    
O8    Zn2   S    
O37   Zn9   S    
O65   S7    D    
C108  S3    S    
C102  C104  T    
O11   Zn4   S    
C9    C11   S    
C58   O36   A    
O28   Zn5   S    
C54   C76   S    
C30   C35   S    
O69   S8    D    
C8    C10   S    
C65   C94   S    
C83   C85   S    
O58   S5    D    
O4    Zn4   S    
C28   C33   S    
C26   C30   T    
C76   C107  S    
C63   O67   A    
C64   O27   A    
C68   C88   S    
O66   S7    S    
C43   O21   A    
C2    C5    T    
C21   O19   A    
O20   Zn7   S    
C9    C93   S    
O55   S4    D    
C36   C69   S    
C3    S4    S    
O50   S2    S    
O24   Zn5   S    
C85   C88   T    
C5    C41   S    
C38   C71   S    
H3    O66   S    
C76   C106  S    
C61   O43   A    
O10   Zn3   S    
C24   C28   T    
O26   Zn7   S    
C58   O37   A    
C67   O3    A    
O29   Zn6   S    
H2    O63   S    
C42   C64   S    
C95   C97   S    
C90   C96   T    
O49   S2    D    
O17   Zn4   S    
C16   C32   S    
O59   S5    D    
C82   C84   S    
C17   C22   T    
O3    Zn3   S    
C64   O29   A    
O2    Zn2   S    
O35   Zn11  S    
C19   C24   S    
H12   O60   S    
O1    Zn1   S    
C54   C91   S    
O6    Zn12  S    
C74   C105  S    
C72   O13   A    
O23   Zn5   S    
O41   Zn9   S    
C12   C54   S    
C63   O71   A    
C65   C93   S    
C3    C94   S    
C94   S8    S    
C107  S2    S    
C32   O20   A    
O36   Zn8   S    
C75   C78   T    
C1    O1    A    
C87   H5    S    
O34   Zn5   S    
C10   C106  S    
C1    O18   A    
H4    O70   S    
C91   S5    S    
C15   C21   S    
C62   O45   A    
C73   O14   A    
C71   O11   A    
C69   O9    A    
C22   C26   S    
C11   C108  S    
C31   C36   T    
O52   S3    D    
O48   S2    D    
C1    C14   S    
H11   O57   S    
C60   O40   A    
C9    C94   S    
O16   Zn3   S    
C97   C101  T    
C106  S1    S    
O61   S6    D    
O71   Zn11  S    
