data_mof_unit_55873.cif
_audit_creation_date              2012-12-11T17:01:30-0500
_audit_creation_method            fapswitch 2.2
_symmetry_space_group_name_H-M    P1
_symmetry_Int_Tables_number       1
_space_group_crystal_system       triclinic
_cell_length_a                    15.014529
_cell_length_b                    14.824025
_cell_length_c                    14.861786
_cell_angle_alpha                 109.380544
_cell_angle_beta                  109.303994
_cell_angle_gamma                 109.802576
_cell_volume                      2544.04912416

loop_
_atom_site_label
_atom_site_type_symbol
_atom_type_description
_atom_site_fract_x
_atom_site_fract_y
_atom_site_fract_z
_atom_type_partial_charge
Br1   Br    Br    0.671921 0.572665 0.181726 -0.607839
Br2   Br    Br    0.710090 0.289283 0.450382 -0.590000
Br3   Br    Br    0.964850 0.194417 0.296852 -0.566110
C1    C     C_R   0.004941 0.805118 0.097991 -0.158759
C2    C     C_R   0.223291 0.751159 0.315506 -0.114268
C3    C     C_R   0.905539 0.409722 0.210684 -0.092658
C4    C     C_R   0.792192 0.195225 0.700425 -0.115720
C5    C     C_R   0.299163 0.592378 0.995011 -0.134190
C6    C     C_R   0.937145 0.502891 0.304388 0.126156
C7    C     C_R   0.301205 0.501045 0.934287 0.008499
C8    C     C_R   0.325696 0.776225 0.325576 0.071824
C9    C     C_R   0.051586 0.226359 0.054079 0.068534
C10   C     C_3   0.476937 0.415145 0.825826 -0.453215
C11   C     C_3   0.370532 0.412293 0.818917 -0.176634
C12   C     C_R   0.697959 0.131297 0.696742 0.079935
C13   C     C_3   0.551640 0.474425 0.028890 0.215761
C14   C     C_3   0.586492 0.617546 0.966045 -0.365652
C15   C     C_3   0.575147 0.502929 0.943903 0.231249
C16   C     C_R   0.022164 0.592860 0.779525 -0.151858
C17   C     C_3   0.398175 0.501720 0.932044 0.254767
C18   C     C_3   0.448069 0.474609 0.021758 -0.460532
C19   C     C_3   0.483993 0.617965 0.962964 -0.358334
C20   C     C_R   0.623266 0.961422 0.521544 0.132318
C21   C     C_R   0.620002 0.013753 0.616999 0.032521
C22   C     C_R   0.529295 0.955183 0.624567 -0.187096
C23   C     C_R   0.948387 0.501929 0.675269 0.125556
C24   C     C_R   0.434156 0.863573 0.529382 -0.176448
C25   C     C_R   0.429839 0.831563 0.426966 0.037947
C26   C     C_R   0.529196 0.871970 0.427395 0.168450
C27   C     C_3   0.561099 0.909698 0.355210 -0.498966
C28   C     C_R   0.685037 0.407977 0.935955 -0.115205
C29   C     C_3   0.664030 0.006660 0.458113 -0.453358
C30   C     C_R   0.963465 0.609015 0.486821 0.190096
C31   C     C_R   0.904848 0.509702 0.387366 -0.003486
C32   C     C_R   0.824789 0.416562 0.376451 -0.195851
C33   C     C_R   0.823629 0.417023 0.470755 0.331456
C34   C     C_R   0.675332 0.501527 0.954381 0.014008
C35   C     C_R   0.907134 0.509682 0.575652 -0.077752
C36   C     C_R   0.965563 0.608990 0.579842 0.127128
C37   C     C_3   0.084183 0.697221 0.650447 -0.490988
C38   C     C_3   0.081015 0.697359 0.548225 -0.514977
C39   C     C_R   0.062234 0.039976 0.167335 0.116947
C40   C     C_R   0.936001 0.408407 0.684524 -0.081913
C41   C     C_R   0.104796 0.988314 0.110774 0.042542
C42   C     C_R   0.171463 0.048676 0.079926 -0.183193
C43   C     C_R   0.168979 0.141623 0.078070 -0.159212
C44   C     C_R   0.098771 0.172836 0.105711 0.005132
C45   C     C_R   0.997122 0.593102 0.300176 -0.135845
C46   C     C_R   0.059418 0.131476 0.165407 0.133329
C47   C     C_3   0.951725 0.094829 0.162602 0.163159
C48   C     C_3   0.955138 0.994820 0.164179 -0.589018
C49   C     C_R   0.778694 0.593529 0.026592 -0.031275
C50   C     C_R   0.699218 0.195533 0.789782 -0.125308
C51   C     C_R   0.094892 0.806200 0.005933 -0.138639
C52   C     C_R   0.066314 0.870223 0.069211 0.086136
C53   C     C_2   0.308389 0.422886 0.723139 0.547076
C54   C     C_R   0.209354 0.408658 0.904637 -0.156948
C55   C     C_R   0.313097 0.746028 0.221632 -0.134751
C56   C     C_R   0.976913 0.255029 0.069270 -0.148298
C57   C     C_R   0.066603 0.250669 0.975402 -0.112832
H1    H     H_    0.986823 0.833157 0.163006 0.115490
H2    H     H_    0.494048 0.434204 0.764946 0.215098
H3    H     H_    0.827397 0.166303 0.652734 0.099029
H4    H     H_    0.316314 0.329165 0.803156 0.069125
H5    H     H_    0.538053 0.389808 0.008432 0.091369
H6    H     H_    0.388788 0.391868 0.002854 0.144938
H7    H     H_    0.656647 0.685222 0.048462 0.181395
H8    H     H_    0.599878 0.636560 0.903627 0.179083
H9    H     H_    0.449882 0.644006 0.904254 0.193706
H10   H     H_    0.508737 0.681147 0.046295 0.157276
H11   H     H_    0.465722 0.535943 0.102555 0.215118
H12   H     H_    0.180995 0.323274 0.849834 0.084054
H13   H     H_    0.525846 0.986964 0.699392 0.125811
H14   H     H_    0.048028 0.678400 0.803968 0.115935
H15   H     H_    0.361413 0.828499 0.534751 0.128072
H16   H     H_    0.576692 0.851662 0.301477 0.203226
H17   H     H_    0.507623 0.936241 0.313041 0.212093
H18   H     H_    0.738852 0.004129 0.464114 0.201499
H19   H     H_    0.667938 0.086839 0.473281 0.243095
H20   H     H_    0.769364 0.341395 0.297388 0.170395
H21   H     H_    0.097393 0.776042 0.710621 0.188946
H22   H     H_    0.138422 0.667620 0.685261 0.209628
H23   H     H_    0.373433 0.747943 0.197534 0.108614
H24   H     H_    0.091373 0.775717 0.549405 0.192079
H25   H     H_    0.620429 0.322523 0.889179 0.090046
H26   H     H_    0.133273 0.667970 0.524833 0.207220
H27   H     H_    0.213971 0.017341 0.044068 0.126313
H28   H     H_    0.209746 0.178024 0.040870 0.124678
H29   H     H_    0.882563 0.071649 0.084708 0.093591
H30   H     H_    0.963917 0.992808 0.240638 0.236014
H31   H     H_    0.889465 0.916500 0.086321 0.177763
H32   H     H_    0.887501 0.322933 0.620079 0.149170
H33   H     H_    0.802538 0.679877 0.062597 0.093753
H34   H     H_    0.950336 0.253321 0.127650 0.145155
H35   H     H_    0.647257 0.167347 0.821820 0.085510
H36   H     H_    0.156104 0.835567 0.983741 0.088282
H37   H     H_    0.017856 0.677436 0.348452 0.111829
H38   H     H_    0.220352 0.369431 0.672803 0.019267
H39   H     H_    0.120035 0.240065 0.944364 0.091495
H40   H     H_    0.202669 0.762711 0.379924 0.091521
H41   H     H_    0.844784 0.325652 0.179781 0.112094
H42   H     H_    0.351988 0.677879 0.022010 0.089954
H43   H     H_    0.465967 0.331370 0.804583 0.136367
N1    N     N_R   0.995640 0.706130 0.053910 -0.044059
N2    N     N_R   0.054010 0.556790 0.847890 -0.045066
N3    N     N_R   0.789940 0.443190 0.997130 -0.037849
N4    N     N_R   0.997630 0.443170 0.791110 -0.053540
N5    N     N_R   0.846320 0.556810 0.053910 -0.036605
N6    N     N_R   0.791080 0.293860 0.847890 -0.040810
N7    N     N_R   0.052880 0.706130 0.997130 -0.039285
N8    N     N_R   0.002370 0.556830 0.208890 -0.044298
N9    N     N_R   0.153680 0.443190 0.946090 -0.031321
N10   N     N_R   0.208920 0.706140 0.152110 -0.041821
N11   N     N_R   0.947120 0.293870 0.002870 -0.045763
N12   N     N_R   0.004360 0.293870 0.946090 -0.043941
N13   N     N_R   0.151690 0.706140 0.208890 -0.042022
N14   N     N_R   0.945990 0.443210 0.152110 -0.048653
N15   N     N_R   0.210060 0.556810 0.002870 -0.034703
N16   N     N_R   0.848310 0.293860 0.791110 -0.041060
Ni1   Ni    Ni4+2 0.999010 0.630300 0.130220 0.229102
Ni2   Ni    Ni4+2 0.000990 0.369700 0.869780 0.214263
Ni3   Ni    Ni4+2 0.130280 0.630280 0.000000 0.213874
Ni4   Ni    Ni4+2 0.869720 0.369720 0.000000 0.220428
O1    O     O_2   0.354707 0.492635 0.703256 -0.575362

loop_
_geom_bond_atom_site_label_1
_geom_bond_atom_site_label_2
_ccdc_geom_bond_type
C11   C53   S    
C20   C26   A    
C13   C18   S    
C28   H25   S    
C18   H6    S    
C50   H35   S    
N5    Ni1   S    
C32   C33   A    
C53   H38   S    
C57   H39   S    
C3    C6    A    
N11   N12   A    
C5    N15   A    
C44   C46   A    
C42   C43   A    
C38   H26   S    
N2    N4    A    
C30   C36   A    
C10   C15   S    
C18   H11   S    
N12   Ni2   S    
C53   O1    D    
C25   C26   A    
C42   H27   S    
C15   C34   S    
C2    C8    A    
C48   H30   S    
C35   C36   A    
C54   N9    A    
C50   N6    A    
C32   H20   S    
C51   N7    A    
C31   C32   A    
N15   Ni3   S    
C3    H41   S    
C16   C23   A    
C48   H31   S    
C51   C52   A    
C9    C56   A    
C10   H2    S    
C7    C17   S    
N3    Ni4   S    
C55   N10   A    
C20   C21   A    
C56   H34   S    
C10   H43   S    
C8    C55   A    
C3    N14   A    
C51   H36   S    
C39   C48   S    
N10   N13   A    
C4    C12   A    
C10   C11   S    
C27   H17   S    
C39   C41   A    
C9    C44   S    
C24   H15   S    
Br3   C47   S    
C23   C40   A    
C14   C15   S    
C43   H28   S    
N16   Ni2   S    
C14   H7    S    
N10   Ni3   S    
C27   C29   S    
C11   C17   S    
C7    C54   A    
C21   C22   A    
C36   C37   S    
C34   C49   A    
C23   C35   S    
C47   C48   S    
C38   H24   S    
C1    H1    S    
C28   C34   A    
N8    Ni1   S    
C26   C27   S    
C45   H37   S    
C4    N16   A    
N9    N15   A    
C37   H22   S    
C27   H16   S    
C47   H29   S    
C2    H40   S    
C11   H4    S    
C30   C31   A    
C49   H33   S    
Br1   C13   S    
C40   N4    A    
C4    H3    S    
N11   Ni4   S    
C16   N2    A    
C5    C7    A    
C37   C38   S    
C17   C19   S    
C1    C52   A    
C6    C31   S    
C28   N3    A    
N4    Ni2   S    
C12   C50   A    
C41   C42   A    
N6    N16   A    
Br2   C33   S    
C43   C44   A    
C12   C21   S    
C14   H8    S    
C19   H9    S    
C37   H21   S    
C16   H14   S    
N6    Ni4   S    
C40   H32   S    
C22   C24   A    
C14   C19   S    
N8    N14   A    
C30   C38   S    
C20   C29   S    
C33   C35   A    
N14   Ni4   S    
N9    Ni2   S    
C2    N13   A    
C55   H23   S    
N7    Ni3   S    
C29   H19   S    
N1    N7    A    
C41   C52   S    
N3    N5    A    
C8    C25   S    
C56   N11   A    
C1    N1    A    
N2    Ni3   S    
C22   H13   S    
C54   H12   S    
C39   C46   A    
C29   H18   S    
C9    C57   A    
N13   Ni1   S    
C45   N8    A    
C17   C18   S    
C49   N5    A    
C6    C45   A    
C13   C15   S    
C46   C47   S    
C24   C25   A    
C57   N12   A    
C13   H5    S    
C5    H42   S    
C19   H10   S    
N1    Ni1   S    
