data_mof_unit_59865.cif
_audit_creation_date              2012-12-11T15:52:29-0500
_audit_creation_method            fapswitch 2.2
_symmetry_space_group_name_H-M    P1
_symmetry_Int_Tables_number       1
_space_group_crystal_system       triclinic
_cell_length_a                    11.043978
_cell_length_b                    11.051911
_cell_length_c                    18.836174
_cell_angle_alpha                 90.052674
_cell_angle_beta                  89.905317
_cell_angle_gamma                 119.973535
_cell_volume                      1991.59669513

loop_
_atom_site_label
_atom_site_type_symbol
_atom_type_description
_atom_site_fract_x
_atom_site_fract_y
_atom_site_fract_z
_atom_type_partial_charge
C1    C     C_R   0.524069 0.450804 0.144224 0.545542
C2    C     C_R   0.545775 0.066336 0.146194 0.546824
C3    C     C_R   0.928154 0.476614 0.144584 0.544845
C4    C     C_R   0.458105 0.520009 0.852494 0.526341
C5    C     C_R   0.062587 0.542371 0.852732 0.532522
C6    C     C_R   0.479617 0.937849 0.852506 0.528501
C7    C     C_3   0.740575 0.154963 0.553573 -0.264222
C8    C     C_3   0.844950 0.585475 0.553837 -0.264062
C9    C     C_3   0.415248 0.259701 0.553628 -0.264781
C10   C     C_3   0.832297 0.590706 0.474225 -0.217678
C11   C     C_3   0.758396 0.167681 0.473940 -0.217546
C12   C     C_3   0.409691 0.241790 0.474001 -0.217648
C13   C     C_R   0.517610 0.457898 0.352855 0.575500
C14   C     C_R   0.542027 0.059773 0.352870 0.574497
C15   C     C_R   0.940192 0.482285 0.352857 0.574827
C16   C     C_R   0.457440 0.523278 0.645061 0.566660
C17   C     C_R   0.066032 0.542709 0.645030 0.566716
C18   C     C_R   0.476763 0.934084 0.645057 0.566623
C19   C     C_R   0.494323 0.990047 0.924355 0.012981
C20   C     C_R   0.994181 0.495625 0.921292 0.014859
C21   C     C_R   0.505787 0.497696 0.920656 0.013575
C22   C     C_R   0.955629 0.485328 0.068862 0.013988
C23   C     C_R   0.524325 0.025137 0.072322 0.020968
C24   C     C_R   0.516446 0.469459 0.068300 0.017119
C25   C     C_R   0.379348 0.921453 0.970254 0.016084
C26   C     C_R   0.022204 0.408509 0.964045 0.008548
C27   C     C_R   0.595088 0.612164 0.963275 0.005621
C28   C     C_R   0.001091 0.401757 0.036653 -0.001741
C29   C     C_R   0.393707 0.937160 0.042935 -0.008060
C30   C     C_R   0.601476 0.597825 0.035939 -0.002894
C31   C     C_R   0.642508 0.084813 0.027196 -0.147970
C32   C     C_R   0.906856 0.555766 0.025247 -0.158263
C33   C     C_R   0.445443 0.350637 0.024604 -0.150140
C34   C     C_R   0.924324 0.559402 0.951777 -0.167717
C35   C     C_R   0.627677 0.067419 0.953974 -0.164632
C36   C     C_R   0.440478 0.364328 0.951209 -0.160700
C37   C     C_3   0.242389 0.918043 0.971950 -0.262814
C38   C     C_3   0.153729 0.402481 0.972280 -0.242446
C39   C     C_3   0.603950 0.750783 0.971678 -0.243800
C40   C     C_3   0.129494 0.393981 0.051771 -0.274079
C41   C     C_3   0.255522 0.928173 0.052415 -0.274494
C42   C     C_3   0.612166 0.735118 0.051156 -0.274039
C43   C     C_R   0.482493 0.979007 0.572119 -0.017995
C44   C     C_R   0.021143 0.503550 0.572060 -0.018079
C45   C     C_R   0.496793 0.517545 0.572098 -0.018217
C46   C     C_R   0.998378 0.506745 0.423672 0.011592
C47   C     C_R   0.508349 0.001755 0.423732 0.011823
C48   C     C_R   0.493079 0.491555 0.423717 0.011770
C49   C     C_R   0.608264 0.024515 0.539573 0.040544
C50   C     C_R   0.975572 0.583750 0.539674 0.040682
C51   C     C_R   0.416673 0.391807 0.539698 0.040601
C52   C     C_R   0.964825 0.586586 0.468025 0.065309
C53   C     C_R   0.621799 0.035285 0.467920 0.065489
C54   C     C_R   0.413508 0.378208 0.468046 0.065505
C55   C     C_R   0.374310 0.942843 0.453908 0.127356
C56   C     C_R   0.057339 0.431653 0.453677 0.127369
C57   C     C_R   0.568157 0.625541 0.453766 0.127358
C58   C     C_R   0.062618 0.424032 0.528609 0.133360
C59   C     C_R   0.361439 0.937608 0.528848 0.133522
C60   C     C_R   0.576016 0.638481 0.528688 0.133266
Cr1   Cr    Cr6+3 0.769160 0.541570 0.250690 1.079846
Cr2   Cr    Cr6+3 0.458430 0.227590 0.250690 1.075915
Cr3   Cr    Cr6+3 0.772410 0.230840 0.250690 1.079991
Cr4   Cr    Cr6+3 0.541570 0.769160 0.749310 1.066149
Cr5   Cr    Cr6+3 0.227590 0.458430 0.749310 1.065097
Cr6   Cr    Cr6+3 0.230840 0.772410 0.749310 1.065961
H1    H     H_    0.155413 0.816794 0.953295 0.165298
H2    H     H_    0.248118 0.501088 0.955743 0.147414
H3    H     H_    0.505904 0.747501 0.955178 0.149448
H4    H     H_    0.104743 0.291476 0.074689 0.150308
H5    H     H_    0.261942 0.023750 0.074935 0.147581
H6    H     H_    0.715357 0.811454 0.073969 0.152217
H7    H     H_    0.247913 0.011666 0.946840 0.128849
H8    H     H_    0.144076 0.305301 0.949421 0.150000
H9    H     H_    0.701725 0.837210 0.948638 0.153572
H10   H     H_    0.210282 0.486878 0.080966 0.142983
H11   H     H_    0.179354 0.829894 0.079605 0.155922
H12   H     H_    0.519975 0.724894 0.080473 0.143290
H13   H     H_    0.724704 0.237548 0.578099 0.102026
H14   H     H_    0.762354 0.487006 0.578280 0.101969
H15   H     H_    0.513948 0.275728 0.577828 0.101802
H16   H     H_    0.847026 0.691947 0.454921 0.246274
H17   H     H_    0.844949 0.152928 0.454472 0.246188
H18   H     H_    0.308359 0.155239 0.454808 0.246244
O1    O     O_R   0.911480 0.572650 0.170990 -0.519327
O2    O     O_R   0.427350 0.338830 0.170990 -0.519268
O3    O     O_R   0.661170 0.088520 0.170990 -0.517523
O4    O     O_R   0.572650 0.911480 0.829010 -0.527651
O5    O     O_R   0.338830 0.427350 0.829010 -0.529488
O6    O     O_R   0.088520 0.661170 0.829010 -0.528246
O7    O     O_R   0.640340 0.528970 0.175680 -0.496474
O8    O     O_R   0.471030 0.111370 0.175680 -0.502965
O9    O     O_R   0.888630 0.359660 0.175680 -0.496157
O10   O     O_R   0.528970 0.640340 0.824320 -0.504213
O11   O     O_R   0.111370 0.471030 0.824320 -0.504304
O12   O     O_R   0.359660 0.888630 0.824320 -0.503159
O13   O     O_R   0.909980 0.572450 0.331530 -0.477914
O14   O     O_R   0.427550 0.337530 0.331530 -0.477538
O15   O     O_R   0.662470 0.090020 0.331530 -0.478572
O16   O     O_R   0.572450 0.909980 0.668470 -0.467674
O17   O     O_R   0.337530 0.427550 0.668470 -0.467631
O18   O     O_R   0.090020 0.662470 0.668470 -0.467932
O19   O     O_R   0.638950 0.528780 0.324500 -0.479608
O20   O     O_R   0.471220 0.110170 0.324500 -0.480096
O21   O     O_R   0.889830 0.361050 0.324500 -0.480019
O22   O     O_R   0.528780 0.638950 0.675500 -0.467720
O23   O     O_R   0.110170 0.471220 0.675500 -0.467758
O24   O     O_R   0.361050 0.889830 0.675500 -0.468408
O25   O     O_3   0.666667 0.333333 0.250560 -0.299802
O26   O     O_3   0.333333 0.666667 0.749440 -0.277710
H19   H     H_    0.746607 0.149911 0.048223 0.150150
H20   H     H_    0.859857 0.612480 0.048023 0.150174
H21   H     H_    0.389651 0.247546 0.047309 0.135533
H22   H     H_    0.895969 0.623272 0.920133 0.137664
H23   H     H_    0.720162 0.112911 0.920695 0.136334
H24   H     H_    0.375151 0.272436 0.919683 0.129406
Br1   Br    Br    0.213174 0.881772 0.393450 -0.422431
Br2   Br    Br    0.118547 0.331707 0.393006 -0.422309
Br3   Br    Br    0.667983 0.786525 0.393146 -0.422365
Br4   Br    Br    0.096211 0.282697 0.567719 -0.443118
Br5   Br    Br    0.186431 0.904203 0.568171 -0.442937
Br6   Br    Br    0.717445 0.813396 0.567762 -0.443215
H25   H     H_    0.814122 0.131392 0.581705 0.238502
H26   H     H_    0.868409 0.682422 0.582146 0.238368
H27   H     H_    0.318388 0.186181 0.582045 0.238059
H28   H     H_    0.741371 0.495202 0.452406 0.103294
H29   H     H_    0.753707 0.258591 0.452188 0.103505
H30   H     H_    0.505261 0.246540 0.451935 0.103525

loop_
_geom_bond_atom_site_label_1
_geom_bond_atom_site_label_2
_ccdc_geom_bond_type
C59   Br5   S    
C45   C60   A    
Cr3   O25   S    
C55   C59   A    
C3    O1    A    
Cr6   O18   S    
C9    C51   S    
Cr5   O17   S    
Cr1   O25   S    
C14   O15   A    
Cr6   O6    S    
C5    C20   S    
Cr5   O5    S    
C6    C19   S    
Cr2   O2    S    
C7    H13   S    
C22   C32   A    
C23   C29   A    
Cr6   O12   S    
Cr1   O19   S    
C17   O23   A    
C41   H11   S    
C45   C51   A    
C46   C52   A    
C33   C36   A    
C6    O4    A    
C12   H18   S    
C13   O14   A    
Cr3   O15   S    
C25   C37   S    
Cr2   O14   S    
Cr4   O26   S    
C44   C58   A    
Cr2   O8    S    
C50   C52   A    
C35   H23   S    
C39   H9    S    
C13   O19   A    
C5    O6    A    
C11   C53   S    
C16   O22   A    
C57   Br3   S    
Cr3   O3    S    
C33   H21   S    
C21   C27   A    
C10   C52   S    
C1    O7    A    
C22   C28   A    
C27   C30   A    
C18   O16   A    
C7    H25   S    
C15   O13   A    
C58   Br4   S    
C5    O11   A    
C7    C11   S    
C39   C42   S    
Cr2   O20   S    
Cr5   O23   S    
C25   C29   A    
Cr1   O13   S    
C48   C57   A    
C7    C49   S    
C27   C39   S    
C21   C36   A    
C43   C49   A    
C57   C60   A    
C11   H17   S    
C10   H16   S    
C9    H27   S    
C40   H10   S    
C23   C31   A    
C48   C54   A    
C11   H29   S    
C17   O18   A    
C28   C40   S    
C41   H5    S    
C14   O20   A    
Cr5   O11   S    
C42   H6    S    
C39   H3    S    
C2    O3    A    
C3    O9    A    
Cr6   O26   S    
C2    O8    A    
Cr1   O1    S    
C4    O10   A    
C55   Br1   S    
C38   H2    S    
C42   H12   S    
C6    O12   A    
C31   C35   A    
C24   C30   A    
Cr3   O21   S    
C36   H24   S    
C8    C50   S    
C47   C55   A    
C4    O5    A    
C38   H8    S    
C44   C50   A    
C1    O2    A    
C9    H15   S    
C37   H7    S    
C32   H20   S    
C29   C41   S    
C56   Br2   S    
C8    H26   S    
Cr6   O24   S    
C16   C45   S    
C13   C48   S    
Cr4   O22   S    
C14   C47   S    
C12   H30   S    
C43   C59   A    
C34   H22   S    
Cr3   O9    S    
C40   H4    S    
C26   C28   A    
C24   C33   A    
C47   C53   A    
C51   C54   A    
C26   C38   S    
C15   O21   A    
C17   C44   S    
Cr4   O10   S    
C19   C35   A    
C18   C43   S    
C38   C40   S    
C4    C21   S    
Cr2   O25   S    
C20   C26   A    
C49   C53   A    
C37   H1    S    
C56   C58   A    
C37   C41   S    
C19   C25   A    
C9    C12   S    
C18   O24   A    
Cr5   O26   S    
C20   C34   A    
C60   Br6   S    
C16   O17   A    
Cr4   O16   S    
C1    C24   S    
C8    C10   S    
C46   C56   A    
C2    C23   S    
C8    H14   S    
C31   H19   S    
C30   C42   S    
C3    C22   S    
C15   C46   S    
C10   H28   S    
Cr4   O4    S    
C12   C54   S    
Cr1   O7    S    
C32   C34   A    
