data_mof_unit_41615.cif
_audit_creation_date              2012-12-10T17:49:34-0500
_audit_creation_method            fapswitch 2.2
_symmetry_space_group_name_H-M    P1
_symmetry_Int_Tables_number       1
_space_group_crystal_system       triclinic
_cell_length_a                    14.71872
_cell_length_b                    14.669037
_cell_length_c                    15.892273
_cell_angle_alpha                 76.879978
_cell_angle_beta                  102.738921
_cell_angle_gamma                 114.996575
_cell_volume                      2998.39158059

loop_
_atom_site_label
_atom_site_type_symbol
_atom_type_description
_atom_site_fract_x
_atom_site_fract_y
_atom_site_fract_z
_atom_type_partial_charge
C1    C     C_R   0.880633 0.312163 0.511835 0.802765
C2    C     C_3   0.037074 0.419015 0.074489 -0.432795
C3    C     C_3   0.999314 0.500024 0.082995 0.186480
C4    C     C_3   0.072247 0.605308 0.042357 -0.414774
C5    C     C_3   0.069889 0.607299 0.943716 -0.249679
C6    C     C_1   0.000365 0.499544 0.175582 -0.052519
C7    C     C_1   0.999103 0.499834 0.824412 -0.019999
C8    C     C_1   0.998922 0.499891 0.748921 -0.141330
C9    C     C_R   0.814041 0.204469 0.506659 -0.141923
C10   C     C_R   0.187551 0.796114 0.478355 -0.051374
C11   C     C_R   0.774390 0.044348 0.458698 -0.225213
C12   C     C_R   0.999598 0.499885 0.659560 0.832502
C13   C     C_R   0.844292 0.140973 0.474180 -0.043823
C14   C     C_R   0.714284 0.168167 0.524781 -0.086650
C15   C     C_R   0.639524 0.079407 0.493081 0.045882
C16   C     C_R   0.672464 0.013849 0.466473 0.133429
C17   C     C_R   0.533577 0.053496 0.486423 0.066459
C18   C     C_R   0.464399 0.953722 0.472216 0.070069
C19   C     C_R   0.501403 0.887725 0.452054 -0.208055
C20   C     C_R   0.603237 0.918697 0.446834 -0.191580
C21   C     C_R   0.494436 0.126739 0.485530 -0.192894
C22   C     C_R   0.391091 0.100226 0.480277 -0.212761
C23   C     C_R   0.119734 0.687922 0.485724 0.791529
C24   C     C_R   0.323461 0.999624 0.476899 0.155976
C25   C     C_R   0.359756 0.924938 0.474539 0.090504
C26   C     C_R   0.219663 0.972736 0.475590 -0.174856
C27   C     C_R   0.151919 0.871604 0.475624 -0.185641
C28   C     C_R   0.290541 0.823253 0.477272 -0.241055
C29   C     C_R   0.718607 0.671934 0.356260 -0.122148
C30   C     C_R   0.798902 0.640266 0.379380 0.044192
C31   C     C_R   0.714130 0.509234 0.487362 0.008756
C32   C     C_R   0.629033 0.536607 0.467426 -0.029234
C33   C     C_R   0.632709 0.620121 0.400295 0.106723
C34   C     C_R   0.000230 0.499837 0.340456 0.821358
C35   C     C_R   0.541522 0.484738 0.511893 0.087079
C36   C     C_R   0.458748 0.517000 0.488321 0.113040
C37   C     C_R   0.466510 0.600646 0.421554 -0.223359
C38   C     C_R   0.551085 0.650602 0.378777 -0.199011
C39   C     C_R   0.534114 0.401764 0.579298 -0.271852
C40   C     C_R   0.449630 0.351728 0.622120 -0.129696
C41   C     C_R   0.368020 0.381777 0.600092 0.107194
C42   C     C_R   0.371154 0.464718 0.532630 -0.091511
C43   C     C_R   0.283129 0.329442 0.644811 0.304202
C44   C     C_R   0.201811 0.360408 0.621252 -0.002137
C45   C     C_3   0.033787 0.415249 0.976870 -0.149167
C46   C     C_R   0.285528 0.490995 0.512357 0.006234
C47   C     C_3   0.891135 0.477021 0.932782 0.180007
C48   C     C_3   0.890082 0.474096 0.031581 -0.203709
C49   C     C_1   0.000679 0.499516 0.251100 -0.157311
C50   C     C_3   0.000257 0.499822 0.917165 0.177591
Cu1   Cu    Cu3+1 0.081750 0.475690 0.522550 0.963498
Cu2   Cu    Cu3+1 0.918250 0.524310 0.477450 0.956871
H1    H     H_    0.988441 0.342730 0.105846 0.175276
H2    H     H_    0.115084 0.436501 0.110786 0.187454
H3    H     H_    0.050085 0.666290 0.050306 0.178660
H4    H     H_    0.627997 0.867633 0.427338 0.148871
H5    H     H_    0.315957 0.763054 0.482194 0.148148
H6    H     H_    0.072389 0.852123 0.476231 0.157876
H7    H     H_    0.364141 0.158692 0.479745 0.157928
H8    H     H_    0.798560 0.994602 0.436313 0.145344
H9    H     H_    0.976806 0.339601 0.961767 0.188362
H10   H     H_    0.452475 0.813950 0.434120 0.135690
H11   H     H_    0.542386 0.206562 0.484128 0.158183
H12   H     H_    0.191137 0.029742 0.475871 0.150716
H13   H     H_    0.551841 0.714231 0.328162 0.156025
H14   H     H_    0.280254 0.551382 0.461201 0.131369
H15   H     H_    0.135448 0.321144 0.654070 0.129799
H16   H     H_    0.448821 0.288515 0.673300 0.208828
H17   H     H_    0.865451 0.679751 0.346698 0.138883
H18   H     H_    0.718754 0.448197 0.537969 0.144969
H19   H     H_    0.868280 0.538728 0.891677 0.108018
H20   H     H_    0.408271 0.630264 0.400462 0.125171
H21   H     H_    0.592879 0.373289 0.601294 0.169121
H22   H     H_    0.841075 0.396057 0.059479 0.168186
H23   H     H_    0.037207 0.662927 0.905936 0.132071
H24   H     H_    0.150126 0.621854 0.078683 0.185430
N1    N     N_R   0.795410 0.560790 0.443550 -0.188787
N2    N     N_R   0.204590 0.439170 0.556520 -0.191951
O1    O     O_R   0.977910 0.338120 0.529720 -0.577028
O2    O     O_R   0.839850 0.379180 0.491640 -0.576380
O3    O     O_R   0.069060 0.479460 0.639610 -0.570438
O4    O     O_R   0.931000 0.520530 0.601530 -0.573535
O5    O     O_R   0.160150 0.620820 0.508360 -0.586456
O6    O     O_R   0.022090 0.661880 0.470280 -0.591676
O7    O     O_R   0.069000 0.479470 0.398470 -0.572895
O8    O     O_R   0.930940 0.520540 0.360390 -0.572707
C51   C     C_1   0.131330 0.420941 0.960915 0.246262
N3    N     N_1   0.207629 0.425106 0.948401 -0.242667
C52   C     C_1   0.945653 0.172888 0.454649 0.269471
N4    N     N_1   0.026796 0.198340 0.438985 -0.282203
C53   C     C_1   0.695727 0.210816 0.590026 0.233520
N5    N     N_1   0.681695 0.244193 0.642944 -0.293823
C54   C     C_1   0.727301 0.758119 0.288103 0.205817
N6    N     N_1   0.734332 0.827153 0.233593 -0.262582
O9    O     O_3   0.280933 0.248763 0.710430 -0.734701
H25   H     H_    0.216099 0.221109 0.734428 0.325732
O10   O     O_3   0.822506 0.383701 0.906086 -0.722357
H26   H     H_    0.753529 0.381697 0.902704 0.336317
C55   C     C_1   0.844774 0.543009 0.041852 0.197744
N7    N     N_1   0.809349 0.596955 0.049951 -0.251555
C56   C     C_1   0.173579 0.646159 0.921917 0.287198
N8    N     N_1   0.254797 0.676858 0.904745 -0.246982

loop_
_geom_bond_atom_site_label_1
_geom_bond_atom_site_label_2
_ccdc_geom_bond_type
C10   C27   A    
C51   N3    T    
C54   N6    T    
C41   C42   A    
C36   C42   A    
O9    H25   S    
C9    C14   A    
C3    C6    S    
Cu1   O7    S    
O10   H26   S    
C7    C8    T    
C28   H5    S    
C25   C28   A    
C26   C27   A    
C29   C30   A    
C23   O5    A    
C36   C37   A    
C45   C51   S    
C24   C26   A    
C46   H14   S    
C42   C46   A    
C11   H8    S    
C19   H10   S    
C15   C16   A    
C29   C33   A    
C3    C48   S    
C18   C19   A    
C34   O8    A    
C45   H9    S    
Cu2   O6    S    
C9    C13   A    
C26   H12   S    
C30   N1    A    
C31   H18   S    
C55   N7    T    
C43   O9    S    
Cu1   O3    S    
C16   C20   A    
C21   C22   A    
C41   C43   A    
C18   C25   A    
C31   N1    A    
C47   C50   S    
C2    C45   S    
C5    C56   S    
C4    H24   S    
C23   O6    A    
Cu1   Cu2   S    
C56   N8    T    
C48   H22   S    
C1    C9    S    
C24   C25   A    
C2    H2    S    
C53   N5    T    
C46   N2    A    
C2    H1    S    
C17   C21   A    
C34   O7    A    
C5    H23   S    
C35   C39   A    
C43   C44   A    
C32   C35   A    
C37   C38   A    
C11   C16   A    
C47   C48   S    
C38   H13   S    
C8    C12   S    
C17   C18   A    
C12   O4    A    
Cu2   O4    S    
C47   H19   S    
C40   C41   A    
C4    H3    S    
C1    O1    A    
C22   C24   A    
C5    C50   S    
Cu2   N1    S    
Cu1   O5    S    
C22   H7    S    
C30   H17   S    
C10   C28   A    
C15   C17   A    
C48   C55   S    
C34   C49   S    
C13   C52   S    
C31   C32   A    
C7    C50   S    
C4    C5    S    
C27   H6    S    
C10   C23   S    
C33   C38   A    
C47   O10   S    
C32   C33   A    
C19   C20   A    
C44   N2    A    
C2    C3    S    
Cu1   N2    S    
C29   C54   S    
C11   C13   A    
C45   C50   S    
Cu2   O8    S    
C12   O3    A    
C20   H4    S    
C39   H21   S    
C6    C49   T    
Cu1   O1    S    
C14   C53   S    
C21   H11   S    
C39   C40   A    
C40   H16   S    
C37   H20   S    
C1    O2    A    
C14   C15   A    
C44   H15   S    
C35   C36   A    
C52   N4    T    
Cu2   O2    S    
C3    C4    S    
