data_mof_unit_22263.cif
_audit_creation_date              2012-12-11T15:39:34-0500
_audit_creation_method            fapswitch 2.2
_symmetry_space_group_name_H-M    P1
_symmetry_Int_Tables_number       1
_space_group_crystal_system       triclinic
_cell_length_a                    6.98571
_cell_length_b                    15.130744
_cell_length_c                    16.643097
_cell_angle_alpha                 95.25306
_cell_angle_beta                  90.631387
_cell_angle_gamma                 90.518417
_cell_volume                      1751.57443479

loop_
_atom_site_label
_atom_site_type_symbol
_atom_type_description
_atom_site_fract_x
_atom_site_fract_y
_atom_site_fract_z
_atom_type_partial_charge
O1    O     O_R   0.633330 0.174290 0.828230 -0.543481
O2    O     O_R   0.366670 0.825710 0.171770 -0.544955
O3    O     O_R   0.301450 0.154140 0.662030 -0.531075
O4    O     O_R   0.698550 0.845860 0.337970 -0.532427
O5    O     O_R   0.133140 0.325730 0.671770 -0.525714
O6    O     O_R   0.866860 0.674270 0.328230 -0.522648
C1    C     C_R   0.470170 0.131447 0.634035 0.804896
C2    C     C_R   0.529832 0.868541 0.365975 0.801498
O7    O     O_R   0.303490 0.163670 0.827000 -0.525250
O8    O     O_R   0.696510 0.836330 0.173000 -0.526471
O9    O     O_R   0.135190 0.335320 0.837920 -0.519585
O10   O     O_R   0.864810 0.664680 0.162080 -0.506212
C3    C     C_R   0.472628 0.142970 0.853619 0.775865
C4    C     C_R   0.527389 0.856937 0.146305 0.772929
O11   O     O_R   0.631280 0.164690 0.662080 -0.555825
O12   O     O_R   0.368720 0.835310 0.337920 -0.556746
O13   O     O_3   0.467420 0.306310 0.753380 -0.373852
O14   O     O_3   0.532580 0.693690 0.246620 -0.362312
V1    V     V_3+5 0.191790 0.239560 0.749370 1.562004
V2    V     V_3+5 0.808210 0.760440 0.250630 1.584885
O15   O     O_R   0.805590 0.345870 0.837970 -0.555831
O16   O     O_R   0.194410 0.654130 0.162030 -0.549658
C5    C     C_R   0.975984 0.366665 0.867419 0.804414
C6    C     C_R   0.024301 0.634660 0.131664 0.795417
O17   O     O_R   0.803560 0.336340 0.672990 -0.534355
O18   O     O_R   0.196440 0.663660 0.327010 -0.538547
C7    C     C_R   0.972185 0.356680 0.646075 0.747807
C8    C     C_R   0.027813 0.643305 0.353912 0.732694
V3    V     V_3+5 0.692030 0.260450 0.750630 1.508315
V4    V     V_3+5 0.307970 0.739550 0.249370 1.521945
O19   O     O_3   0.966260 0.193700 0.746610 -0.386295
O20   O     O_3   0.033740 0.806300 0.253390 -0.389371
C9    C     C_1   0.982333 0.418722 0.583609 -0.131507
C10   C     C_1   0.017669 0.581250 0.416367 -0.141013
C11   C     C_1   0.993167 0.469936 0.531022 0.068242
C12   C     C_1   0.006838 0.530030 0.468948 0.065612
C13   C     C_3   0.893602 0.571166 0.979421 0.494807
C14   C     C_3   0.107787 0.432374 0.018228 0.392097
C15   C     C_3   0.066179 0.531435 0.932128 0.043577
C16   C     C_3   0.934533 0.471738 0.065255 0.062643
C17   C     C_3   0.991827 0.435771 0.938129 -0.291374
C18   C     C_3   0.009350 0.567288 0.059586 -0.270077
C19   C     C_3   0.820461 0.475104 0.986108 0.078559
C20   C     C_3   0.180742 0.528360 0.011261 0.014456
C21   C     C_3   0.672546 0.019610 0.531003 0.049172
C22   C     C_3   0.327452 0.980362 0.469023 0.050195
C23   C     C_3   0.579636 0.926270 0.524250 0.484244
C24   C     C_3   0.420361 0.073701 0.475777 0.484167
C25   C     C_3   0.516005 0.937991 0.436171 -0.317165
C26   C     C_3   0.483995 0.061982 0.563854 -0.318241
C27   C     C_3   0.608710 0.031493 0.443958 0.074409
C28   C     C_3   0.391288 0.968481 0.556069 0.074640
C29   C     C_1   0.483148 0.081053 0.916174 -0.098386
C30   C     C_1   0.516879 0.918816 0.083720 -0.098378
C31   C     C_1   0.493560 0.029920 0.968845 0.078783
C32   C     C_1   0.506473 0.969926 0.031029 0.077224
N1    N     N_3   0.139680 0.562728 0.857966 -0.574480
H1    H     H_    0.200805 0.625484 0.872500 0.282662
H2    H     H_    0.250793 0.520709 0.838105 0.233189
N2    N     N_3   0.854664 0.441046 0.138427 -0.562778
H3    H     H_    0.807606 0.375633 0.124844 0.313427
H4    H     H_    0.966054 0.439961 0.180721 0.226887
S1    S     S_3+6 0.778949 0.667485 0.947894 -0.003958
O21   O     O_2   0.658918 0.709432 0.014847 -0.376918
O22   O     O_2   0.928670 0.733401 0.927314 -0.316047
O23   O     O_3   0.641931 0.638737 0.865815 -0.507400
H5    H     H_    0.571175 0.693232 0.856006 0.378795
S2    S     S_3+6 0.236630 0.340017 0.050080 0.033140
O24   O     O_2   0.101624 0.276900 0.085874 -0.315909
O25   O     O_2   0.332166 0.291721 0.978972 -0.342398
O26   O     O_3   0.402962 0.375838 0.119548 -0.449047
H6    H     H_    0.334217 0.416553 0.159070 0.340513
N3    N     N_3   0.629646 0.437352 0.975546 -0.528134
H7    H     H_    0.642438 0.369660 0.981830 0.292735
H8    H     H_    0.585604 0.443394 0.916148 0.243743
N4    N     N_3   0.373255 0.564537 0.022226 -0.526746
H9    H     H_    0.429590 0.564929 0.964771 0.277048
H10   H     H_    0.360635 0.631986 0.039878 0.270919
S3    S     S_3+6 0.679097 0.828749 0.559843 0.030295
O27   O     O_2   0.737983 0.848038 0.646845 -0.304380
O28   O     O_2   0.530998 0.755726 0.552310 -0.325492
O29   O     O_3   0.870508 0.796981 0.504728 -0.530708
H11   H     H_    0.927063 0.747927 0.532279 0.356649
S4    S     S_3+6 0.320881 0.171227 0.440201 0.031956
O30   O     O_2   0.468967 0.244254 0.447742 -0.325621
O31   O     O_2   0.261990 0.151946 0.353199 -0.299451
O32   O     O_3   0.129469 0.202982 0.495322 -0.531547
H12   H     H_    0.072766 0.251966 0.467722 0.354380
N5    N     N_3   0.863864 0.038965 0.563486 -0.566725
H13   H     H_    0.860995 0.028135 0.624541 0.248867
H14   H     H_    0.889689 0.106605 0.560771 0.273182
N6    N     N_3   0.136132 0.961007 0.436543 -0.566967
H15   H     H_    0.139001 0.971827 0.375486 0.248919
H16   H     H_    0.110297 0.893369 0.439267 0.272959
N7    N     N_3   0.724467 0.068194 0.382557 -0.551463
H17   H     H_    0.825371 0.020840 0.363217 0.254042
H18   H     H_    0.799238 0.123123 0.410126 0.292471
N8    N     N_3   0.275530 0.931783 0.617472 -0.556397
H19   H     H_    0.174659 0.979147 0.636826 0.254272
H20   H     H_    0.200722 0.876867 0.589902 0.292771

loop_
_geom_bond_atom_site_label_1
_geom_bond_atom_site_label_2
_ccdc_geom_bond_type
C19   N3    S    
C14   C16   S    
C31   C32   S    
S1    O22   D    
C16   N2    S    
C6    C18   S    
N3    H7    S    
C11   C12   S    
S4    O32   S    
C23   S3    S    
O32   H12   S    
V1    O19   S    
C23   C25   S    
C7    C9    S    
C22   C25   S    
O9    V1    S    
O9    C5    A    
N4    H10   S    
O3    C1    A    
N8    H19   S    
N1    H2    S    
C22   N6    S    
C21   C27   S    
O12   V4    S    
C15   N1    S    
C22   C28   S    
O13   V3    S    
N2    H4    S    
C21   C23   S    
C28   N8    S    
C13   C18   S    
C20   N4    S    
O7    C3    A    
O13   V1    S    
O5    C7    A    
O7    V1    S    
C24   C27   S    
O6    C8    A    
N7    H17   S    
O8    V2    S    
S2    O24   D    
C25   C27   S    
C26   C28   S    
O3    V1    S    
O14   V4    S    
N5    H14   S    
C21   N5    S    
C17   C19   S    
C10   C12   T    
O4    C2    A    
C24   C26   S    
O23   H5    S    
S1    O23   S    
C8    C10   S    
C2    O12   A    
N3    H8    S    
C18   C20   S    
O1    V3    S    
C13   S1    S    
O11   V3    S    
C3    C29   S    
C29   C31   T    
O17   V3    S    
C13   C15   S    
C22   C24   S    
N4    H9    S    
C14   C17   S    
C15   C17   S    
O8    C4    A    
S3    O28   D    
O15   V3    S    
S3    O27   D    
N2    H3    S    
C13   C19   S    
C14   C20   S    
O10   V2    S    
N6    H16   S    
S4    O30   D    
C15   C20   S    
C4    C30   S    
C14   S2    S    
O18   V4    S    
N8    H20   S    
O15   C5    A    
O16   C6    A    
O1    C3    A    
V2    O20   S    
O16   V4    S    
C1    C26   S    
S4    O31   D    
C16   C18   S    
S3    O29   S    
N7    H18   S    
C30   C32   T    
C23   C28   S    
O5    V1    S    
O17   C7    A    
O6    V2    S    
O10   C6    A    
O18   C8    A    
C5    C17   S    
O2    V4    S    
C16   C19   S    
O26   H6    S    
V3    O19   S    
V4    O20   S    
N1    H1    S    
C21   C26   S    
S2    O26   S    
C1    O11   A    
N6    H15   S    
C9    C11   T    
O14   V2    S    
O2    C4    A    
S1    O21   D    
O4    V2    S    
C24   S4    S    
S2    O25   D    
O29   H11   S    
N5    H13   S    
C2    C25   S    
C27   N7    S    
