data_mof_unit_54524.cif
_audit_creation_date              2012-12-10T20:51:26-0500
_audit_creation_method            fapswitch 2.2
_symmetry_space_group_name_H-M    P1
_symmetry_Int_Tables_number       1
_space_group_crystal_system       triclinic
_cell_length_a                    17.51317
_cell_length_b                    8.916119
_cell_length_c                    8.213256
_cell_angle_alpha                 90.000066
_cell_angle_beta                  89.878903
_cell_angle_gamma                 89.999967
_cell_volume                      1282.49301724

loop_
_atom_site_label
_atom_site_type_symbol
_atom_type_description
_atom_site_fract_x
_atom_site_fract_y
_atom_site_fract_z
_atom_type_partial_charge
C1    C     C_R   0.500000 0.218459 0.500000 0.930106
C2    C     C_R   0.848469 0.549012 0.352953 0.162509
C3    C     C_R   0.771775 0.526347 0.645806 0.130745
C4    C     C_R   0.228225 0.526349 0.354194 0.130745
C5    C     C_R   0.230815 0.553848 0.648288 0.131302
C6    C     C_R   0.769185 0.553846 0.351712 0.131301
C7    C     C_R   0.730109 0.524143 0.498760 -0.258957
C8    C     C_R   0.269891 0.524144 0.501239 -0.258956
C9    C     C_R   0.885697 0.583968 0.497366 -0.095049
C10   C     C_R   0.114303 0.583975 0.502634 -0.095048
C11   C     C_1   0.966095 0.595768 0.499228 0.114450
C12   C     C_R   0.500000 0.781540 0.500000 0.924925
C13   C     C_1   0.033905 0.595771 0.500771 0.114450
C14   C     C_1   0.500000 0.065319 0.500000 -0.147178
C15   C     C_1   0.500000 0.934664 0.500000 -0.142728
C16   C     C_R   0.352941 0.503832 0.500222 0.923946
C17   C     C_R   0.647058 0.503832 0.499778 0.923946
C18   C     C_R   0.845413 0.586664 0.643504 0.157978
C19   C     C_R   0.154588 0.586670 0.356496 0.157977
C20   C     C_R   0.151531 0.549018 0.647047 0.162510
I1    I     I_    0.890890 0.705304 0.844692 -0.160783
I2    I     I_    0.109109 0.705304 0.155305 -0.160782
I3    I     I_    0.092379 0.432412 0.833438 -0.157723
I4    I     I_    0.907622 0.432412 0.166559 -0.157723
I5    I     I_    0.739305 0.392248 0.848816 -0.187131
I6    I     I_    0.260695 0.392254 0.151181 -0.187130
I7    I     I_    0.281110 0.682103 0.838722 -0.201817
I8    I     I_    0.718890 0.682098 0.161275 -0.201815
N1    N     N_1   0.500000 0.500000 0.073640 0.005388
N2    N     N_1   0.500000 0.500000 0.926360 0.005388
O1    O     O_R   0.500000 0.285350 0.636850 -0.608123
O2    O     O_R   0.500000 0.714650 0.363150 -0.607713
O3    O     O_R   0.500000 0.714650 0.636850 -0.607713
O4    O     O_R   0.500000 0.285350 0.363150 -0.608124
O5    O     O_R   0.389120 0.500000 0.636930 -0.593795
O6    O     O_R   0.610880 0.500000 0.363070 -0.593795
O7    O     O_R   0.610880 0.500000 0.636930 -0.594744
O8    O     O_R   0.389120 0.500000 0.363070 -0.594745
Zn1   Zn    Zn3+2 0.500000 0.500000 0.682780 1.056954
Zn2   Zn    Zn3+2 0.500000 0.500000 0.317220 1.056954

loop_
_geom_bond_atom_site_label_1
_geom_bond_atom_site_label_2
_ccdc_geom_bond_type
N2    Zn1   S    
C5    C8    A    
C4    I6    S    
C12   C15   S    
C2    C9    A    
C6    C7    A    
C17   O6    A    
C18   I1    S    
C11   C13   T    
O5    Zn1   S    
C20   I3    S    
C3    I5    S    
C10   C19   A    
C4    C8    A    
C1    O1    A    
C8    C16   S    
C5    C20   A    
C17   O7    A    
C12   O2    A    
O8    Zn2   S    
C9    C11   S    
N1    N2    T    
O4    Zn2   S    
N1    Zn2   S    
O1    Zn1   S    
C1    O4    A    
C3    C7    A    
O2    Zn2   S    
C16   O5    A    
C2    I4    S    
C9    C18   A    
O6    Zn2   S    
C19   I2    S    
C3    C18   A    
O7    Zn1   S    
C16   O8    A    
C14   C15   T    
C1    C14   S    
C12   O3    A    
C5    I7    S    
C4    C19   A    
O3    Zn1   S    
C6    I8    S    
C2    C6    A    
C10   C20   A    
C7    C17   S    
C10   C13   S    
