data_mof_unit_10623.cif
_audit_creation_date              2012-10-26T18:50:06-0400
_audit_creation_method            fapswitch 2.2
_symmetry_space_group_name_H-M    P1
_symmetry_Int_Tables_number       1
_space_group_crystal_system       triclinic
_cell_length_a                    10.764066
_cell_length_b                    12.995744
_cell_length_c                    11.647509
_cell_angle_alpha                 100.627735
_cell_angle_beta                  92.868806
_cell_angle_gamma                 90.519953
_cell_volume                      1599.10126644

loop_
_atom_site_label
_atom_site_type_symbol
_atom_type_description
_atom_site_fract_x
_atom_site_fract_y
_atom_site_fract_z
_atom_type_partial_charge
C1    C     C_R   0.499556 0.299292 0.477847 0.582821
C2    C     C_R   0.565665 0.866000 0.464670 0.218769
C3    C     C_R   0.457187 0.027833 0.538812 0.021302
C4    C     C_R   0.542829 0.972174 0.461180 0.021298
C5    C     C_R   0.379610 0.402770 0.021297 0.042677
C6    C     C_R   0.620391 0.597229 0.978703 0.042679
C7    C     C_R   0.391926 0.411520 0.145467 0.408516
C8    C     C_R   0.608074 0.588479 0.854533 0.408517
C9    C     C_R   0.551596 0.541124 0.157092 0.014311
C10   C     C_R   0.448404 0.458875 0.842908 0.014306
C11   C     C_R   0.543595 0.534945 0.034194 -0.028883
C12   C     C_R   0.500453 0.700709 0.522152 0.582813
C13   C     C_R   0.456406 0.465054 0.965806 -0.028885
C14   C     C_R   0.262542 0.513441 0.503428 0.584009
C15   C     C_R   0.737458 0.486558 0.496572 0.584016
C16   C     C_R   0.121985 0.534428 0.723939 -0.103437
C17   C     C_R   0.878016 0.465564 0.276061 -0.103438
C18   C     C_R   0.068908 0.499750 0.816810 -0.153535
C19   C     C_R   0.931094 0.500237 0.183187 -0.153537
C20   C     C_R   0.960651 0.438784 0.797264 -0.097999
C21   C     C_R   0.039350 0.561205 0.202733 -0.097997
C22   C     C_R   0.898145 0.420055 0.686241 0.295240
C23   C     C_R   0.495479 0.814111 0.536121 0.019586
C24   C     C_R   0.101855 0.579939 0.313756 0.295244
C25   C     C_R   0.944473 0.466814 0.595158 0.050320
C26   C     C_R   0.055526 0.533181 0.404841 0.050320
C27   C     C_R   0.065912 0.510166 0.609425 -0.047818
C28   C     C_R   0.934087 0.489829 0.390575 -0.047819
C29   C     C_R   0.873433 0.471152 0.490543 -0.012162
C30   C     C_R   0.126566 0.528845 0.509457 -0.012166
C31   C     C_R   0.504537 0.185893 0.463875 0.019592
C32   C     C_R   0.604409 0.024210 0.382394 0.123251
C33   C     C_R   0.395628 0.975804 0.617617 0.123284
C34   C     C_R   0.587180 0.131630 0.386373 0.049535
C35   C     C_R   0.412869 0.868386 0.613647 0.049518
C36   C     C_R   0.434335 0.133999 0.535307 0.218772
Cu1   Cu    Cu3+1 0.509250 0.507730 0.615930 1.044269
Cu2   Cu    Cu3+1 0.490750 0.492270 0.384070 1.044270
H1    H     H_    0.074952 0.593305 0.131188 0.086711
H2    H     H_    0.310705 0.255370 0.962138 0.242641
H3    H     H_    0.798422 0.649003 0.021475 0.222544
H4    H     H_    0.689299 0.744628 0.037860 0.242647
H5    H     H_    0.777648 0.326127 0.735369 0.319189
H6    H     H_    0.222350 0.673866 0.264626 0.319191
H7    H     H_    0.691241 0.757702 0.436552 0.321739
H8    H     H_    0.308746 0.242297 0.563408 0.321741
H9    H     H_    0.362796 0.845336 0.773414 0.227876
H10   H     H_    0.248261 0.818851 0.665185 0.230621
H11   H     H_    0.637369 0.154693 0.226637 0.227841
H12   H     H_    0.925050 0.406681 0.868807 0.086710
H13   H     H_    0.751828 0.181179 0.334921 0.230616
H14   H     H_    0.774022 0.001342 0.312711 0.234303
H15   H     H_    0.650319 0.974362 0.214095 0.219860
H16   H     H_    0.226027 0.998683 0.687343 0.234312
H17   H     H_    0.349751 0.025669 0.785933 0.219847
H18   H     H_    0.738128 0.694216 0.849521 0.297420
H19   H     H_    0.261879 0.305777 0.150478 0.297421
H20   H     H_    0.204652 0.583537 0.744041 0.158250
H21   H     H_    0.795348 0.416455 0.255960 0.158255
H22   H     H_    0.113982 0.517700 0.903533 0.115534
H23   H     H_    0.886022 0.482284 0.096464 0.115531
H24   H     H_    0.382317 0.405739 0.788360 0.193303
H25   H     H_    0.617684 0.594260 0.211640 0.193308
H26   H     H_    0.201579 0.350994 0.978526 0.222547
N1    N     N_R   0.523180 0.519350 0.790130 -0.227030
N2    N     N_R   0.476820 0.480650 0.209870 -0.227032
N3    N     N_3   0.290828 0.331659 0.951173 -0.649658
N4    N     N_3   0.709174 0.668339 0.048827 -0.649649
N5    N     N_3   0.343222 0.812452 0.685465 -0.610059
N6    N     N_3   0.656874 0.187579 0.314599 -0.610040
N7    N     N_3   0.684435 0.968338 0.298150 -0.525484
N8    N     N_3   0.315619 0.031682 0.701878 -0.525483
O1    O     O_R   0.506570 0.354460 0.582000 -0.491520
O2    O     O_3   0.202454 0.648892 0.337196 -0.682199
O3    O     O_3   0.656958 0.814029 0.398127 -0.645925
O4    O     O_3   0.343014 0.185958 0.601823 -0.645936
O5    O     O_3   0.679170 0.648261 0.795160 -0.656054
O6    O     O_3   0.320830 0.351738 0.204840 -0.656054
O7    O     O_R   0.493430 0.645540 0.418000 -0.491517
O8    O     O_R   0.490940 0.341410 0.386200 -0.436978
O9    O     O_R   0.509060 0.658590 0.613800 -0.436964
O10   O     O_R   0.327470 0.506520 0.597900 -0.545475
O11   O     O_R   0.672530 0.493480 0.402100 -0.545474
O12   O     O_R   0.311840 0.493460 0.402100 -0.410388
O13   O     O_R   0.688160 0.506540 0.597900 -0.410392
O14   O     O_3   0.797544 0.351104 0.662800 -0.682203

loop_
_geom_bond_atom_site_label_1
_geom_bond_atom_site_label_2
_ccdc_geom_bond_type
Cu2   O11   S    
C14   O12   A    
H10   N5    S    
C5    N3    S    
H8    O4    S    
C12   C23   S    
Cu1   O13   S    
C28   C29   A    
C19   C21   A    
C24   C26   A    
Cu2   O7    S    
C3    C33   A    
C12   O7    A    
C1    C31   S    
C9    N2    A    
H9    N5    S    
C20   H12   S    
C36   O4    S    
C33   N8    S    
C17   C19   A    
Cu2   N2    S    
H2    N3    S    
Cu1   N1    S    
H13   N6    S    
C32   N7    S    
C34   N6    S    
C5    C13   A    
H17   N8    S    
C15   O13   A    
C16   C27   A    
C6    N4    S    
C8    N1    A    
C27   C30   A    
H4    N4    S    
H5    O14   S    
Cu1   O9    S    
C10   H24   S    
C14   C30   S    
C15   C29   S    
H3    N4    S    
C25   C29   A    
H26   N3    S    
C6    C11   A    
C5    C7    A    
C15   O11   A    
C22   C25   A    
H18   O5    S    
C32   C34   A    
C2    C4    A    
Cu1   Cu2   S    
C21   H1    S    
C31   C34   A    
C16   H20   S    
H6    O2    S    
C9    C11   A    
C4    C32   A    
C17   H21   S    
C7    O6    S    
C18   H22   S    
C20   C22   A    
C26   C30   A    
C23   C35   A    
H11   N6    S    
C8    O5    S    
Cu1   O10   S    
C14   O10   A    
C3    C4    A    
H15   N7    S    
C10   N1    A    
Cu1   O1    S    
Cu2   O12   S    
C9    H25   S    
C17   C28   A    
H19   O6    S    
C10   C13   A    
C6    C8    A    
C25   C27   A    
C26   C28   A    
H7    O3    S    
C1    O1    A    
H14   N7    S    
C7    N2    A    
C11   C13   A    
C24   O2    S    
Cu2   O8    S    
C3    C36   A    
C19   H23   S    
C33   C35   A    
C12   O9    A    
C18   C20   A    
C22   O14   S    
H16   N8    S    
C35   N5    S    
C16   C18   A    
C21   C24   A    
C2    C23   A    
C1    O8    A    
C31   C36   A    
C2    O3    S    
