data_mof_unit_8550.cif
_audit_creation_date              2012-12-11T17:06:33-0500
_audit_creation_method            fapswitch 2.2
_symmetry_space_group_name_H-M    P1
_symmetry_Int_Tables_number       1
_space_group_crystal_system       triclinic
_cell_length_a                    6.987937
_cell_length_b                    14.554474
_cell_length_c                    15.939129
_cell_angle_alpha                 90.489665
_cell_angle_beta                  89.973217
_cell_angle_gamma                 89.957483
_cell_volume                      1621.04119808

loop_
_atom_site_label
_atom_site_type_symbol
_atom_type_description
_atom_site_fract_x
_atom_site_fract_y
_atom_site_fract_z
_atom_type_partial_charge
O1    O     O_R   0.494400 0.415450 0.412630 -0.535549
O2    O     O_R   0.823940 0.405730 0.586760 -0.513187
O3    O     O_R   0.994240 0.584550 0.587370 -0.536045
C1    C     C_R   0.655090 0.383253 0.614900 0.763831
O4    O     O_R   0.824110 0.404430 0.413240 -0.543413
O5    O     O_R   0.994420 0.583240 0.412620 -0.541528
C2    C     C_R   0.655230 0.381524 0.384962 0.712173
O6    O     O_R   0.494230 0.416760 0.587380 -0.545023
O7    O     O_3   0.660800 0.558670 0.500000 -0.373908
V1    V     V_3+5 0.935650 0.489120 0.500000 1.505355
O8    O     O_R   0.324140 0.594270 0.413240 -0.545292
C3    C     C_R   0.155090 0.615967 0.384249 0.696313
O9    O     O_R   0.323960 0.595570 0.586760 -0.544519
C4    C     C_R   0.155221 0.616972 0.615941 0.728017
V2    V     V_3+5 0.435660 0.510880 0.500000 1.460045
O10   O     O_3   0.160640 0.441330 0.500000 -0.356234
C5    C     C_3   0.037132 0.670795 0.770128 -0.231390
C6    C     C_3   0.210022 0.711808 0.818789 -0.124487
H1    H     H_    0.273166 0.683128 0.876852 0.110116
H2    H     H_    0.958380 0.607501 0.787420 0.121376
C7    C     C_3   0.121597 0.808418 0.810620 -0.092139
C8    C     C_3   0.948103 0.768208 0.762932 -0.182051
C9    C     C_3   0.057775 0.781787 0.680058 0.695955
C10   C     C_3   0.229726 0.823337 0.727406 -0.166448
C11   C     C_3   0.317839 0.725898 0.734747 -0.195999
C12   C     C_3   0.144953 0.685704 0.686823 -0.111846
H3    H     H_    0.795674 0.786219 0.773898 0.129903
H4    H     H_    0.311153 0.885198 0.709042 0.170661
H5    H     H_    0.470159 0.708157 0.723129 0.142040
C13   C     C_R   0.273054 0.814710 0.239083 0.125893
C14   C     C_R   0.118443 0.815347 0.183086 -0.115309
C15   C     C_R   0.966514 0.754479 0.199483 -0.178517
H6    H     H_    0.843624 0.752578 0.158427 0.133502
C16   C     C_R   0.977567 0.690841 0.265533 -0.174956
H7    H     H_    0.862218 0.642207 0.273451 0.123296
C17   C     C_R   0.141251 0.685800 0.317075 -0.105955
C18   C     C_R   0.284447 0.751481 0.304176 0.148999
C19   C     C_3   0.493999 0.738389 0.291683 -0.415826
C20   C     C_3   0.481711 0.807636 0.221083 -0.410193
H8    H     H_    0.528956 0.667720 0.269562 0.155540
H9    H     H_    0.578669 0.763412 0.346284 0.204272
H10   H     H_    0.510293 0.777330 0.158054 0.165343
H11   H     H_    0.558581 0.872842 0.235034 0.186257
C21   C     C_R   0.488119 0.312293 0.737926 -0.090549
C22   C     C_R   0.646688 0.316014 0.684113 -0.203499
C23   C     C_R   0.793012 0.250700 0.695521 0.632416
C24   C     C_R   0.783445 0.186867 0.761155 -0.228124
H12   H     H_    0.894909 0.136417 0.767667 0.178711
C25   C     C_R   0.622818 0.182113 0.813658 -0.163237
C26   C     C_R   0.473005 0.243425 0.798457 0.018142
C27   C     C_3   0.274421 0.220006 0.771069 0.059780
C28   C     C_3   0.286048 0.299877 0.711121 -0.259393
H13   H     H_    0.167971 0.230232 0.822091 0.088468
H14   H     H_    0.195214 0.359255 0.730179 0.126839
H15   H     H_    0.274737 0.280355 0.643746 0.256146
C29   C     C_R   0.480952 0.304922 0.265913 0.037283
C30   C     C_R   0.645643 0.314032 0.314846 -0.087888
C31   C     C_R   0.800047 0.256176 0.295324 -0.147340
H16   H     H_    0.923725 0.257012 0.334921 0.172503
C32   C     C_R   0.789376 0.191820 0.229111 -0.165631
H17   H     H_    0.907459 0.145020 0.219180 0.140064
C33   C     C_R   0.622923 0.183614 0.179906 -0.085620
C34   C     C_R   0.470924 0.243202 0.198393 0.058691
C35   C     C_3   0.270025 0.218109 0.218773 -0.435929
C36   C     C_3   0.284093 0.281659 0.294501 0.011537
H18   H     H_    0.254227 0.144202 0.234435 0.193360
H19   H     H_    0.169569 0.243374 0.170082 0.150013
H20   H     H_    0.187566 0.342239 0.291118 0.097958
O11   O     O_R   0.771650 0.079500 0.908680 -0.542265
O12   O     O_R   0.441690 0.091800 0.082800 -0.540514
O13   O     O_R   0.271460 0.912980 0.083410 -0.539736
C37   C     C_R   0.610467 0.113596 0.112033 0.689076
O14   O     O_R   0.441930 0.090510 0.909280 -0.533492
O15   O     O_R   0.271690 0.911670 0.908660 -0.533473
C38   C     C_R   0.610780 0.112209 0.880490 0.750143
O16   O     O_R   0.771410 0.080810 0.083440 -0.543739
O17   O     O_3   0.605100 0.937580 0.996050 -0.373948
V3    V     V_3+5 0.330220 0.007110 0.996030 1.423314
O18   O     O_R   0.941980 0.900620 0.909250 -0.541077
C39   C     C_R   0.110878 0.878464 0.880597 0.731556
O19   O     O_R   0.941740 0.901920 0.082770 -0.544539
C40   C     C_R   0.110513 0.880238 0.111747 0.688103
V4    V     V_3+5 0.830220 0.985300 0.996000 1.410858
O20   O     O_3   0.105210 0.054870 0.996020 -0.372205
F1    F     F_    0.933924 0.242004 0.637717 -0.666990
I1    I     I_    0.264680 0.090453 0.703712 -0.305656
I2    I     I_    0.281368 0.206844 0.411468 -0.285431
F2    F     F_    0.979279 0.817802 0.607838 -0.663755

loop_
_geom_bond_atom_site_label_1
_geom_bond_atom_site_label_2
_ccdc_geom_bond_type
O18   V4    S    
O12   V3    S    
C6    C7    S    
C1    O6    A    
O19   C40   A    
C24   C25   A    
O17   V3    S    
C18   C19   S    
C14   C40   S    
C5    C12   S    
C17   C18   A    
C16   H7    S    
O5    C3    A    
C19   C20   S    
O17   V4    S    
C31   C32   A    
C29   C36   S    
C5    H2    S    
C29   C30   A    
O16   V4    S    
C32   C33   A    
C6    H1    S    
C9    C12   S    
O8    V2    S    
V4    O20   S    
O14   V3    S    
C25   C38   S    
O1    V2    S    
C3    C17   S    
O7    V1    S    
C28   H15   S    
C37   O16   A    
C23   F1    S    
C21   C28   S    
O15   C39   A    
O9    C4    A    
O14   C38   A    
C6    C11   S    
C27   I1    S    
O19   V4    S    
C28   H14   S    
C36   I2    S    
C20   H10   S    
C1    C22   S    
C11   H5    S    
C27   C28   S    
C35   H19   S    
C10   C11   S    
C19   H9    S    
O4    C2    A    
C20   H11   S    
C26   C27   S    
C11   C12   S    
C22   C23   A    
C34   C35   S    
C13   C18   A    
C32   H17   S    
C27   H13   S    
C35   H18   S    
O2    C1    A    
C33   C34   A    
O11   V4    S    
C24   H12   S    
C9    C10   S    
C36   H20   S    
C5    C6    S    
C29   C34   A    
C33   C37   S    
C4    C12   S    
O3    C4    A    
O6    V2    S    
C8    H3    S    
O9    V2    S    
O2    V1    S    
C21   C22   A    
C21   C26   A    
C23   C24   A    
O1    C2    A    
C14   C15   A    
C10   H4    S    
O5    V1    S    
O8    C3    A    
C5    C8    S    
C9    F2    S    
C15   H6    S    
O13   C40   A    
C31   H16   S    
O4    V1    S    
O3    V1    S    
V1    O10   S    
C35   C36   S    
C19   H8    S    
C30   C31   A    
C13   C14   A    
C7    C39   S    
C13   C20   S    
O11   C38   A    
C16   C17   A    
O7    V2    S    
O18   C39   A    
V3    O20   S    
C25   C26   A    
O15   V3    S    
C7    C10   S    
C8    C9    S    
O12   C37   A    
C7    C8    S    
C2    C30   S    
O13   V3    S    
V2    O10   S    
C15   C16   A    
