data_mof_unit_31864.cif
_audit_creation_date              2013-03-05T15:48:07-0500
_audit_creation_method            fapswitch 2.2
_symmetry_space_group_name_H-M    P1
_symmetry_Int_Tables_number       1
_space_group_crystal_system       triclinic
_cell_length_a                    15.061955
_cell_length_b                    12.995948
_cell_length_c                    11.725311
_cell_angle_alpha                 99.036197
_cell_angle_beta                  92.765422
_cell_angle_gamma                 91.271287
_cell_volume                      2263.00868849

loop_
_atom_site_label
_atom_site_type_symbol
_atom_site_description
_atom_site_fract_x
_atom_site_fract_y
_atom_site_fract_z
_atom_type_partial_charge
O1    O     O_R   0.504720 0.354460 0.582000 -0.547575
O2    O     O_R   0.495280 0.645540 0.418000 -0.580477
O3    O     O_R   0.493480 0.341410 0.386200 -0.566207
O4    O     O_R   0.506520 0.658590 0.613800 -0.554935
C1    C     C_R   0.497302 0.299896 0.479491 0.907824
C2    C     C_R   0.501863 0.700207 0.520404 0.852263
O5    O     O_R   0.375880 0.506510 0.597910 -0.501920
O6    O     O_R   0.624120 0.493490 0.402090 -0.501567
O7    O     O_R   0.364640 0.493450 0.402110 -0.619927
O8    O     O_R   0.635360 0.506550 0.597890 -0.610163
C3    C     C_R   0.329106 0.502161 0.501589 0.851686
C4    C     C_R   0.670854 0.497916 0.498470 0.875700
Cu1   Cu    Cu3+1 0.506660 0.507730 0.615930 1.061805
Cu2   Cu    Cu3+1 0.493340 0.492270 0.384070 1.044685
C5    C     C_R   0.816594 0.566001 0.576614 -0.279746
C6    C     C_R   0.183232 0.435113 0.422509 -0.276946
C7    C     C_R   0.767202 0.495555 0.495433 -0.120455
C8    C     C_R   0.232689 0.504527 0.504782 -0.123700
C9    C     C_R   0.809004 0.424142 0.413473 0.310397
C10   C     C_R   0.190802 0.574323 0.588415 0.305603
C11   C     C_R   0.903527 0.423853 0.413908 -0.046158
C12   C     C_R   0.096286 0.575490 0.586955 -0.044277
C13   C     C_R   0.952941 0.497995 0.497800 0.020484
C14   C     C_R   0.046880 0.501930 0.502453 0.020773
C15   C     C_R   0.908548 0.568345 0.577894 0.071175
C16   C     C_R   0.091279 0.432144 0.421807 0.070114
C17   C     C_R   0.951571 0.352950 0.335840 0.143759
C18   C     C_R   0.048257 0.646962 0.664427 0.143889
C19   C     C_R   0.043866 0.359052 0.340699 -0.146524
C20   C     C_R   0.955958 0.641557 0.658841 -0.146688
H1    H     H_    0.782718 0.620637 0.638406 0.160599
H2    H     H_    0.217065 0.381300 0.359821 0.161986
H3    H     H_    0.079095 0.305010 0.279955 0.160740
H4    H     H_    0.920726 0.696222 0.718912 0.160477
C21   C     C_R   0.509180 0.812842 0.529918 -0.029956
C22   C     C_R   0.489438 0.187440 0.469758 0.012335
C23   C     C_R   0.409549 0.026098 0.394888 -0.179589
C24   C     C_R   0.588754 0.974429 0.606271 -0.222832
C25   C     C_R   0.421421 0.132745 0.397265 0.072295
C26   C     C_R   0.577165 0.867525 0.602723 0.133732
C27   C     C_R   0.546359 0.135903 0.538905 0.105296
C28   C     C_R   0.451770 0.865471 0.461604 0.098839
C29   C     C_R   0.533752 0.028082 0.537151 0.043689
C30   C     C_R   0.464528 0.972982 0.464564 0.121088
H5    H     H_    0.356347 0.985722 0.338684 0.187513
H6    H     H_    0.642096 0.014033 0.662613 0.148488
N1    N     N_R   0.516670 0.519360 0.790130 -0.237020
N2    N     N_R   0.483330 0.480640 0.209870 -0.238655
C31   C     C_R   0.418216 0.398819 0.026126 -0.234266
C32   C     C_R   0.581683 0.601309 0.973887 -0.234852
C33   C     C_R   0.425701 0.409058 0.147008 0.018364
C34   C     C_R   0.574017 0.591257 0.853024 0.019504
C35   C     C_R   0.535224 0.544760 0.155140 0.535911
C36   C     C_R   0.465154 0.454839 0.844833 0.544252
C37   C     C_R   0.529598 0.537084 0.032646 -0.065594
C38   C     C_R   0.470444 0.462894 0.967363 -0.066629
H7    H     H_    0.614335 0.641172 0.809278 0.157299
H8    H     H_    0.385174 0.359370 0.190777 0.158676
H9    H     H_    0.371477 0.340837 0.979658 0.205680
H10   H     H_    0.628358 0.659367 0.020347 0.206101
N3    N     N_R   0.754348 0.350680 0.334883 0.092049
O9    O     O_R   0.726163 0.374941 0.236146 -0.324323
O10   O     O_R   0.716312 0.272636 0.372656 -0.393469
N4    N     N_R   0.245316 0.643801 0.671629 0.095522
O11   O     O_R   0.286192 0.722959 0.639677 -0.408815
O12   O     O_R   0.269516 0.615406 0.769825 -0.320620
N5    N     N_3   0.910787 0.272762 0.250446 -0.567618
H11   H     H_    0.872530 0.222069 0.290309 0.272967
H12   H     H_    0.873257 0.306221 0.189534 0.280239
N6    N     N_3   0.089037 0.728013 0.748800 -0.566909
H13   H     H_    0.125407 0.695463 0.811474 0.281616
H14   H     H_    0.128412 0.777103 0.708239 0.273560
N7    N     N_3   0.379478 0.811293 0.390445 -0.591181
H15   H     H_    0.342665 0.767112 0.439705 0.249531
H16   H     H_    0.404960 0.762116 0.321367 0.270525
N8    N     N_3   0.617127 0.194359 0.608748 -0.553532
H17   H     H_    0.677902 0.162961 0.584110 0.236351
H18   H     H_    0.608708 0.188893 0.695598 0.247108
N9    N     N_3   0.636962 0.813736 0.670114 -0.595997
H19   H     H_    0.701642 0.826442 0.645629 0.219676
H20   H     H_    0.633538 0.846570 0.757054 0.229861
N10   N     N_3   0.362017 0.186269 0.329103 -0.598381
H21   H     H_    0.297232 0.174130 0.353540 0.223484
H22   H     H_    0.365494 0.152745 0.242391 0.233509
N11   N     N_R   0.406544 0.377648 0.778103 0.117573
O13   O     O_R   0.430062 0.280928 0.762784 -0.383798
O14   O     O_R   0.322644 0.397355 0.766067 -0.331731
N12   N     N_R   0.595461 0.620194 0.221718 0.119382
O15   O     O_R   0.573740 0.717532 0.238445 -0.390916
O16   O     O_R   0.679038 0.598348 0.231811 -0.332026

loop_
_geom_bond_atom_site_label_1
_geom_bond_atom_site_label_2
_geom_bond_distance
_ccdc_geom_bond_type
C37   C38   1.404865 A    
C3    C8    1.455404 S    
C17   C19   1.388549 A    
N7    H16   1.044060 S    
N7    H15   1.044834 S    
N12   O16   1.300498 A    
O7    Cu2   1.960236 S    
N11   O13   1.301039 A    
O5    C3    1.294784 A    
O1    C1    1.294524 A    
C9    C11   1.423546 A    
N8    H18   1.045431 S    
C5    C15   1.383970 A    
C1    C22   1.449685 S    
C19   H3    1.085349 S    
C2    C21   1.451777 S    
O4    Cu1   1.964693 S    
N3    O10   1.301108 A    
C21   C28   1.410195 A    
N2    C33   1.359845 A    
C31   C33   1.401443 A    
C4    C7    1.454223 S    
C32   C34   1.401470 A    
C13   C14   1.412808 A    
N6    H13   1.043150 S    
N11   O14   1.300376 A    
C11   C17   1.428004 A    
C12   C18   1.428085 A    
Cu1   Cu2   2.691761 S    
C27   C29   1.406670 A    
C22   C27   1.403548 A    
O2    C2    1.293724 A    
C28   C30   1.400899 A    
C35   C37   1.422285 A    
C6    C16   1.384267 A    
N2    C35   1.380077 A    
C36   C38   1.422233 A    
C20   H4    1.085363 S    
N5    H11   1.044218 S    
N8    H17   1.045446 S    
O4    C2    1.294987 A    
N9    H20   1.045621 S    
Cu2   N2    2.022345 S    
N5    H12   1.043169 S    
N4    O12   1.301403 A    
C10   N4    1.433359 S    
C29   C30   1.419170 A    
O6    C4    1.294963 A    
C26   N9    1.434231 S    
C33   H8    1.081573 S    
O7    C3    1.296627 A    
O3    Cu2   1.964694 S    
O8    C4    1.295773 A    
N1    C36   1.380095 A    
C10   C12   1.423327 A    
N10   H22   1.045609 S    
C11   C13   1.431697 A    
C12   C14   1.431467 A    
O1    Cu1   1.968278 S    
C23   H5    1.083290 S    
Cu1   N1    2.022347 S    
C15   C20   1.391697 A    
C5    C7    1.387588 A    
C28   N7    1.439198 S    
O6    Cu2   1.970387 S    
C22   C25   1.403980 A    
C18   N6    1.432079 S    
C25   N10   1.434025 S    
C14   C16   1.407997 A    
O3    C1    1.292912 A    
O8    Cu1   1.960235 S    
C36   N11   1.430155 S    
C5    H1    1.086091 S    
N1    C34   1.359861 A    
C6    H2    1.086066 S    
C31   C38   1.410840 A    
C32   C37   1.410862 A    
C31   H9    1.082004 S    
C32   H10   1.081982 S    
N4    O11   1.301122 A    
C23   C30   1.402474 A    
C18   C20   1.388287 A    
C21   C26   1.405392 A    
C24   C29   1.402739 A    
C23   C25   1.389263 A    
C27   N8    1.438176 S    
C24   C26   1.390248 A    
C9    N3    1.433149 S    
C7    C9    1.409060 A    
C35   N12   1.430192 S    
C8    C10   1.409999 A    
C13   C15   1.408166 A    
N3    O9    1.301203 A    
O2    Cu2   1.968280 S    
C24   H6    1.081876 S    
C17   N5    1.431920 S    
C34   H7    1.081564 S    
N9    H19   1.045711 S    
O5    Cu1   1.970384 S    
N12   O15   1.300901 A    
C16   C19   1.391871 A    
C6    C8    1.388084 A    
N10   H21   1.045703 S    
N6    H14   1.044340 S    
