data_mof_unit_49577.cif
_audit_creation_date              2012-12-10T17:17:27-0500
_audit_creation_method            fapswitch 2.2
_symmetry_space_group_name_H-M    P1
_symmetry_Int_Tables_number       1
_space_group_crystal_system       triclinic
_cell_length_a                    10.247208
_cell_length_b                    10.418167
_cell_length_c                    12.337765
_cell_angle_alpha                 91.060145
_cell_angle_beta                  109.501242
_cell_angle_gamma                 94.935611
_cell_volume                      1235.41676582

loop_
_atom_site_label
_atom_site_type_symbol
_atom_type_description
_atom_site_fract_x
_atom_site_fract_y
_atom_site_fract_z
_atom_type_partial_charge
C1    C     C_R   0.048516 0.735470 0.489997 0.828189
C2    C     C_R   0.456974 0.548578 0.961775 0.025631
C3    C     C_R   0.345788 0.478650 0.875970 -0.073252
C4    C     C_R   0.582905 0.491339 0.005557 -0.017344
C5    C     C_R   0.609891 0.383884 0.945831 0.028105
C6    C     C_R   0.500932 0.322998 0.851723 0.500998
C7    C     C_R   0.368180 0.363798 0.825155 -0.253111
C8    C     C_R   0.672457 0.526488 0.116470 -0.237862
C9    C     C_R   0.832922 0.378573 0.097539 -0.309826
C10   C     C_R   0.215479 0.528671 0.837131 -0.261947
C11   C     C_2   0.059598 0.874546 0.468550 0.253002
C12   C     C_R   0.134260 0.509043 0.714423 0.895891
C13   C     C_2   0.939072 0.922214 0.407261 0.492507
C14   C     C_2   0.918195 0.124658 0.501085 0.359322
C15   C     C_2   0.931741 0.062164 0.409734 -0.273005
C16   C     C_2   0.432107 0.507645 0.516963 0.137012
C17   C     C_2   0.567764 0.483639 0.497096 -0.033420
C18   C     C_R   0.949522 0.264946 0.507282 0.773769
C19   C     C_R   0.866053 0.487316 0.286158 0.902363
C20   C     C_R   0.741576 0.335009 0.988590 0.137549
C21   C     C_R   0.792938 0.467399 0.163688 -0.073846
C22   C     C_R   0.188795 0.629232 0.902067 0.495675
C23   C     C_R   0.301351 0.707122 0.977963 0.057939
C24   C     C_R   0.437201 0.673340 0.999853 -0.014308
H1    H     H_    0.929495 0.334986 0.133752 0.156536
H2    H     H_    0.567326 0.397653 0.445946 0.080541
H3    H     H_    0.315463 0.385167 0.389027 0.129812
H4    H     H_    0.642865 0.591864 0.171239 0.176339
H5    H     H_    0.282557 0.305710 0.762302 0.173993
H6    H     H_    0.951279 0.114605 0.340380 0.104939
N1    N     N_2   0.313640 0.446500 0.454900 -0.202825
N2    N     N_2   0.686360 0.553430 0.545150 0.087494
O1    O     O_R   0.936910 0.692950 0.509080 -0.558730
O2    O     O_R   0.138320 0.658600 0.480130 -0.608577
O3    O     O_R   0.002900 0.525670 0.675280 -0.592872
O4    O     O_R   0.204310 0.491320 0.646330 -0.583096
O5    O     O_R   0.861680 0.341400 0.519870 -0.633040
O6    O     O_R   0.063090 0.307050 0.490920 -0.598375
O7    O     O_R   0.795690 0.508680 0.353670 -0.594439
O8    O     O_R   0.997100 0.474330 0.324720 -0.616748
Zn1   Zn    Zn3+2 0.865520 0.522940 0.519330 0.979196
Zn2   Zn    Zn3+2 0.134480 0.477060 0.480670 0.936355
O9    O     O_3   0.825944 0.839457 0.339134 -0.654744
C25   C     C_3   0.703648 0.865952 0.360536 -0.226119
H7    H     H_    0.662151 0.953200 0.316243 0.142331
H8    H     H_    0.720087 0.876260 0.454151 0.237511
H9    H     H_    0.623935 0.782869 0.326397 0.171931
O10   O     O_3   0.887487 0.053961 0.586344 -0.627945
C26   C     C_3   0.912309 0.128265 0.689241 -0.291911
H10   H     H_    0.833941 0.198772 0.677732 0.173919
H11   H     H_    0.020048 0.177174 0.721643 0.147355
H12   H     H_    0.901081 0.062682 0.756074 0.196060
O11   O     O_3   0.174855 0.961746 0.526488 -0.627662
C27   C     C_3   0.297247 0.901284 0.575166 -0.282787
H13   H     H_    0.325343 0.851288 0.506896 0.165896
H14   H     H_    0.288013 0.835326 0.642678 0.170396
H15   H     H_    0.383360 0.976426 0.618008 0.210309
N3    N     N_3   0.433773 0.589952 0.611834 -0.360487
H16   H     H_    0.455148 0.685683 0.595292 0.210022
H17   H     H_    0.510386 0.564872 0.686375 0.173453
O12   O     O_3   0.675249 0.674049 0.579743 -0.591781
C28   C     C_3   0.776260 0.700603 0.688836 -0.069814
H18   H     H_    0.878214 0.733814 0.681375 0.234731
H19   H     H_    0.784171 0.616127 0.743820 0.142621
H20   H     H_    0.744939 0.780443 0.732537 0.126734
O13   O     O_3   0.517641 0.211788 0.796947 -0.588667
C29   C     C_3   0.524857 0.242872 0.688260 -0.302854
H21   H     H_    0.604508 0.325307 0.695004 0.144479
H22   H     H_    0.421252 0.263392 0.628820 0.186739
H23   H     H_    0.557040 0.158790 0.650584 0.185649
N4    N     N_3   0.780652 0.237137 0.925538 -0.409670
H24   H     H_    0.872826 0.272136 0.912703 0.151286
H25   H     H_    0.801084 0.156845 0.975991 0.196080
O14   O     O_3   0.056090 0.665343 0.878049 -0.615246
C30   C     C_3   0.001190 0.609897 0.959128 -0.323832
H26   H     H_    0.067788 0.639062 0.049320 0.178759
H27   H     H_    0.986363 0.502937 0.946679 0.160681
H28   H     H_    0.897970 0.644470 0.946388 0.180963
N5    N     N_3   0.549835 0.773697 0.042559 -0.459031
H29   H     H_    0.572693 0.788619 0.130860 0.196121
H30   H     H_    0.638422 0.750859 0.025213 0.209403
N6    N     N_3   0.276711 0.825540 0.025482 -0.420778
H31   H     H_    0.320346 0.825475 0.115132 0.168422
H32   H     H_    0.327581 0.902181 0.997055 0.214938

loop_
_geom_bond_atom_site_label_1
_geom_bond_atom_site_label_2
_ccdc_geom_bond_type
C7    H5    S    
C23   N6    S    
C14   C18   S    
O4    Zn2   S    
O2    Zn2   S    
C4    C8    A    
C1    O1    A    
O7    Zn1   S    
C5    C20   A    
O11   C27   S    
C10   C22   A    
C16   N1    D    
C17   H2    S    
C19   O7    A    
N1    Zn2   S    
C18   O5    A    
N2    O12   S    
O6    Zn2   S    
C3    C7    A    
C5    C6    A    
N3    H17   S    
C28   H19   S    
C9    C20   A    
C16   C17   S    
C26   H11   S    
C1    C11   S    
N2    Zn1   S    
C20   N4    S    
C12   O4    A    
C11   O11   S    
C25   H9    S    
O8    Zn2   S    
O13   C29   S    
C25   H8    S    
C1    O2    A    
C27   H14   S    
O14   C30   S    
C9    H1    S    
C29   H21   S    
N5    H30   S    
C14   O10   S    
N3    H16   S    
H3    N1    S    
C29   H22   S    
C2    C4    A    
C30   H26   S    
C28   H18   S    
C24   N5    S    
C23   C24   A    
C26   H12   S    
C8    C21   A    
C16   N3    S    
C12   O3    A    
C30   H27   S    
C10   C12   S    
O10   C26   S    
C26   H10   S    
N6    H32   S    
C13   C15   S    
O9    C25   S    
C2    C24   A    
C8    H4    S    
C22   O14   S    
C13   O9    S    
C25   H7    S    
C15   H6    S    
N4    H25   S    
C27   H13   S    
C28   H20   S    
C19   C21   S    
C14   C15   D    
C4    C5    A    
C6    C7    A    
C29   H23   S    
O1    Zn1   S    
C2    C3    A    
C18   O6    A    
N4    H24   S    
C3    C10   A    
C11   C13   D    
C9    C21   A    
O5    Zn1   S    
O12   C28   S    
O3    Zn1   S    
C30   H28   S    
C19   O8    A    
N5    H29   S    
C6    O13   S    
N6    H31   S    
C17   N2    D    
C22   C23   A    
C27   H15   S    
