data_mof_unit_52831.cif
_audit_creation_date              2012-12-11T14:08:18-0500
_audit_creation_method            fapswitch 2.2
_symmetry_space_group_name_H-M    P1
_symmetry_Int_Tables_number       1
_space_group_crystal_system       triclinic
_cell_length_a                    10.945686
_cell_length_b                    10.975042
_cell_length_c                    18.688575
_cell_angle_alpha                 90.271519
_cell_angle_beta                  89.489073
_cell_angle_gamma                 60.173405
_cell_volume                      1947.46945313

loop_
_atom_site_label
_atom_site_type_symbol
_atom_type_description
_atom_site_fract_x
_atom_site_fract_y
_atom_site_fract_z
_atom_type_partial_charge
C1    C     C_R   0.240066 0.644006 0.609838 0.532561
C2    C     C_3   0.676123 0.549822 0.800441 -0.253962
C3    C     C_3   0.701433 0.674691 0.812079 0.102142
C4    C     C_3   0.670907 0.649484 0.675866 0.016459
C5    C     C_3   0.808147 0.656731 0.687035 0.044998
C6    C     C_3   0.671735 0.527465 0.719846 -0.225586
C7    C     C_2   0.674643 0.157044 0.670726 -0.124599
C8    C     C_2   0.689361 0.167101 0.827979 -0.127689
C9    C     C_2   0.800750 0.122319 0.783344 -0.172051
C10   C     C_2   0.781438 0.155292 0.706574 -0.176069
C11   C     C_2   0.194853 0.656392 0.684416 -0.113012
C12   C     C_R   0.653638 0.622648 0.601060 0.571773
C13   C     C_2   0.201172 0.664882 0.841172 -0.087830
C14   C     C_2   0.226798 0.550267 0.804117 -0.128747
C15   C     C_2   0.252546 0.541666 0.726416 -0.150999
C16   C     C_2   0.648837 0.640760 0.315733 -0.026393
C17   C     C_2   0.632866 0.664717 0.159019 -0.141492
C18   C     C_2   0.709032 0.544709 0.193676 -0.160529
C19   C     C_2   0.691800 0.530053 0.270185 0.212175
C20   C     C_2   0.677161 0.134308 0.334058 -0.025826
C21   C     C_2   0.652445 0.141185 0.179998 -0.121325
C22   C     C_2   0.627781 0.057297 0.222855 -0.157125
C23   C     C_R   0.627840 0.228061 0.602024 0.537835
C24   C     C_2   0.604195 0.084295 0.299798 0.203799
C25   C     C_2   0.122761 0.680858 0.345178 -0.102537
C26   C     C_2   0.112663 0.691466 0.190771 -0.088262
C27   C     C_2   0.043048 0.804371 0.234464 -0.150751
C28   C     C_2   0.075824 0.799772 0.309583 -0.168117
C29   C     C_R   0.703559 0.101972 0.897573 0.550144
C30   C     C_R   0.724210 0.688280 0.888317 0.599730
C31   C     C_R   0.121500 0.705600 0.908334 0.581636
C32   C     C_R   0.675431 0.104872 0.105279 0.544885
C33   C     C_R   0.691957 0.688826 0.094566 0.549415
C34   C     C_R   0.215863 0.651244 0.404606 0.562218
C35   C     C_R   0.085765 0.713745 0.115393 0.548605
C36   C     C_R   0.640505 0.618993 0.391803 0.596086
C37   C     C_R   0.621778 0.221962 0.397572 0.602263
C38   C     C_3   0.570182 0.812210 0.782628 -0.067315
C39   C     C_3   0.545411 0.789829 0.703787 -0.280762
C40   C     C_3   0.840064 0.643607 0.768512 0.436381
Cr1   Cr    Cr6+3 0.393010 0.398050 0.501480 1.057370
Cr2   Cr    Cr6+3 0.398820 0.707980 0.501630 1.035954
Cr3   Cr    Cr6+3 0.708140 0.393940 0.496850 1.053607
Cr4   Cr    Cr6+3 0.937950 0.938450 0.008940 1.029756
Cr5   Cr    Cr6+3 0.626180 0.937030 0.994750 1.044533
Cr6   Cr    Cr6+3 0.937790 0.625760 0.001410 1.031313
H1    H     H_    0.593563 0.899802 0.784751 0.142495
H2    H     H_    0.765128 0.425470 0.704658 0.161859
H3    H     H_    0.907240 0.056652 0.802488 0.162568
H4    H     H_    0.853847 0.181604 0.680107 0.151070
H5    H     H_    0.583385 0.233672 0.808285 0.103902
H6    H     H_    0.608140 0.122356 0.696747 0.098676
H7    H     H_    0.223645 0.463839 0.830221 0.133595
H8    H     H_    0.318608 0.437702 0.703307 0.149935
H9    H     H_    0.218297 0.744156 0.816069 0.089475
H10   H     H_    0.127258 0.760816 0.706558 0.123812
H11   H     H_    0.797075 0.455623 0.167024 0.147629
H12   H     H_    0.539618 0.752040 0.183276 0.096695
H13   H     H_    0.614477 0.746355 0.297117 0.043514
H14   H     H_    0.616235 0.971894 0.200502 0.135458
H15   H     H_    0.662960 0.228173 0.200016 0.082807
H16   H     H_    0.769266 0.129362 0.308658 0.059491
H17   H     H_    0.971529 0.907600 0.213137 0.155781
H18   H     H_    0.445391 0.787385 0.698312 0.162936
H19   H     H_    0.079316 0.889375 0.332211 0.158553
H20   H     H_    0.185545 0.586939 0.209832 0.099410
H21   H     H_    0.110473 0.595177 0.323947 0.119927
H22   H     H_    0.534496 0.879455 0.671307 0.109055
H23   H     H_    0.786985 0.761649 0.668281 0.107727
H24   H     H_    0.761159 0.452072 0.824569 0.168239
H25   H     H_    0.576766 0.568582 0.826690 0.109571
H26   H     H_    0.576620 0.519043 0.707868 0.116835
O1    O     O_R   0.507110 0.256280 0.580300 -0.522474
O2    O     O_R   0.524640 0.695370 0.425100 -0.498138
O3    O     O_R   0.735890 0.504390 0.415980 -0.449747
O4    O     O_R   0.690560 0.277820 0.422350 -0.478999
O5    O     O_3   0.499990 0.499990 0.499980 -0.268663
O6    O     O_R   0.089190 0.825870 0.932320 -0.514876
O7    O     O_R   0.819070 0.053960 0.931440 -0.489443
O8    O     O_R   0.607070 0.076440 0.916460 -0.513877
O9    O     O_R   0.647110 0.806550 0.917690 -0.469106
O10   O     O_R   0.837080 0.593860 0.915300 -0.521200
O11   O     O_R   0.064770 0.636080 0.932550 -0.487999
O12   O     O_R   0.280830 0.527190 0.577940 -0.500958
O13   O     O_R   0.068250 0.829200 0.092940 -0.515618
O14   O     O_R   0.799650 0.057040 0.080330 -0.506518
O15   O     O_R   0.586130 0.079760 0.077080 -0.507093
O16   O     O_R   0.627700 0.809630 0.066580 -0.502008
O17   O     O_R   0.816140 0.597180 0.075920 -0.515007
O18   O     O_R   0.045360 0.639170 0.081440 -0.498515
O19   O     O_3   0.833980 0.833750 0.001700 -0.256152
O20   O     O_R   0.261360 0.738990 0.584270 -0.520182
O21   O     O_R   0.532590 0.694780 0.574370 -0.515891
O22   O     O_R   0.744470 0.503750 0.577000 -0.507198
O23   O     O_R   0.698520 0.277230 0.571620 -0.510719
O24   O     O_R   0.498530 0.256920 0.419280 -0.443956
O25   O     O_R   0.272880 0.527780 0.428680 -0.492217
O26   O     O_R   0.252780 0.739630 0.423250 -0.509197
O27   O     O_3   0.947295 0.504150 0.781460 -0.707654
H27   H     H_    0.004546 0.503896 0.822025 0.376534
N1    N     N_3   0.928155 0.552591 0.643672 -0.589957
H28   H     H_    0.015751 0.563463 0.653820 0.264642
H29   H     H_    0.953759 0.450320 0.657142 0.279137
N2    N     N_3   0.441916 0.856431 0.826022 -0.607570
H30   H     H_    0.364406 0.955287 0.808673 0.231854
H31   H     H_    0.403017 0.787955 0.818015 0.221520
O28   O     O_3   0.733220 0.397642 0.296481 -0.672268
H32   H     H_    0.776434 0.327930 0.257049 0.300667
O29   O     O_3   0.502133 0.067394 0.335191 -0.666878
H33   H     H_    0.458030 0.033355 0.300166 0.318843
O30   O     O_3   0.888856 0.736448 0.788554 -0.705497
H34   H     H_    0.816820 0.833665 0.776489 0.286703

loop_
_geom_bond_atom_site_label_1
_geom_bond_atom_site_label_2
_ccdc_geom_bond_type
C7    C10   D    
N1    H28   S    
Cr2   O21   S    
C35   O13   A    
C39   H22   S    
O30   H34   S    
C1    C11   S    
Cr3   O22   S    
C40   O27   S    
N2    H31   S    
Cr6   O17   S    
C25   C28   D    
C6    H26   S    
C39   H18   S    
C26   C27   D    
C6    H2    S    
C8    C29   S    
Cr5   O15   S    
C33   O16   A    
C7    H6    S    
Cr2   O26   S    
Cr1   O5    S    
C38   C39   S    
Cr1   O24   S    
C34   O25   A    
C31   O11   A    
C18   C19   S    
C5    H23   S    
Cr6   O10   S    
C11   C15   D    
C20   C24   D    
C3    C38   S    
C8    C9    D    
C25   H21   S    
Cr3   O23   S    
O28   H32   S    
C4    C12   S    
C9    C10   S    
C21   H15   S    
C25   C34   S    
N1    H29   S    
C13   C14   D    
C12   O22   A    
C2    C6    S    
C17   C33   S    
C23   O1    A    
Cr4   O14   S    
N2    H30   S    
C40   O30   S    
Cr3   O3    S    
C21   C32   S    
C5    N1    S    
Cr2   O2    S    
C26   H20   S    
C15   H8    S    
Cr5   O16   S    
C9    H3    S    
C4    C6    S    
Cr6   O19   S    
C32   O15   A    
C37   O24   A    
C1    O12   A    
C16   H13   S    
C30   O10   A    
C3    C30   S    
C36   O3    A    
C33   O17   A    
C18   H11   S    
O27   H27   S    
C29   O7    A    
C4    C39   S    
C32   O14   A    
C17   C18   D    
C8    H5    S    
C38   H1    S    
Cr4   O19   S    
C27   H17   S    
C37   O4    A    
C3    C40   S    
C1    O20   A    
Cr1   O25   S    
C12   O21   A    
C2    H25   S    
C10   H4    S    
C31   O6    A    
Cr3   O4    S    
C36   O2    A    
Cr2   O20   S    
C13   C31   S    
Cr4   O7    S    
Cr5   O9    S    
C24   O29   S    
C4    C5    S    
C38   N2    S    
Cr6   O18   S    
Cr3   O5    S    
C17   H12   S    
C30   O9    A    
Cr4   O6    S    
C2    C3    S    
C2    H24   S    
O29   H33   S    
C16   C36   S    
C22   H14   S    
C20   C37   S    
Cr1   O12   S    
C29   O8    A    
C16   C19   D    
C7    C23   S    
C34   O26   A    
C23   O23   A    
C28   H19   S    
Cr5   O8    S    
C22   C24   S    
C20   H16   S    
Cr5   O19   S    
Cr1   O1    S    
Cr6   O11   S    
C35   O18   A    
C26   C35   S    
C14   H7    S    
Cr2   O5    S    
C5    C40   S    
C27   C28   S    
C14   C15   S    
C21   C22   D    
C11   H10   S    
Cr4   O13   S    
C13   H9    S    
C19   O28   S    
