data_mof_unit_27074.cif
_audit_creation_date              2012-12-10T19:43:09-0500
_audit_creation_method            fapswitch 2.2
_symmetry_space_group_name_H-M    P1
_symmetry_Int_Tables_number       1
_space_group_crystal_system       triclinic
_cell_length_a                    18.342547
_cell_length_b                    18.358892
_cell_length_c                    18.297841
_cell_angle_alpha                 119.792461
_cell_angle_beta                  90.307449
_cell_angle_gamma                 59.740173
_cell_volume                      4365.09198634

loop_
_atom_site_label
_atom_site_type_symbol
_atom_type_description
_atom_site_fract_x
_atom_site_fract_y
_atom_site_fract_z
_atom_type_partial_charge
C1    C     C_R   0.859824 0.780146 0.640557 0.800248
C2    C     C_R   0.093797 0.605999 0.958623 0.236849
C3    C     C_R   0.040997 0.604737 0.903554 -0.174952
C4    C     C_R   0.138931 0.220316 0.360480 0.812812
C5    C     C_R   0.075313 0.568848 0.816023 -0.204167
C6    C     C_R   0.211926 0.049871 0.336878 0.121896
C7    C     C_R   0.195386 0.109448 0.304771 -0.143226
C8    C     C_R   0.237920 0.057880 0.213782 -0.260261
C9    C     C_R   0.294596 0.949805 0.156611 0.139303
C10   C     C_R   0.309749 0.891415 0.192511 -0.109845
C11   C     C_R   0.269333 0.946191 0.283288 0.014952
C12   C     C_R   0.427560 0.437824 0.683203 -0.171227
C13   C     C_3   0.257332 0.930368 0.353103 -0.532016
C14   C     C_3   0.190625 0.049201 0.416196 0.324343
C15   C     C_R   0.230837 0.558926 0.341683 -0.098461
C16   C     C_R   0.860065 0.499319 0.639527 0.794452
C17   C     C_R   0.195651 0.501125 0.305710 -0.061211
C18   C     C_R   0.216616 0.441596 0.212301 -0.207792
C19   C     C_R   0.271205 0.440430 0.157989 -0.216735
C20   C     C_R   0.306539 0.498176 0.195872 -0.053347
C21   C     C_R   0.285920 0.554626 0.288324 0.006132
C22   C     C_3   0.297715 0.629703 0.363739 0.272879
C23   C     C_R   0.341428 0.464426 0.713501 0.045701
C24   C     C_3   0.237489 0.630426 0.427573 0.268666
C25   C     C_R   0.841046 0.946569 0.737040 0.138044
C26   C     C_R   0.803478 0.891706 0.702687 -0.076985
C27   C     C_R   0.709920 0.946365 0.732911 -0.231193
C28   C     C_R   0.140015 0.500236 0.360488 0.790033
C29   C     C_R   0.656235 0.053894 0.786575 -0.225962
C30   C     C_R   0.695445 0.108089 0.810618 -0.077831
C31   C     C_R   0.788135 0.052648 0.789849 0.129805
C32   C     C_3   0.854071 0.057750 0.748793 -0.478897
C33   C     C_3   0.912460 0.940886 0.690962 -0.493215
C34   C     C_R   0.291641 0.453303 0.653828 0.032310
C35   C     C_R   0.712937 0.571579 0.339442 0.083730
C36   C     C_R   0.803417 0.492803 0.305544 -0.090835
C37   C     C_R   0.837145 0.402918 0.219995 -0.256631
C38   C     C_R   0.783639 0.398010 0.164806 0.132695
C39   C     C_R   0.696092 0.487965 0.195576 -0.123962
C40   C     C_R   0.859868 0.499685 0.360248 0.806878
C41   C     C_R   0.661775 0.570626 0.284685 0.086839
C42   C     C_3   0.607112 0.685334 0.332477 -0.033214
C43   C     C_3   0.663725 0.685908 0.394246 -0.474083
C44   C     C_R   0.711731 0.562317 0.720659 0.024045
C45   C     C_R   0.305761 0.499434 0.801873 -0.135442
C46   C     C_R   0.804508 0.502472 0.698706 -0.074607
C47   C     C_R   0.842264 0.451260 0.739996 -0.226937
C48   C     C_R   0.788211 0.452200 0.794514 -0.219331
C49   C     C_R   0.695609 0.505443 0.809272 -0.102827
C50   C     C_R   0.657977 0.566471 0.777075 0.101598
C51   C     C_3   0.591191 0.577199 0.728395 -0.063938
C52   C     C_R   0.141980 0.497451 0.637644 0.823207
C53   C     C_3   0.651822 0.570784 0.664575 -0.048771
C54   C     C_R   0.360841 0.499361 0.139987 0.789881
C55   C     C_R   0.640015 0.500243 0.860058 0.797067
C56   C     C_R   0.218104 0.532675 0.835433 0.039767
C57   C     C_R   0.361945 0.779865 0.139191 0.809953
C58   C     C_R   0.640106 0.219756 0.860255 0.794414
C59   C     C_R   0.640285 0.496992 0.139658 0.800269
C60   C     C_R   0.361079 0.499381 0.859172 0.791685
C61   C     C_R   0.336184 0.402587 0.560823 0.195304
C62   C     C_R   0.420243 0.382019 0.535879 -0.164928
C63   C     C_R   0.464502 0.400928 0.596627 -0.208878
C64   C     C_3   0.335080 0.903516 0.059648 -0.372582
C65   C     C_3   0.275358 0.883276 0.005983 -0.800908
C66   C     C_3   0.094885 0.078876 0.445214 -0.470352
C67   C     C_R   0.164863 0.530790 0.779888 0.067669
C68   C     C_3   0.019663 0.192586 0.491759 -0.816789
C69   C     C_3   0.219843 0.101431 0.495079 -0.330887
C70   C     C_3   0.315605 0.070059 0.469664 -0.914961
C71   C     C_3   0.398332 0.577671 0.356522 -0.385055
C72   C     C_3   0.418479 0.651961 0.424013 -0.908689
C73   C     C_3   0.256361 0.730823 0.367340 -0.313130
C74   C     C_3   0.184008 0.755858 0.322565 -0.928173
C75   C     C_3   0.282702 0.569753 0.470553 -0.333062
C76   C     C_3   0.327545 0.605797 0.537926 -0.864336
C77   C     C_3   0.306283 0.355512 0.482880 -0.445361
C78   C     C_R   0.201251 0.492241 0.690229 -0.152049
C79   C     C_3   0.314506 0.262299 0.469176 -0.834569
C80   C     C_3   0.143289 0.733444 0.491048 -0.350638
C81   C     C_3   0.143065 0.815211 0.575909 -0.913146
C82   C     C_3   0.822893 0.296271 0.075785 -0.377577
C83   C     C_3   0.884002 0.282018 0.006256 -0.805870
C84   C     C_3   0.612782 0.726642 0.278214 -0.353120
C85   C     C_3   0.706720 0.675775 0.221286 -0.841849
C86   C     C_3   0.497914 0.680624 0.783186 -0.366539
C87   C     C_3   0.498083 0.775110 0.846062 -0.872466
C88   C     C_3   0.693648 0.473714 0.568641 -0.394999
C89   C     C_R   0.181322 0.571424 0.924975 -0.199746
C90   C     C_3   0.625439 0.483694 0.519380 -0.904252
C91   C     C_3   0.056291 0.645815 0.053685 -0.441993
C92   C     C_3   0.048752 0.568743 0.057749 -0.847500
H1    H     H_    0.972600 0.632540 0.928707 0.138963
H2    H     H_    0.623285 0.642107 0.667322 0.179451
H3    H     H_    0.529991 0.382468 0.575384 0.142385
H4    H     H_    0.030211 0.571803 0.777600 0.147021
H5    H     H_    0.226861 0.101766 0.186443 0.179439
H6    H     H_    0.307369 0.846124 0.934761 0.236574
H7    H     H_    0.263250 0.832301 0.011092 0.274746
H8    H     H_    0.209990 0.957022 0.031010 0.239824
H9    H     H_    0.342180 0.957543 0.054300 0.180249
H10   H     H_    0.404257 0.833442 0.029732 0.225553
H11   H     H_    0.226846 0.887540 0.335872 0.194408
H12   H     H_    0.677998 0.906605 0.711939 0.174508
H13   H     H_    0.319939 0.894958 0.367617 0.204666
H14   H     H_    0.029918 0.241473 0.551393 0.271649
H15   H     H_    0.013663 0.215217 0.444896 0.254480
H16   H     H_    0.955399 0.205939 0.514311 0.231616
H17   H     H_    0.080435 0.034616 0.386186 0.205026
H18   H     H_    0.092183 0.056366 0.490899 0.205831
H19   H     H_    0.365346 0.990879 0.450484 0.247802
H20   H     H_    0.329358 0.075691 0.414411 0.267668
H21   H     H_    0.324620 0.122333 0.528232 0.254065
H22   H     H_    0.174606 0.185989 0.530139 0.236011
H23   H     H_    0.584367 0.094076 0.805565 0.177313
H24   H     H_    0.212523 0.084180 0.543728 0.188339
H25   H     H_    0.190708 0.396131 0.180882 0.170237
H26   H     H_    0.284912 0.394991 0.086651 0.171224
H27   H     H_    0.422033 0.696035 0.400898 0.244131
H28   H     H_    0.366521 0.707561 0.490287 0.264790
H29   H     H_    0.484185 0.607864 0.430527 0.252476
H30   H     H_    0.424305 0.511645 0.361214 0.192237
H31   H     H_    0.439511 0.542989 0.289630 0.226330
H32   H     H_    0.145052 0.725101 0.321430 0.256497
H33   H     H_    0.136153 0.840441 0.358468 0.234857
H34   H     H_    0.921234 0.906695 0.618884 0.204193
H35   H     H_    0.215139 0.723679 0.252555 0.262534
H36   H     H_    0.229719 0.797766 0.437014 0.196234
H37   H     H_    0.310386 0.726702 0.334583 0.234152
H38   H     H_    0.399879 0.562771 0.504913 0.256956
H39   H     H_    0.297244 0.688621 0.575177 0.266612
H40   H     H_    0.321963 0.589581 0.587769 0.251818
H41   H     H_    0.230842 0.573449 0.506065 0.235850
H42   H     H_    0.332841 0.486487 0.418055 0.160442
H43   H     H_    0.385704 0.200747 0.450637 0.250069
H44   H     H_    0.276199 0.282152 0.530415 0.277225
H45   H     H_    0.905381 0.336812 0.195610 0.172667
H46   H     H_    0.289089 0.232182 0.414398 0.241386
H47   H     H_    0.239477 0.411019 0.487140 0.209104
H48   H     H_    0.349337 0.327440 0.419577 0.185240
H49   H     H_    0.145046 0.799715 0.627584 0.264730
H50   H     H_    0.199729 0.818987 0.563969 0.251574
H51   H     H_    0.080440 0.891936 0.602790 0.250993
H52   H     H_    0.108398 0.768328 0.456177 0.200399
H53   H     H_    0.099344 0.718521 0.512994 0.236358
H54   H     H_    0.828437 0.091616 0.710403 0.203976
H55   H     H_    0.883309 0.091203 0.797191 0.204145
H56   H     H_    0.536792 0.721903 0.367756 0.128474
H57   H     H_    0.974777 0.907199 0.706751 0.214160
H58   H     H_    0.909806 0.208144 0.941335 0.231162
H59   H     H_    0.847287 0.345508 0.997473 0.274903
H60   H     H_    0.941628 0.280182 0.026922 0.242144
H61   H     H_    0.862544 0.232391 0.083830 0.184114
H62   H     H_    0.770301 0.287901 0.051432 0.213062
H63   H     H_    0.749616 0.685844 0.262634 0.250284
H64   H     H_    0.739653 0.592791 0.169767 0.260252
H65   H     H_    0.701190 0.712550 0.186384 0.233180
H66   H     H_    0.571844 0.718311 0.233790 0.204927
H67   H     H_    0.913591 0.407736 0.727935 0.168914
H68   H     H_    0.581432 0.810350 0.325573 0.199598
H69   H     H_    0.454189 0.346934 0.467423 0.131280
H70   H     H_    0.706774 0.711068 0.391498 0.199908
H71   H     H_    0.625094 0.721933 0.463094 0.179084
H72   H     H_    0.525291 0.769639 0.898844 0.258435
H73   H     H_    0.537856 0.783592 0.809456 0.250472
H74   H     H_    0.428668 0.845468 0.878581 0.243580
H75   H     H_    0.462951 0.692468 0.736258 0.202920
H76   H     H_    0.458505 0.675074 0.823572 0.235850
H77   H     H_    0.568209 0.493245 0.553395 0.257162
H78   H     H_    0.819348 0.408591 0.822507 0.172451
H79   H     H_    0.600346 0.550931 0.516328 0.261151
H80   H     H_    0.657412 0.413310 0.450292 0.250090
H81   H     H_    0.750054 0.462876 0.531746 0.222378
H82   H     H_    0.720351 0.404204 0.568617 0.203161
H83   H     H_    0.468056 0.445113 0.725760 0.143480
H84   H     H_    0.219817 0.575919 0.970018 0.130156
H85   H     H_    0.002620 0.555391 0.022731 0.254195
H86   H     H_    0.115528 0.494543 0.026522 0.262647
H87   H     H_    0.022274 0.599249 0.128381 0.248038
H88   H     H_    0.099606 0.660724 0.092805 0.200451
H89   H     H_    0.587071 0.510185 0.697094 0.130607
H90   H     H_    0.989380 0.720091 0.085914 0.201228
O1    O     O_3   0.000000 0.500000 0.500000 -0.467958
O2    O     O_R   0.676550 0.268320 0.884150 -0.644063
O3    O     O_R   0.555150 0.560600 0.176460 -0.656852
O4    O     O_R   0.944950 0.731580 0.615800 -0.644660
O5    O     O_R   0.384220 0.439220 0.884170 -0.634427
O6    O     O_R   0.676580 0.439170 0.055020 -0.641706
O7    O     O_R   0.384230 0.560650 0.884170 -0.655413
O8    O     O_R   0.384260 0.731500 0.055040 -0.647988
O9    O     O_R   0.555100 0.268330 0.884160 -0.645287
O10   O     O_R   0.384250 0.560620 0.176470 -0.662484
O11   O     O_R   0.676570 0.439190 0.884150 -0.644729
O12   O     O_R   0.944910 0.439280 0.615800 -0.659774
O13   O     O_R   0.115780 0.268410 0.444920 -0.650840
O14   O     O_R   0.823470 0.560720 0.615800 -0.647883
O15   O     O_R   0.115800 0.439290 0.323490 -0.641517
O16   O     O_R   0.823460 0.560740 0.444930 -0.642895
O17   O     O_R   0.115830 0.560690 0.615790 -0.655204
O18   O     O_R   0.944900 0.439310 0.323490 -0.647015
O19   O     O_R   0.115810 0.439260 0.615790 -0.646065
O20   O     O_R   0.115820 0.560710 0.444920 -0.688368
O21   O     O_R   0.823500 0.731590 0.615800 -0.647812
O22   O     O_R   0.115770 0.268420 0.323490 -0.647042
O23   O     O_3   0.500040 0.499910 0.999960 -0.469501
O24   O     O_R   0.384230 0.439200 0.055040 -0.646727
O25   O     O_R   0.555130 0.560630 0.884160 -0.654183
O26   O     O_R   0.384270 0.731490 0.176470 -0.647413
Zn1   Zn    Zn3+2 0.043370 0.413240 0.543370 0.928600
Zn2   Zn    Zn3+2 0.869870 0.586760 0.543380 0.950902
Zn3   Zn    Zn3+2 0.043360 0.413260 0.369880 0.950494
Zn4   Zn    Zn3+2 0.043390 0.586740 0.543370 0.928898
Zn5   Zn    Zn3+2 0.456670 0.586670 0.956580 0.933916
Zn6   Zn    Zn3+2 0.456680 0.586650 0.130080 0.921385
Zn7   Zn    Zn3+2 0.630180 0.413150 0.956570 0.945302
Zn8   Zn    Zn3+2 0.456650 0.413170 0.956580 0.956265

loop_
_geom_bond_atom_site_label_1
_geom_bond_atom_site_label_2
_ccdc_geom_bond_type
C25   C31   A    
C4    O13   A    
C66   C68   S    
C69   H24   S    
C23   C45   A    
O4    Zn4   S    
C72   H29   S    
C27   C29   A    
C9    C64   S    
C76   H40   S    
C41   C42   S    
C71   H30   S    
C74   H32   S    
C35   C36   A    
C77   H48   S    
C5    C67   A    
C42   H56   S    
C84   H68   S    
C75   H42   S    
C7    C8    A    
C39   C41   A    
C32   H55   S    
C47   H67   S    
C1    O4    A    
O1    Zn2   S    
C64   H10   S    
C79   H44   S    
C12   C23   A    
C26   C27   A    
C37   C38   A    
C85   H65   S    
O15   Zn3   S    
C62   H69   S    
C71   H31   S    
C36   C37   A    
C65   H6    S    
O13   Zn1   S    
C72   H27   S    
C30   C31   A    
C76   H39   S    
C4    O22   A    
C74   H33   S    
C32   H54   S    
O24   Zn8   S    
C70   H19   S    
C63   H3    S    
C27   H12   S    
O25   Zn5   S    
C88   H82   S    
O3    Zn6   S    
O22   Zn3   S    
C58   O2    A    
C52   O19   A    
C85   H63   S    
O19   Zn1   S    
C45   C60   S    
C75   C76   S    
C46   C47   A    
C82   H61   S    
C76   H38   S    
C44   C53   S    
C24   C80   S    
C19   C20   A    
C45   C56   A    
C61   C77   S    
C8    C9    A    
C80   H52   S    
C90   H79   S    
O21   Zn2   S    
C68   H15   S    
C13   H11   S    
C35   C43   S    
C9    C10   A    
C83   H58   S    
O14   Zn2   S    
C81   H49   S    
C87   H72   S    
C29   H23   S    
O23   Zn5   S    
C37   H45   S    
C13   C14   S    
C38   C82   S    
C69   C70   S    
C67   C78   A    
C68   H14   S    
C4    C7    S    
C52   C78   S    
C51   C86   S    
O10   Zn6   S    
O6    Zn7   S    
C44   C46   A    
O11   Zn7   S    
C83   H59   S    
C77   C79   S    
C70   H21   S    
C64   H9    S    
C73   H37   S    
C69   H22   S    
O18   Zn3   S    
C36   C40   S    
C10   C57   S    
C42   C84   S    
C84   C85   S    
O23   Zn8   S    
C13   H13   S    
C10   C11   A    
C16   C46   S    
C6    C11   A    
C12   C63   A    
C84   H66   S    
C86   C87   S    
C60   O7    A    
O2    Zn7   S    
C40   O18   A    
C54   O24   A    
C25   C26   A    
C49   C55   S    
C3    H1    S    
C34   C61   A    
C88   H81   S    
C51   C53   S    
C85   H64   S    
C82   H62   S    
C2    C89   A    
C8    H5    S    
C29   C30   A    
C16   O14   A    
C92   H87   S    
O9    Zn8   S    
C6    C14   S    
C47   C48   A    
C57   O26   A    
C15   C21   A    
O7    Zn5   S    
C23   C34   A    
C39   C59   S    
C91   H88   S    
C72   H28   S    
C62   C63   A    
C17   C18   A    
C14   C66   S    
C86   H76   S    
C59   O6    A    
C50   C51   S    
C52   O17   A    
C66   H18   S    
C18   H25   S    
C65   H7    S    
C35   C41   A    
C70   H20   S    
C12   H83   S    
C48   H78   S    
C92   H86   S    
C20   C54   S    
C15   C24   S    
C55   O11   A    
C88   C90   S    
O23   Zn6   S    
C82   C83   S    
C60   O5    A    
C1    C26   S    
C14   C69   S    
C22   C24   S    
C42   C43   S    
C54   O10   A    
C2    C91   S    
C1    O21   A    
C73   C74   S    
C3    C5    A    
C22   C71   S    
C91   C92   S    
C5    H4    S    
C55   O25   A    
C83   H60   S    
C44   C50   A    
C15   C17   A    
C56   C89   A    
O5    Zn8   S    
C80   H53   S    
O26   Zn6   S    
C53   H2    S    
C17   C28   S    
C31   C32   S    
C86   H75   S    
C77   H47   S    
C65   H8    S    
O20   Zn4   S    
C80   C81   S    
C51   H89   S    
C75   H41   S    
C24   C75   S    
C6    C7    A    
O1    Zn1   S    
C56   C67   A    
C79   H43   S    
C28   O15   A    
C22   C73   S    
O17   Zn4   S    
C32   C33   S    
C2    C3    A    
O1    Zn4   S    
C28   O20   A    
C57   O8    A    
C81   H50   S    
C64   C65   S    
O12   Zn1   S    
C11   C13   S    
C38   C39   A    
C40   O16   A    
C48   C49   A    
C30   C58   S    
C90   H77   S    
C33   H34   S    
C59   O3    A    
C53   C88   S    
C66   H17   S    
C61   C62   A    
O16   Zn2   S    
O8    Zn5   S    
C16   O12   A    
C92   H85   S    
C87   H73   S    
C87   H74   S    
C43   H70   S    
C81   H51   S    
C79   H46   S    
C71   C72   S    
C20   C21   A    
O23   Zn7   S    
C73   H36   S    
C49   C50   A    
C91   H90   S    
C90   H80   S    
C58   O9    A    
C19   H26   S    
C18   C19   A    
C33   H57   S    
C68   H16   S    
C89   H84   S    
C21   C22   S    
O1    Zn3   S    
C74   H35   S    
C34   C78   A    
C25   C33   S    
C43   H71   S    
