data_mof_unit_65775.cif
_audit_creation_date              2012-10-26T21:13:13-0400
_audit_creation_method            fapswitch 2.2
_symmetry_space_group_name_H-M    P1
_symmetry_Int_Tables_number       1
_space_group_crystal_system       triclinic
_cell_length_a                    13.463269
_cell_length_b                    15.839202
_cell_length_c                    17.101299
_cell_angle_alpha                 84.124338
_cell_angle_beta                  90.392269
_cell_angle_gamma                 110.812212
_cell_volume                      3389.23501723

loop_
_atom_site_label
_atom_site_type_symbol
_atom_type_description
_atom_site_fract_x
_atom_site_fract_y
_atom_site_fract_z
_atom_type_partial_charge
C1    C     C_R   0.495485 0.509169 0.348780 0.579740
C2    C     C_R   0.821890 0.581073 0.491264 0.020349
C3    C     C_R   0.485843 0.512667 0.263077 0.019536
C4    C     C_R   0.704010 0.549284 0.497435 0.584993
C5    C     C_R   0.527681 0.460165 0.221974 -0.158274
C6    C     C_R   0.522025 0.462604 0.140787 -0.081462
C7    C     C_R   0.473115 0.517575 0.098744 0.206396
C8    C     C_R   0.430384 0.569419 0.139428 -0.069856
C9    C     C_R   0.434842 0.566771 0.221178 0.064840
C10   C     C_R   0.489745 0.551891 0.857093 -0.074097
C11   C     C_R   0.493308 0.557544 0.775430 -0.142343
C12   C     C_R   0.979727 0.537644 0.489115 0.015503
C13   C     C_R   0.484015 0.470573 0.902366 0.229441
C14   C     C_R   0.491247 0.482474 0.737611 0.019221
C15   C     C_R   0.484544 0.401304 0.782752 -0.118791
C16   C     C_R   0.496349 0.488962 0.651476 0.565864
C17   C     C_R   0.481817 0.395899 0.864499 -0.085131
C18   C     C_R   0.548971 0.257134 0.461558 0.218573
C19   C     C_R   0.542006 0.166171 0.467003 -0.097483
C20   C     C_R   0.473997 0.100631 0.523186 0.210106
C21   C     C_R   0.414837 0.130796 0.574104 0.085982
C22   C     C_R   0.422879 0.222818 0.566380 0.054251
C23   C     C_R   0.875803 0.521493 0.518761 -0.000296
C24   C     C_R   0.465462 0.828886 0.549302 -0.104498
C25   C     C_R   0.466980 0.740258 0.550704 0.027371
C26   C     C_R   0.511289 0.893548 0.484544 0.214179
C27   C     C_R   0.556210 0.776326 0.426592 0.067499
C28   C     C_R   0.296081 0.450877 0.502067 0.557040
C29   C     C_R   0.556962 0.865717 0.423051 -0.102498
C30   C     C_R   0.004613 0.314131 0.551709 -0.075364
C31   C     C_R   0.178760 0.421101 0.507146 0.007117
C32   C     C_R   0.880129 0.664343 0.446022 0.089667
C33   C     C_R   0.984936 0.682578 0.422806 -0.089788
C34   C     C_R   0.026103 0.470702 0.507528 0.007531
C35   C     C_R   0.032794 0.619186 0.440885 -0.120379
C36   C     C_R   0.963104 0.384181 0.544890 0.013644
C37   C     C_R   0.863537 0.371840 0.579225 0.110624
C38   C     C_R   0.828755 0.445617 0.574855 0.121980
C39   C     C_R   0.134150 0.488273 0.491838 -0.132583
C40   C     C_R   0.110794 0.331202 0.531783 0.080863
Cu1   Cu    Cu3+1 0.505120 0.585970 0.496130 1.007312
Cu2   Cu    Cu3+1 0.494880 0.414030 0.503870 1.040657
H1    H     H_    0.493037 0.611474 0.884460 0.150396
H2    H     H_    0.482584 0.342276 0.754995 0.160764
H3    H     H_    0.557124 0.422298 0.111114 0.159595
H4    H     H_    0.478133 0.333290 0.898616 0.142360
H5    H     H_    0.592158 0.147714 0.428046 0.161370
H6    H     H_    0.956205 0.245787 0.574650 0.179707
H7    H     H_    0.186842 0.556010 0.471871 0.146079
H8    H     H_    0.028487 0.744848 0.386367 0.162357
H9    H     H_    0.498366 0.620918 0.742024 0.135010
H10   H     H_    0.566207 0.417820 0.252360 0.169685
H11   H     H_    0.429870 0.691186 0.600295 0.129555
H12   H     H_    0.428795 0.846144 0.598387 0.149712
H13   H     H_    0.378109 0.244825 0.606818 0.162821
H14   H     H_    0.589596 0.756032 0.377725 0.168659
H15   H     H_    0.592578 0.913145 0.371978 0.134399
H16   H     H_    0.110460 0.635306 0.414125 0.135666
H17   H     H_    0.391753 0.611035 0.107244 0.155094
I1    I     I_    0.156253 0.215437 0.544443 -0.293590
I2    I     I_    0.353849 0.640297 0.275178 -0.359540
I3    I     I_    0.313388 0.039966 0.663909 -0.262989
I4    I     I_    0.767133 0.245796 0.643042 -0.288189
I5    I     I_    0.667252 0.344432 0.379255 -0.332651
I6    I     I_    0.819883 0.766298 0.401342 -0.321393
I7    I     I_    0.743138 0.459583 0.674239 -0.282195
N1    N     N_2   0.467749 0.524377 0.015679 -0.237184
N2    N     N_2   0.484793 0.462182 0.985602 -0.234228
N3    N     N_R   0.487180 0.284900 0.509690 -0.229893
N4    N     N_2   0.466529 0.006756 0.531359 -0.187397
N5    N     N_2   0.515128 0.986041 0.478413 -0.228415
N6    N     N_R   0.512820 0.715120 0.490310 -0.221230
O1    O     O_R   0.504790 0.580580 0.382450 -0.481817
O2    O     O_R   0.496140 0.435390 0.388990 -0.481680
O3    O     O_R   0.657420 0.608020 0.495150 -0.465756
O4    O     O_R   0.648770 0.462830 0.501690 -0.461669
O5    O     O_R   0.503860 0.564610 0.611010 -0.516283
O6    O     O_R   0.495210 0.419420 0.617550 -0.498969
O7    O     O_R   0.351230 0.537170 0.498310 -0.508618
O8    O     O_R   0.342580 0.391980 0.504850 -0.476981

loop_
_geom_bond_atom_site_label_1
_geom_bond_atom_site_label_2
_ccdc_geom_bond_type
Cu2   O8    S    
C40   I1    S    
C6    H3    S    
C27   C29   A    
Cu1   Cu2   S    
C19   C20   A    
C7    C8    A    
C12   C23   A    
C35   H16   S    
C9    I2    S    
C1    O2    A    
C30   H6    S    
C36   C37   A    
C25   H11   S    
C15   H2    S    
C18   C19   A    
C8    H17   S    
Cu1   O5    S    
C5    C6    A    
C11   C14   A    
C19   H5    S    
C24   H12   S    
C31   C40   A    
C2    C32   A    
C16   O5    A    
C28   O7    A    
C4    O3    A    
C38   I7    S    
C8    C9    A    
C5    H10   S    
N4    N5    D    
C22   N3    A    
C16   O6    A    
C18   N3    A    
C21   C22   A    
C26   N5    S    
C20   N4    S    
C37   I4    S    
Cu2   O2    S    
N1    N2    D    
C17   H4    S    
C27   H14   S    
C33   H8    S    
Cu1   O1    S    
Cu2   N3    S    
C34   C39   A    
C1    C3    S    
C2    C4    S    
C37   C38   A    
C3    C9    A    
Cu1   O3    S    
C30   C40   A    
C25   N6    A    
C24   C25   A    
C12   C35   A    
C21   I3    S    
C6    C7    A    
Cu1   N6    S    
C39   H7    S    
C29   H15   S    
Cu2   O6    S    
C14   C16   S    
C12   C34   A    
C15   C17   A    
C10   H1    S    
C28   C31   S    
C24   C26   A    
C3    C5    A    
C10   C13   A    
Cu1   O7    S    
C22   H13   S    
C13   C17   A    
C23   C38   A    
Cu2   O4    S    
C30   C36   A    
C1    O1    A    
C32   C33   A    
C18   I5    S    
C33   C35   A    
C31   C39   A    
C34   C36   A    
C28   O8    A    
C4    O4    A    
C11   H9    S    
C10   C11   A    
C7    N1    S    
C20   C21   A    
C26   C29   A    
C2    C23   A    
C14   C15   A    
C27   N6    A    
C32   I6    S    
C13   N2    S    
