data_mof_unit_60496.cif
_audit_creation_date              2012-12-10T20:04:47-0500
_audit_creation_method            fapswitch 2.2
_symmetry_space_group_name_H-M    P1
_symmetry_Int_Tables_number       1
_space_group_crystal_system       triclinic
_cell_length_a                    38.744558
_cell_length_b                    32.117801
_cell_length_c                    21.351879
_cell_angle_alpha                 90.118746
_cell_angle_beta                  124.096223
_cell_angle_gamma                 90.164835
_cell_volume                      22002.2897301

loop_
_atom_site_label
_atom_site_type_symbol
_atom_type_description
_atom_site_fract_x
_atom_site_fract_y
_atom_site_fract_z
_atom_type_partial_charge
C1    C     C_R   0.919335 0.999906 0.419442 0.942728
C2    C     C_R   0.080671 0.000107 0.580602 0.922189
C3    C     C_R   0.419335 0.499906 0.419442 0.942707
C4    C     C_R   0.580671 0.500107 0.580603 0.922120
C5    C     C_3   0.000457 0.000260 0.689541 -0.111304
C6    C     C_3   0.000250 0.000015 0.311258 -0.113268
C7    C     C_3   0.500459 0.500260 0.689543 -0.111305
C8    C     C_3   0.500250 0.500014 0.311258 -0.113220
C9    C     C_R   0.728239 0.001253 0.180032 -0.209691
C10   C     C_R   0.271676 0.984519 0.813192 -0.200728
C11   C     C_R   0.228240 0.501313 0.180035 -0.209139
C12   C     C_R   0.771676 0.484518 0.813192 -0.200622
C13   C     C_R   0.706615 0.001062 0.214625 0.126995
C14   C     C_R   0.293427 0.003606 0.786660 0.127082
C15   C     C_R   0.206615 0.501061 0.214627 0.127027
C16   C     C_R   0.793427 0.503613 0.786667 0.127191
C17   C     C_R   0.728101 0.000008 0.294507 0.090942
C18   C     C_R   0.272074 0.022562 0.714390 0.087091
C19   C     C_R   0.228100 0.499945 0.294506 0.091108
C20   C     C_R   0.772074 0.522578 0.714404 0.087711
C21   C     C_R   0.772424 0.998125 0.339128 -0.010344
C22   C     C_R   0.227701 0.021004 0.668259 -0.011472
C23   C     C_R   0.272424 0.498063 0.339123 -0.010330
C24   C     C_R   0.727701 0.521018 0.668272 -0.011534
C25   C     C_R   0.793435 0.998709 0.302044 0.091844
C26   C     C_R   0.206569 0.001645 0.697427 0.096265
C27   C     C_R   0.293435 0.498708 0.302041 0.091768
C28   C     C_R   0.706570 0.501649 0.697433 0.096213
C29   C     C_R   0.771323 0.000298 0.223423 -0.219498
C30   C     C_R   0.228590 0.983729 0.769080 -0.224657
C31   C     C_R   0.271323 0.500357 0.223424 -0.219464
C32   C     C_R   0.728590 0.483726 0.769079 -0.224568
C33   C     C_1   0.662069 0.000760 0.166159 -0.053072
C34   C     C_1   0.337961 0.002134 0.834457 -0.048595
C35   C     C_1   0.162070 0.500761 0.166160 -0.052415
C36   C     C_1   0.837961 0.502140 0.834461 -0.047901
C37   C     C_1   0.837929 0.999212 0.343078 0.041805
C38   C     C_1   0.162076 0.000902 0.656538 0.042549
C39   C     C_1   0.337929 0.499211 0.343076 0.041897
C40   C     C_1   0.662076 0.500904 0.656542 0.042616
C41   C     C_1   0.875165 0.999617 0.377559 -0.117110
C42   C     C_1   0.124843 0.000398 0.622271 -0.128426
C43   C     C_1   0.375165 0.499617 0.377558 -0.117077
C44   C     C_1   0.624843 0.500398 0.622273 -0.128438
C45   C     C_R   0.000671 0.000060 0.622415 0.929875
C46   C     C_R   0.999954 0.999971 0.378238 0.947847
C47   C     C_R   0.500673 0.500060 0.622417 0.929825
C48   C     C_R   0.499953 0.499971 0.378238 0.947834
C49   C     C_1   0.624774 0.000407 0.126372 -0.171397
C50   C     C_1   0.375240 0.000978 0.873794 -0.162254
C51   C     C_1   0.124774 0.500408 0.126372 -0.170643
C52   C     C_1   0.875240 0.500982 0.873795 -0.161513
C53   C     C_R   0.999907 0.919383 0.999863 0.907923
C54   C     C_R   0.499907 0.419383 0.999861 0.907808
C55   C     C_R   0.999764 0.999306 0.877957 0.887213
C56   C     C_R   0.000284 0.999331 0.122096 0.889983
C57   C     C_R   0.499764 0.499307 0.877957 0.887174
C58   C     C_R   0.500284 0.499331 0.122096 0.889919
C59   C     C_R   0.000133 0.080688 0.999906 0.903396
C60   C     C_R   0.500133 0.580688 0.999906 0.903371
C61   C     C_R   0.499916 0.919561 0.999853 0.888552
C62   C     C_R   0.999916 0.419561 0.999853 0.888573
C63   C     C_R   0.580528 0.000059 0.080851 0.903926
C64   C     C_R   0.419471 0.000027 0.919162 0.912954
C65   C     C_R   0.080528 0.500060 0.080851 0.904872
C66   C     C_R   0.919471 0.500028 0.919163 0.913837
C67   C     C_R   0.499994 0.080549 0.000052 0.898649
C68   C     C_R   0.999995 0.580549 0.000052 0.900718
C69   C     C_R   0.464568 0.228400 0.940691 -0.024497
C70   C     C_R   0.534738 0.228912 0.059321 -0.026750
C71   C     C_R   0.962778 0.728398 0.946326 -0.024462
C72   C     C_R   0.036627 0.728910 0.053636 -0.026776
C73   C     C_R   0.499682 0.206616 0.000057 0.083523
C74   C     C_R   0.999731 0.706614 0.000038 0.083709
C75   C     C_R   0.035867 0.772416 0.052456 -0.278546
C76   C     C_R   0.963448 0.771920 0.947210 -0.279515
C77   C     C_R   0.534023 0.272418 0.058036 -0.278445
C78   C     C_R   0.465218 0.271921 0.941680 -0.279434
C79   C     C_3   0.006376 0.960822 0.735309 -0.203301
C80   C     C_3   0.006608 0.960607 0.277853 -0.205238
C81   C     C_3   0.506413 0.460828 0.735349 -0.203310
C82   C     C_3   0.506605 0.460606 0.277849 -0.205331
C83   C     C_R   0.999639 0.793576 0.999757 0.180866
C84   C     C_R   0.499610 0.293577 0.999780 0.181131
C85   C     C_1   0.499787 0.162002 0.000071 0.121455
C86   C     C_1   0.999817 0.662000 0.000071 0.121757
C87   C     C_1   0.999628 0.837951 0.999640 -0.046650
C88   C     C_1   0.499617 0.337952 0.999654 -0.046579
C89   C     C_1   0.999710 0.875206 0.999677 -0.196292
C90   C     C_1   0.499707 0.375207 0.999683 -0.196219
C91   C     C_1   0.499890 0.124718 0.000078 -0.074037
C92   C     C_1   0.999904 0.624716 0.000085 -0.074116
C93   C     C_R   0.477394 0.771779 0.928443 -0.055666
C94   C     C_R   0.522397 0.771979 0.067960 -0.056711
C95   C     C_R   0.977396 0.271779 0.928443 -0.055649
C96   C     C_R   0.022395 0.271979 0.067960 -0.056692
C97   C     C_R   0.498613 0.793356 0.998389 0.010131
C98   C     C_R   0.998614 0.293356 0.998389 0.010126
C99   C     C_R   0.025735 0.228189 0.067666 0.069578
C100  C     C_R   0.980506 0.227934 0.928006 0.069659
C101  C     C_R   0.525736 0.728190 0.067666 0.069585
C102  C     C_R   0.480503 0.727934 0.928007 0.069673
C103  C     C_R   0.003516 0.206605 0.997758 0.076128
C104  C     C_R   0.503516 0.706605 0.997758 0.076136
C105  C     C_1   0.498958 0.838114 0.998725 0.112953
C106  C     C_1   0.998958 0.338114 0.998724 0.112949
C107  C     C_3   0.036727 0.985698 0.808664 -0.286257
C108  C     C_3   0.969936 0.974438 0.198394 -0.285033
C109  C     C_3   0.536741 0.485732 0.808680 -0.286203
C110  C     C_3   0.469933 0.474441 0.198392 -0.285027
C111  C     C_1   0.001924 0.161963 0.997933 -0.032537
C112  C     C_1   0.501924 0.661963 0.997933 -0.032537
C113  C     C_1   0.000706 0.124767 0.998588 -0.212231
C114  C     C_1   0.500706 0.624767 0.998588 -0.212222
C115  C     C_1   0.499437 0.875389 0.999231 -0.103099
C116  C     C_1   0.999437 0.375389 0.999231 -0.103136
C117  C     C_3   0.999284 0.999463 0.810128 -0.134299
C118  C     C_3   0.001017 0.999391 0.190182 -0.134621
C119  C     C_3   0.499285 0.499463 0.810129 -0.134334
C120  C     C_3   0.501017 0.499390 0.190182 -0.134633
C121  C     C_3   0.969009 0.974627 0.737662 0.184132
C122  C     C_3   0.037689 0.985548 0.268844 0.182065
C123  C     C_3   0.469033 0.474598 0.737687 0.184290
C124  C     C_3   0.537687 0.485544 0.268843 0.182140
C125  C     C_3   0.962886 0.014047 0.691229 0.147708
C126  C     C_3   0.031455 0.024971 0.302801 0.139107
C127  C     C_3   0.462875 0.514012 0.691215 0.147728
C128  C     C_3   0.531458 0.524968 0.302804 0.139103
C129  C     C_3   0.993493 0.038854 0.764459 0.113607
C130  C     C_3   0.994481 0.038658 0.223561 0.110049
C131  C     C_3   0.493458 0.538848 0.764421 0.113576
C132  C     C_3   0.494485 0.538658 0.223565 0.110046
C133  C     C_3   0.030699 0.024810 0.762072 0.011467
C134  C     C_3   0.963766 0.013562 0.232854 0.019716
C135  C     C_3   0.530678 0.524838 0.762051 0.011391
C136  C     C_3   0.463767 0.513565 0.232855 0.019685
H1    H     H_    0.066797 0.974143 0.858002 0.171480
H2    H     H_    0.944889 0.953928 0.154223 0.165881
H3    H     H_    0.566822 0.474206 0.858030 0.171563
H4    H     H_    0.444884 0.453933 0.154219 0.165953
H5    H     H_    0.935611 0.789165 0.906726 0.135518
H6    H     H_    0.063669 0.790044 0.092833 0.135988
H7    H     H_    0.438773 0.289166 0.896929 0.135244
H8    H     H_    0.560441 0.290046 0.102682 0.135681
H9    H     H_    0.011897 0.929064 0.722148 0.167049
H10   H     H_    0.011311 0.928745 0.301330 0.167250
H11   H     H_    0.511964 0.429075 0.722218 0.167021
H12   H     H_    0.511304 0.428743 0.301324 0.167175
H13   H     H_    0.787560 0.000834 0.195407 0.165508
H14   H     H_    0.212273 0.969062 0.791119 0.158285
H15   H     H_    0.287561 0.500941 0.195411 0.165564
H16   H     H_    0.712274 0.469052 0.791114 0.158309
H17   H     H_    0.711627 0.002088 0.118937 0.158749
H18   H     H_    0.288193 0.970086 0.868498 0.160154
H19   H     H_    0.211627 0.502195 0.118943 0.158895
H20   H     H_    0.788194 0.470078 0.868493 0.160180
O1    O     O_R   0.939010 0.034440 0.439030 -0.609279
O2    O     O_R   0.060990 0.034440 0.560970 -0.594705
O3    O     O_R   0.439010 0.534440 0.439030 -0.609266
O4    O     O_R   0.560990 0.534440 0.560970 -0.594677
O5    O     O_R   0.561000 0.000050 0.113470 -0.612640
O6    O     O_R   0.439000 0.000050 0.886530 -0.609719
O7    O     O_R   0.061000 0.500050 0.113470 -0.613443
O8    O     O_R   0.939000 0.500050 0.886530 -0.610532
O9    O     O_R   0.561000 0.999980 0.008430 -0.617960
O10   O     O_R   0.439000 0.999980 0.991570 -0.614531
O11   O     O_R   0.061000 0.499980 0.008430 -0.617352
O12   O     O_R   0.939000 0.499980 0.991570 -0.613914
O13   O     O_R   0.500000 0.061040 0.052440 -0.611508
O14   O     O_R   0.500000 0.061040 0.947560 -0.612012
O15   O     O_R   0.000000 0.561040 0.052440 -0.612835
O16   O     O_R   1.000000 0.561040 0.947560 -0.613243
O17   O     O_R   0.939030 0.965580 0.439000 -0.617481
O18   O     O_R   0.060970 0.965580 0.561000 -0.629699
O19   O     O_R   0.439030 0.465580 0.439000 -0.617461
O20   O     O_R   0.560970 0.465580 0.561000 -0.629715
O21   O     O_R   0.000010 0.034440 0.593030 -0.599114
O22   O     O_R   0.999990 0.034440 0.406970 -0.619533
O23   O     O_R   0.500010 0.534440 0.593030 -0.599059
O24   O     O_R   0.499990 0.534440 0.406970 -0.619526
O25   O     O_R   0.000020 0.965580 0.593000 -0.637947
O26   O     O_R   0.999980 0.965580 0.407000 -0.631225
O27   O     O_R   0.500020 0.465580 0.593000 -0.637956
O28   O     O_R   0.499980 0.465580 0.407000 -0.631232
O29   O     O_R   0.034440 0.939060 0.034360 -0.618190
O30   O     O_R   0.965560 0.939060 0.965640 -0.619320
O31   O     O_R   0.534440 0.439060 0.034360 -0.618083
O32   O     O_R   0.465560 0.439060 0.965640 -0.619207
O33   O     O_R   0.034440 0.000050 0.941370 -0.623039
O34   O     O_R   0.965560 0.000050 0.058630 -0.624548
O35   O     O_R   0.534440 0.500050 0.941370 -0.622990
O36   O     O_R   0.465560 0.500050 0.058630 -0.624499
O37   O     O_R   0.965570 0.000070 0.872530 -0.636866
O38   O     O_R   0.034430 0.000070 0.127470 -0.638312
O39   O     O_R   0.465570 0.500070 0.872530 -0.636892
O40   O     O_R   0.534430 0.500070 0.127470 -0.638341
O41   O     O_R   0.034450 0.061050 0.034440 -0.619758
O42   O     O_R   0.965550 0.061050 0.965560 -0.616227
O43   O     O_R   0.534450 0.561050 0.034440 -0.619761
O44   O     O_R   0.465550 0.561050 0.965560 -0.616236
O45   O     O_R   0.500030 0.939050 0.052570 -0.596696
O46   O     O_R   0.499970 0.939050 0.947430 -0.616387
O47   O     O_R   0.000030 0.439050 0.052570 -0.596711
O48   O     O_R   0.999970 0.439050 0.947430 -0.616403
Zn1   Zn    Zn3+2 0.000000 0.045990 0.500000 1.009197
Zn2   Zn    Zn3+2 0.500000 0.545990 0.500000 1.009288
Zn3   Zn    Zn3+2 0.000000 0.954030 0.500000 0.970706
Zn4   Zn    Zn3+2 0.500000 0.454030 0.500000 0.970688
Zn5   Zn    Zn3+2 0.045990 0.000050 0.045940 0.940022
Zn6   Zn    Zn3+2 0.954010 0.000050 0.954060 0.940700
Zn7   Zn    Zn3+2 0.545990 0.500050 0.045940 0.940161
Zn8   Zn    Zn3+2 0.454010 0.500050 0.954060 0.940835
Zn9   Zn    Zn3+2 0.500020 0.000060 0.070120 1.006830
Zn10  Zn    Zn3+2 0.499980 0.000060 0.929880 0.992974
Zn11  Zn    Zn3+2 0.000020 0.500060 0.070120 1.005907
Zn12  Zn    Zn3+2 0.999980 0.500060 0.929880 0.992121
C137  C     C_2   0.796369 0.995584 0.423378 0.360947
H21   H     H_    0.784129 0.008600 0.453889 0.070867
O49   O     O_2   0.829895 0.977863 0.460041 -0.596716
C138  C     C_2   0.203892 0.039458 0.590744 0.371984
H22   H     H_    0.217089 0.064166 0.575985 0.074395
O50   O     O_2   0.169320 0.026591 0.541248 -0.603513
C139  C     C_2   0.296369 0.495459 0.423367 0.360958
H23   H     H_    0.284127 0.508428 0.453907 0.070837
O51   O     O_2   0.329896 0.477737 0.459990 -0.596684
C140  C     C_2   0.703891 0.539479 0.590763 0.372078
H24   H     H_    0.717085 0.564195 0.576014 0.074374
O52   O     O_2   0.669322 0.526608 0.541260 -0.603528
C141  C     C_2   0.426430 0.207838 0.876303 0.386523
H25   H     H_    0.401094 0.226866 0.833062 0.065422
O53   O     O_2   0.422401 0.170064 0.870086 -0.581351
C142  C     C_2   0.572897 0.208915 0.123881 0.389220
H26   H     H_    0.598333 0.228320 0.166684 0.066539
O54   O     O_2   0.576807 0.171198 0.130783 -0.577691
C143  C     C_2   0.922651 0.707837 0.888081 0.386628
H27   H     H_    0.895924 0.726867 0.848999 0.065553
O55   O     O_2   0.918503 0.670062 0.882413 -0.582356
C144  C     C_2   0.076795 0.708913 0.112037 0.389336
H28   H     H_    0.103539 0.728318 0.150741 0.066742
O56   O     O_2   0.080947 0.671196 0.118300 -0.578642
C145  C     C_3   0.958261 0.203556 0.853586 -0.430063
C146  C     C_3   0.912112 0.197572 0.821598 -0.809001
H29   H     H_    0.908441 0.180376 0.862630 0.265365
H30   H     H_    0.896152 0.228046 0.809204 0.265802
H31   H     H_    0.897030 0.179240 0.768293 0.242714
H32   H     H_    0.962101 0.218918 0.811436 0.182401
H33   H     H_    0.972274 0.172406 0.860598 0.217341
C147  C     C_3   0.051449 0.204066 0.141693 -0.419891
C148  C     C_3   0.026778 0.196802 0.176668 -0.831156
H34   H     H_    0.018780 0.226857 0.191180 0.270487
H35   H     H_    0.997629 0.179415 0.136325 0.266350
H36   H     H_    0.045691 0.178188 0.229096 0.245824
H37   H     H_    0.061396 0.173412 0.133143 0.216630
H38   H     H_    0.081258 0.220112 0.182603 0.184129
C149  C     C_3   0.458257 0.703556 0.853586 -0.430062
C150  C     C_3   0.412109 0.697571 0.821604 -0.809019
H39   H     H_    0.408439 0.680375 0.862638 0.265368
H40   H     H_    0.396148 0.728045 0.809210 0.265805
H41   H     H_    0.397026 0.679239 0.768299 0.242712
H42   H     H_    0.462095 0.718919 0.811434 0.182403
H43   H     H_    0.472271 0.672407 0.860597 0.217336
C151  C     C_3   0.551453 0.704066 0.141692 -0.419905
C152  C     C_3   0.526783 0.696802 0.176672 -0.831143
H44   H     H_    0.518787 0.726855 0.191185 0.270493
H45   H     H_    0.497634 0.679414 0.136330 0.266351
H46   H     H_    0.545698 0.678187 0.229099 0.245824
H47   H     H_    0.561399 0.673412 0.133141 0.216630
H48   H     H_    0.581262 0.720112 0.182601 0.184130
C153  C     C_2   0.451700 0.795008 0.855783 0.400485
H49   H     H_    0.450374 0.785358 0.805882 0.062820
O57   O     O_2   0.430806 0.824899 0.850417 -0.560152
C154  C     C_2   0.543434 0.795402 0.141043 0.396405
H50   H     H_    0.574060 0.786593 0.188588 0.059512
O58   O     O_2   0.526206 0.824574 0.149374 -0.554165
C155  C     C_2   0.951704 0.295008 0.855782 0.400454
H51   H     H_    0.950381 0.285358 0.805883 0.062804
O59   O     O_2   0.930810 0.324900 0.850413 -0.560200
C156  C     C_2   0.043430 0.295402 0.141043 0.396363
H52   H     H_    0.074055 0.286592 0.188590 0.059506
O60   O     O_2   0.026201 0.324574 0.149371 -0.554205
C157  C     C_3   0.936460 0.944247 0.730667 -0.405594
C158  C     C_3   0.913545 0.920727 0.655535 -0.832081
H53   H     H_    0.895035 0.942382 0.607655 0.291298
H54   H     H_    0.935963 0.903821 0.648050 0.256137
H55   H     H_    0.891880 0.897695 0.654741 0.251018
H56   H     H_    0.952544 0.921348 0.777438 0.204010
H57   H     H_    0.913706 0.961333 0.736888 0.219748
C159  C     C_3   0.078113 0.966646 0.284652 -0.392638
C160  C     C_3   0.106785 0.951872 0.366179 -0.847280
H58   H     H_    0.117578 0.978483 0.406064 0.293389
H59   H     H_    0.090497 0.928955 0.379943 0.255122
H60   H     H_    0.134565 0.936657 0.373707 0.254115
H61   H     H_    0.070000 0.939552 0.246270 0.210716
H62   H     H_    0.094773 0.989759 0.272185 0.220189
C161  C     C_3   0.436513 0.444189 0.730725 -0.405661
C162  C     C_3   0.413618 0.420646 0.655617 -0.832604
H63   H     H_    0.395085 0.442284 0.607715 0.291374
H64   H     H_    0.436051 0.403762 0.648145 0.256133
H65   H     H_    0.391976 0.397594 0.654850 0.250814
H66   H     H_    0.452619 0.421306 0.777519 0.203756
H67   H     H_    0.413744 0.461255 0.736931 0.219776
C163  C     C_3   0.578109 0.466637 0.284649 -0.392651
C164  C     C_3   0.606780 0.451862 0.366174 -0.847620
H68   H     H_    0.617577 0.478472 0.406062 0.293439
H69   H     H_    0.590490 0.428948 0.379938 0.255072
H70   H     H_    0.634558 0.436642 0.373699 0.254062
H71   H     H_    0.569994 0.439543 0.246264 0.210513
H72   H     H_    0.594772 0.489748 0.272183 0.220227
C165  C     C_3   0.922755 0.029543 0.619248 -0.386759
C166  C     C_3   0.888660 0.040006 0.631717 -0.822586
H73   H     H_    0.877645 0.011561 0.644748 0.263084
H74   H     H_    0.899972 0.062858 0.678333 0.253280
H75   H     H_    0.861728 0.053753 0.579256 0.250008
H76   H     H_    0.930040 0.057575 0.598366 0.209119
H77   H     H_    0.911040 0.005399 0.574437 0.223961
C167  C     C_3   0.064963 0.052933 0.366758 -0.369411
C168  C     C_3   0.093799 0.073016 0.347933 -0.830241
H78   H     H_    0.113410 0.049247 0.344753 0.264260
H79   H     H_    0.075745 0.090053 0.293653 0.250322
H80   H     H_    0.114822 0.095492 0.393327 0.256655
H81   H     H_    0.049542 0.077743 0.378698 0.217455
H82   H     H_    0.083747 0.034309 0.419128 0.227080
C169  C     C_3   0.422729 0.529469 0.619217 -0.386758
C170  C     C_3   0.388624 0.539904 0.631674 -0.822645
H83   H     H_    0.377637 0.511451 0.644742 0.263071
H84   H     H_    0.399915 0.562771 0.678262 0.253288
H85   H     H_    0.361679 0.553622 0.579196 0.249994
H86   H     H_    0.429989 0.557506 0.598304 0.209096
H87   H     H_    0.411036 0.505312 0.574432 0.223957
C171  C     C_3   0.564968 0.552926 0.366764 -0.369389
C172  C     C_3   0.593805 0.573006 0.347940 -0.830236
H88   H     H_    0.613414 0.549236 0.344755 0.264254
H89   H     H_    0.575753 0.590047 0.293663 0.250316
H90   H     H_    0.614831 0.595480 0.393337 0.256663
H91   H     H_    0.549549 0.577737 0.378706 0.217456
H92   H     H_    0.583751 0.534300 0.419131 0.227083
C173  C     C_3   0.988725 0.082039 0.789597 -0.431588
C174  C     C_3   0.982487 0.116327 0.734850 -0.852643
H93   H     H_    0.006908 0.115058 0.722964 0.271601
H94   H     H_    0.951366 0.113561 0.681088 0.264169
H95   H     H_    0.984340 0.147146 0.760202 0.241091
H96   H     H_    0.961997 0.081745 0.795418 0.213866
H97   H     H_    0.017313 0.089066 0.846178 0.196074
C175  C     C_3   0.985041 0.081328 0.185227 -0.427075
C176  C     C_3   0.981079 0.115454 0.230693 -0.848399
H98   H     H_    0.961269 0.105112 0.250203 0.275857
H99   H     H_    0.012222 0.124621 0.280260 0.260169
H100  H     H_    0.966506 0.143337 0.194691 0.251293
H101  H     H_    0.009835 0.089883 0.176501 0.205641
H102  H     H_    0.955222 0.078942 0.128655 0.207586
C177  C     C_3   0.488649 0.582029 0.789516 -0.431582
C178  C     C_3   0.482382 0.616310 0.734735 -0.852620
H103  H     H_    0.506808 0.615064 0.722859 0.271590
H104  H     H_    0.451266 0.613513 0.680971 0.264174
H105  H     H_    0.484202 0.647132 0.760052 0.241105
H106  H     H_    0.461920 0.581712 0.795332 0.213901
H107  H     H_    0.517230 0.589083 0.846091 0.196046
C179  C     C_3   0.485048 0.581329 0.185235 -0.427092
C180  C     C_3   0.481089 0.615455 0.230706 -0.848362
H108  H     H_    0.461280 0.605115 0.250217 0.275862
H109  H     H_    0.512234 0.624620 0.280273 0.260167
H110  H     H_    0.466519 0.643339 0.194707 0.251301
H111  H     H_    0.509843 0.589882 0.176510 0.205643
H112  H     H_    0.455229 0.578946 0.128663 0.207595
C181  C     C_2   0.066559 0.051909 0.778956 0.381982
H113  H     H_    0.084437 0.068412 0.832518 0.063508
O61   O     O_2   0.075986 0.055468 0.733472 -0.564197
C182  C     C_2   0.921633 0.028024 0.210894 0.374688
H114  H     H_    0.898651 0.036788 0.152783 0.067875
O62   O     O_2   0.912921 0.030035 0.257559 -0.583592
C183  C     C_2   0.566515 0.551968 0.778917 0.382090
H115  H     H_    0.584373 0.568492 0.832459 0.063522
O63   O     O_2   0.575946 0.555531 0.733440 -0.564107
C184  C     C_2   0.421635 0.528030 0.210896 0.374757
H116  H     H_    0.398655 0.536797 0.152786 0.067921
O64   O     O_2   0.412923 0.530042 0.257561 -0.583557
C185  C     C_3   0.703707 0.999621 0.330979 -0.436762
C186  C     C_3   0.701104 0.955787 0.355616 -0.825758
H117  H     H_    0.685411 0.934477 0.305955 0.265867
H118  H     H_    0.732608 0.943609 0.398357 0.259288
H119  H     H_    0.682709 0.956424 0.380941 0.251499
H120  H     H_    0.717604 0.021506 0.379553 0.188014
H121  H     H_    0.671455 0.011152 0.291797 0.230341
C187  C     C_3   0.296671 0.043098 0.686634 -0.433532
C188  C     C_3   0.298721 0.014941 0.631115 -0.824348
H122  H     H_    0.314058 0.985090 0.658859 0.270738
H123  H     H_    0.267080 0.008301 0.580349 0.255562
H124  H     H_    0.317212 0.030510 0.612688 0.251685
H125  H     H_    0.283258 0.073749 0.660701 0.190048
H126  H     H_    0.329080 0.050562 0.733990 0.232202
C189  C     C_3   0.203706 0.499493 0.330975 -0.437022
C190  C     C_3   0.201102 0.455630 0.355507 -0.826062
H127  H     H_    0.185410 0.434356 0.305795 0.265843
H128  H     H_    0.232607 0.443441 0.398218 0.259349
H129  H     H_    0.182707 0.456220 0.380832 0.251423
H130  H     H_    0.217603 0.521341 0.379602 0.187933
H131  H     H_    0.171454 0.511030 0.291821 0.230063
C191  C     C_3   0.796670 0.543125 0.686656 -0.433439
C192  C     C_3   0.798723 0.514978 0.631130 -0.825655
H132  H     H_    0.814062 0.485126 0.658865 0.270812
H133  H     H_    0.767083 0.508338 0.580362 0.255789
H134  H     H_    0.817213 0.530554 0.612709 0.251435
H135  H     H_    0.783254 0.573777 0.660732 0.190058
H136  H     H_    0.829078 0.550590 0.734016 0.232064

loop_
_geom_bond_atom_site_label_1
_geom_bond_atom_site_label_2
_ccdc_geom_bond_type
C99   C103  A    
C139  H23   S    
C10   H18   S    
C126  C167  S    
C173  C174  S    
C164  H69   S    
C67   O13   A    
C79   C121  S    
C158  H53   S    
C121  C157  S    
C57   O39   A    
O12   Zn11  S    
C17   C185  S    
O25   Zn3   S    
C169  H86   S    
O24   Zn2   S    
C8    C136  S    
C28   C40   S    
C96   C99   A    
C163  H72   S    
C152  H45   S    
C102  C149  S    
C9    C13   A    
C131  C177  S    
C166  H73   S    
C11   C15   A    
C12   C16   A    
C170  H83   S    
C81   H11   S    
C61   C115  S    
C146  H30   S    
C169  H87   S    
C159  H62   S    
C97   C105  S    
C80   H10   S    
C167  H82   S    
C130  C134  S    
C76   C83   A    
C82   C124  S    
C182  H114  S    
C25   C29   A    
C144  O56   D    
C146  H31   S    
C34   C50   T    
C171  C172  S    
C27   C31   A    
C169  C170  S    
C191  H136  S    
C28   C32   A    
O1    Zn1   S    
C190  H128  S    
C48   O28   A    
C177  H106  S    
C26   C38   S    
C94   C97   A    
C17   C21   A    
C167  C168  S    
C168  H80   S    
C19   C23   A    
C13   C33   S    
C141  H25   S    
C10   C30   A    
C6    C80   S    
C164  H68   S    
C16   C20   A    
C178  H103  S    
C142  O54   D    
C111  C113  T    
O46   Zn10  S    
C176  H100  S    
C129  C133  S    
C1    C41   S    
C162  H63   S    
O31   Zn7   S    
C54   O31   A    
C153  O57   D    
C35   C51   T    
O29   Zn5   S    
C125  C165  S    
C55   C117  S    
O47   Zn11  S    
C157  H56   S    
C192  H133  S    
C175  H101  S    
C145  H33   S    
O2    Zn1   S    
C84   C88   S    
C119  C123  S    
O13   Zn9   S    
C98   C106  S    
O20   Zn4   S    
O34   Zn6   S    
C185  H120  S    
C63   O5    A    
C181  H113  S    
O32   Zn8   S    
C170  H85   S    
C68   C92   S    
C127  C131  S    
C60   O44   A    
O4    Zn2   S    
C125  C129  S    
C93   C153  S    
C141  O53   D    
C180  H108  S    
C186  H117  S    
O16   Zn12  S    
O35   Zn7   S    
C188  H123  S    
C150  H41   S    
C109  C135  S    
C60   C114  S    
C177  C178  S    
C110  C120  S    
C123  C161  S    
C112  C114  T    
C165  H77   S    
C5    C133  S    
C1    O17   A    
C148  H34   S    
C81   C123  S    
C55   O33   A    
C54   C90   S    
C68   O15   A    
C192  H132  S    
C178  H105  S    
C145  C146  S    
C118  C122  S    
C184  H116  S    
O36   Zn8   S    
C8    C128  S    
C162  H65   S    
C149  H43   S    
C150  H40   S    
C119  C131  S    
C179  H112  S    
C71   C143  S    
C5    C79   S    
C117  C129  S    
C173  H96   S    
C36   C52   T    
C11   H19   S    
C9    H17   S    
C21   C137  S    
C101  C151  S    
C70   C77   A    
C3    O3    A    
O7    Zn11  S    
C12   H20   S    
C72   C75   A    
C138  H22   S    
C70   C142  S    
C56   O34   A    
O17   Zn3   S    
O48   Zn12  S    
C10   C14   A    
C151  H47   S    
C104  C112  S    
C147  H37   S    
C154  H50   S    
C77   C84   A    
C137  H21   S    
C29   H13   S    
C53   O30   A    
C121  C125  S    
C69   C141  S    
C61   O46   A    
C31   H15   S    
C123  C127  S    
C32   H16   S    
C132  C136  S    
C94   C154  S    
C65   O7    A    
C160  H58   S    
C66   O8    A    
C62   O48   A    
C56   O38   A    
C7    C81   S    
C23   C139  S    
C26   C30   A    
C174  H94   S    
C171  H91   S    
C4    O20   A    
C93   C97   A    
C48   O24   A    
O6    Zn10  S    
C21   C25   A    
C149  H42   S    
C148  H36   S    
C18   C22   A    
C105  C115  T    
C24   C28   A    
C14   C34   S    
C82   H12   S    
C139  O51   D    
C151  C152  S    
C174  H95   S    
C80   C108  S    
C158  H54   S    
C124  C128  S    
C46   O26   A    
O39   Zn8   S    
C187  H125  S    
C16   C36   S    
C9    C29   A    
O37   Zn6   S    
C2    C42   S    
C58   O40   A    
C180  H110  S    
C37   C41   T    
O42   Zn6   S    
C172  H90   S    
O10   Zn9   S    
C20   C191  S    
C63   O9    A    
C175  C176  S    
C158  H55   S    
C170  H84   S    
C140  H24   S    
C5    C125  S    
C156  H52   S    
C54   O32   A    
C7    C127  S    
C83   C87   S    
C152  H46   S    
C155  H51   S    
C182  O62   D    
C45   O25   A    
C152  H44   S    
C80   C122  S    
O8    Zn12  S    
C15   C19   A    
C133  C181  S    
C8    C82   S    
C57   O35   A    
C71   C76   A    
C30   H14   S    
C126  C130  S    
C59   O42   A    
C33   C49   T    
C183  H115  S    
C160  H60   S    
C95   C155  S    
C103  C111  S    
C51   C65   S    
C168  H79   S    
C14   C18   A    
C64   O10   A    
C110  C136  S    
C178  H104  S    
C143  H27   S    
C69   C73   A    
C176  H99   S    
C161  H67   S    
O15   Zn11  S    
C76   H5    S    
C162  H64   S    
C128  C171  S    
C153  H49   S    
O19   Zn4   S    
C164  H70   S    
C166  H74   S    
C67   O14   A    
C175  H102  S    
C129  C173  S    
C145  H32   S    
C6    C126  S    
C72   C74   A    
C161  C162  S    
C95   C100  A    
C4    C44   S    
C5    C45   S    
C163  H71   S    
C100  C103  A    
C106  C116  T    
C7    C47   S    
C107  H1    S    
C172  H88   S    
C8    C48   S    
C108  C134  S    
C118  C130  S    
C2    O2    A    
C70   C73   A    
C67   C91   S    
C146  H29   S    
C79   C107  S    
C159  H61   S    
O45   Zn9   S    
C47   O27   A    
C88   C90   T    
C167  H81   S    
C101  C104  A    
O30   Zn6   S    
O18   Zn3   S    
C72   C144  S    
C186  H118  S    
C52   C66   S    
C147  C148  S    
C109  C119  S    
C188  H122  S    
C22   C138  S    
C144  H28   S    
C18   C187  S    
C56   C118  S    
C191  H135  S    
C190  H127  S    
C93   C102  A    
C71   C74   A    
C165  H76   S    
C38   C42   T    
C161  H66   S    
O14   Zn10  S    
C13   C17   A    
C65   O11   A    
O28   Zn4   S    
C66   O12   A    
C186  H119  S    
C107  C133  S    
O33   Zn5   S    
C108  H2    S    
C68   O16   A    
C75   C83   A    
C1    O1    A    
C142  H26   S    
O21   Zn1   S    
C184  O64   D    
C124  C163  S    
C62   C116  S    
C189  H131  S    
C22   C26   A    
C87   C89   T    
C134  C182  S    
C107  C117  S    
C100  C145  S    
C166  H75   S    
C157  H57   S    
C192  H134  S    
C49   C63   S    
C50   C64   S    
C46   O22   A    
C187  C188  S    
C138  O50   D    
C85   C91   T    
C95   C98   A    
C189  C190  S    
C79   H9    S    
C165  C166  S    
C130  C175  S    
C3    C43   S    
O44   Zn8   S    
C82   C110  S    
C155  O59   D    
C185  H121  S    
C131  C135  S    
C181  O61   D    
C151  H48   S    
C147  H38   S    
O22   Zn1   S    
O26   Zn3   S    
C58   O36   A    
C53   O29   A    
C127  C169  S    
C117  C121  S    
C60   O43   A    
C61   O45   A    
O40   Zn7   S    
C120  C124  S    
C20   C24   A    
C94   C101  A    
C27   C39   S    
C183  O63   D    
C47   O23   A    
C23   C27   A    
C59   C113  S    
C57   C119  S    
C188  H124  S    
C25   C37   S    
O23   Zn2   S    
C11   C31   A    
C171  H92   S    
C12   C32   A    
O27   Zn4   S    
C143  O55   D    
C69   C78   A    
C168  H78   S    
O11   Zn12  S    
C190  H129  S    
C24   C140  S    
C128  C132  S    
C15   C35   S    
C189  H130  S    
C148  H35   S    
C108  C118  S    
C64   O6    A    
C135  C183  S    
C39   C43   T    
C157  C158  S    
C96   C98   A    
C132  C179  S    
C122  C126  S    
C7    C135  S    
C75   H6    S    
C187  H126  S    
C40   C44   T    
C150  H39   S    
C179  H111  S    
C180  H109  S    
C74   C86   S    
C102  C104  A    
C172  H89   S    
C185  C186  S    
C173  H97   S    
C154  O58   D    
C55   O37   A    
C140  O52   D    
C156  O60   D    
C58   C120  S    
C19   C189  S    
C149  C150  S    
O3    Zn2   S    
C73   C85   S    
C3    O19   A    
O5    Zn9   S    
C163  C164  S    
C6    C46   S    
C120  C132  S    
C81   C109  S    
C45   O21   A    
C137  O49   D    
C109  H3    S    
C96   C156  S    
C159  C160  S    
C110  H4    S    
C176  H98   S    
C77   H8    S    
C6    C134  S    
C86   C92   T    
C78   H7    S    
C2    O18   A    
O38   Zn5   S    
C53   C89   S    
C4    O4    A    
C59   O41   A    
C160  H59   S    
O43   Zn7   S    
C179  C180  S    
C122  C159  S    
C62   O47   A    
O41   Zn5   S    
C136  C184  S    
C78   C84   A    
O9    Zn10  S    
C174  H93   S    
C191  C192  S    
C99   C147  S    
C177  H107  S    
