data_mof_unit_44637.cif
_audit_creation_date              2012-10-26T20:17:11-0400
_audit_creation_method            fapswitch 2.2
_symmetry_space_group_name_H-M    P1
_symmetry_Int_Tables_number       1
_space_group_crystal_system       triclinic
_cell_length_a                    10.692823
_cell_length_b                    11.043352
_cell_length_c                    9.938928
_cell_angle_alpha                 112.152007
_cell_angle_beta                  99.859877
_cell_angle_gamma                 91.137647
_cell_volume                      1066.35580531

loop_
_atom_site_label
_atom_site_type_symbol
_atom_type_description
_atom_site_fract_x
_atom_site_fract_y
_atom_site_fract_z
_atom_type_partial_charge
C1    C     C_R   0.493259 0.253038 0.438958 0.565145
C2    C     C_3   0.121392 0.499155 0.495752 0.030415
C3    C     C_3   0.986310 0.535921 0.640807 0.031999
C4    C     C_3   0.012268 0.466052 0.361148 0.033684
C5    C     C_2   0.497280 0.111327 0.402591 -0.021086
C6    C     C_2   0.511719 0.888478 0.597683 -0.018725
C7    C     C_2   0.527911 0.071191 0.515217 -0.141134
C8    C     C_2   0.531074 0.932696 0.493349 -0.140279
C9    C     C_2   0.524763 0.485813 0.073541 -0.006826
C10   C     C_2   0.500719 0.475390 0.910854 -0.007283
C11   C     C_3   0.973186 0.577137 0.802239 -0.264862
C12   C     C_R   0.508528 0.746777 0.560993 0.562928
C13   C     C_3   0.103100 0.609969 0.905174 -0.444845
C14   C     C_3   0.020459 0.427362 0.199010 -0.269068
C15   C     C_3   0.888913 0.392813 0.099011 -0.441921
C16   C     C_3   0.486673 0.979128 0.746593 -0.421191
C17   C     C_3   0.467543 0.015077 0.242657 -0.414616
C18   C     C_3   0.661018 0.648136 0.968070 -0.121655
C19   C     C_3   0.690448 0.767466 0.933794 -0.366328
C20   C     C_3   0.316199 0.390016 0.055302 -0.105555
C21   C     C_3   0.294965 0.245920 0.031202 -0.399951
C22   C     C_R   0.258941 0.499243 0.498639 0.547164
C23   C     C_R   0.740796 0.501488 0.501708 0.543833
C24   C     C_3   0.049910 0.413770 0.555126 -0.125641
C25   C     C_3   0.949208 0.588249 0.447176 -0.126646
C26   C     C_3   0.939701 0.380289 0.419249 -0.120856
C27   C     C_3   0.059484 0.621605 0.582865 -0.122905
C28   C     C_3   0.877894 0.502634 0.505802 0.031567
Cu1   Cu    Cu3+1 0.522260 0.521810 0.644920 0.905579
Cu2   Cu    Cu3+1 0.477740 0.478190 0.355080 0.905114
H1    H     H_    0.888763 0.281541 0.352604 0.102791
H2    H     H_    0.153646 0.697914 0.903154 0.154046
H3    H     H_    0.090746 0.630810 0.020187 0.124616
H4    H     H_    0.920344 0.665546 0.833507 0.140590
H5    H     H_    0.919338 0.496311 0.814863 0.151044
H6    H     H_    0.838602 0.307168 0.106179 0.155088
H7    H     H_    0.831297 0.477862 0.131631 0.142675
H8    H     H_    0.899108 0.367627 0.982470 0.127519
H9    H     H_    0.067827 0.512143 0.187499 0.136939
H10   H     H_    0.076369 0.341085 0.164990 0.143981
H11   H     H_    0.458799 0.923847 0.811280 0.137333
H12   H     H_    0.110374 0.720331 0.649764 0.102453
H13   H     H_    0.573538 0.045800 0.812095 0.120430
H14   H     H_    0.406611 0.038005 0.730739 0.123858
H15   H     H_    0.440124 0.064389 0.164758 0.140450
H16   H     H_    0.552725 0.962781 0.213282 0.118042
H17   H     H_    0.386975 0.942645 0.226049 0.130441
H18   H     H_    0.725029 0.740248 0.828699 0.185430
H19   H     H_    0.605823 0.823875 0.934323 0.155867
H20   H     H_    0.768077 0.833157 0.022354 0.075786
H21   H     H_    0.637481 0.692630 0.080128 0.095863
H22   H     H_    0.748550 0.596442 0.974123 0.109897
H23   H     H_    0.092940 0.342676 0.599832 0.100206
H24   H     H_    0.376546 0.192500 0.990718 0.141331
H25   H     H_    0.282548 0.236210 0.135164 0.173588
H26   H     H_    0.206711 0.200274 0.947415 0.091217
H27   H     H_    0.247465 0.447222 0.117558 0.152265
H28   H     H_    0.291962 0.397848 0.947033 0.076701
H29   H     H_    0.905969 0.659380 0.402651 0.098076
H30   H     H_    0.546553 0.863917 0.387078 0.142849
H31   H     H_    0.548356 0.142780 0.628527 0.148058
H32   H     H_    0.434868 0.396233 0.828370 0.135635
H33   H     H_    0.616274 0.530135 0.142728 0.124246
H34   H     H_    0.161738 0.526276 0.870029 0.153372
N1    N     N_2   0.444270 0.445410 0.137360 -0.223250
N2    N     N_2   0.555730 0.554590 0.862640 -0.218486
O1    O     O_R   0.511880 0.332340 0.577400 -0.514435
O2    O     O_R   0.488120 0.667660 0.422600 -0.502736
O3    O     O_R   0.474280 0.295500 0.332650 -0.495178
O4    O     O_R   0.525720 0.704500 0.667350 -0.504085
O5    O     O_R   0.335640 0.518390 0.622350 -0.498068
O6    O     O_R   0.664360 0.481610 0.377650 -0.507376
O7    O     O_R   0.298050 0.481550 0.377590 -0.515397
O8    O     O_R   0.701950 0.518450 0.622410 -0.509730

loop_
_geom_bond_atom_site_label_1
_geom_bond_atom_site_label_2
_ccdc_geom_bond_type
C2    C22   S    
C21   H26   S    
C2    C4    S    
C17   H16   S    
C15   H8    S    
C13   H3    S    
C2    C27   S    
C26   C28   S    
C18   N2    S    
C6    C16   S    
C11   C13   S    
C9    C10   S    
C15   H6    S    
C13   H2    S    
C4    C26   S    
C19   H20   S    
C11   H5    S    
C4    C25   S    
C20   H27   S    
C18   H22   S    
C7    C8    S    
C10   H32   S    
C23   C28   S    
C8    H30   S    
C25   C28   S    
C4    C14   S    
C12   O2    A    
C16   H13   S    
C3    C24   S    
Cu1   Cu2   S    
C13   H34   S    
C12   O4    A    
C1    C5    S    
C6    C8    D    
C6    C12   S    
C3    C27   S    
C3    C28   S    
C1    O1    A    
C24   C26   S    
C18   H21   S    
Cu1   O4    S    
C23   O6    A    
C10   N2    D    
C2    C24   S    
C21   H24   S    
C17   H15   S    
C9    N1    D    
C19   H19   S    
Cu2   N1    S    
C5    C17   S    
C23   O8    A    
C20   H28   S    
Cu1   N2    S    
C22   O5    A    
C26   H1    S    
Cu2   O3    S    
C3    C11   S    
C20   C21   S    
C24   H23   S    
C15   H7    S    
C5    C7    D    
C18   C19   S    
C1    O3    A    
C21   H25   S    
Cu2   O7    S    
C16   H14   S    
C14   C15   S    
C7    H31   S    
Cu1   O1    S    
Cu1   O8    S    
C25   H29   S    
C22   O7    A    
Cu1   O5    S    
C14   H9    S    
C9    H33   S    
C14   H10   S    
C16   H11   S    
C11   H4    S    
Cu2   O2    S    
C27   H12   S    
C17   H17   S    
C19   H18   S    
Cu2   O6    S    
C20   N1    S    
C25   C27   S    
