data_mof_unit_30396.cif
_audit_creation_date              2013-03-05T16:41:34-0500
_audit_creation_method            fapswitch 2.2
_symmetry_space_group_name_H-M    P1
_symmetry_Int_Tables_number       1
_space_group_crystal_system       triclinic
_cell_length_a                    12.828321
_cell_length_b                    10.674383
_cell_length_c                    9.876571
_cell_angle_alpha                 89.588865
_cell_angle_beta                  97.636097
_cell_angle_gamma                 89.819387
_cell_volume                      1340.4029952

loop_
_atom_site_label
_atom_site_type_symbol
_atom_site_description
_atom_site_fract_x
_atom_site_fract_y
_atom_site_fract_z
_atom_type_partial_charge
O1    O     O_R   0.500010 0.316790 0.614690 -0.631459
O2    O     O_R   0.500000 0.316760 0.385350 -0.634912
C1    C     C_R   0.504190 0.259919 0.501049 0.896667
O3    O     O_R   0.346360 0.499990 0.595720 -0.594017
O4    O     O_R   0.346350 0.499960 0.366370 -0.619275
C2    C     C_R   0.298287 0.501995 0.472694 0.925040
Zn1   Zn    Zn3+2 0.500010 0.500020 0.653130 1.049796
Zn2   Zn    Zn3+2 0.499990 0.499980 0.346870 0.993773
O5    O     O_R   0.500000 0.683240 0.614650 -0.588292
O6    O     O_R   0.499990 0.683210 0.385310 -0.550401
O7    O     O_R   0.653650 0.500040 0.633630 -0.519062
O8    O     O_R   0.653640 0.500010 0.404280 -0.644193
C3    C     C_R   0.505008 0.740058 0.500282 0.966139
C4    C     C_R   0.701651 0.501351 0.527305 0.926774
C5    C     C_R   0.813427 0.510997 0.544588 -0.181690
C6    C     C_R   0.185880 0.502559 0.455301 -0.150722
C7    C     C_R   0.025818 0.402279 0.360361 -0.140778
C8    C     C_R   0.132328 0.420549 0.361087 -0.247400
C9    C     C_R   0.133436 0.572660 0.545343 0.286430
C10   C     C_R   0.026494 0.552367 0.547249 -0.047163
C11   C     C_R   0.973263 0.465645 0.454410 0.144801
C12   C     C_R   0.867306 0.445110 0.454788 -0.324711
C13   C     C_R   0.864616 0.596422 0.637190 0.649011
C14   C     C_R   0.971003 0.617469 0.638117 -0.238269
H1    H     H_    0.825756 0.380139 0.382745 0.175902
H2    H     H_    0.985080 0.336734 0.288627 0.156915
H3    H     H_    0.008249 0.686614 0.707859 0.223217
H4    H     H_    0.173881 0.366236 0.292837 0.165691
C15   C     C_R   0.532088 0.062668 0.627286 0.137718
C16   C     C_R   0.524361 0.128773 0.504455 -0.191308
C17   C     C_R   0.540908 0.066439 0.384513 -0.301964
H5    H     H_    0.544993 0.116589 0.289601 0.197629
C18   C     C_R   0.541793 0.936897 0.383313 0.628580
C19   C     C_R   0.525786 0.871162 0.502940 -0.247416
C20   C     C_R   0.533078 0.934802 0.626626 0.091478
C21   C     C_3   0.468059 0.925976 0.741256 -0.362726
C22   C     C_3   0.466223 0.067936 0.740982 -0.482643
H6    H     H_    0.389472 0.884188 0.710274 0.256348
H7    H     H_    0.512915 0.884905 0.835280 0.233999
H8    H     H_    0.386622 0.107819 0.708002 0.207748
H9    H     H_    0.509507 0.108813 0.835269 0.214336
C23   C     C_R   0.409164 0.479563 0.055737 0.224401
N1    N     N_R   0.499290 0.499140 0.142710 -0.147087
C24   C     C_R   0.587127 0.532924 0.086860 -0.194409
H10   H     H_    0.658052 0.557939 0.152658 0.202540
C25   C     C_R   0.587187 0.533093 0.943281 0.640088
N2    N     N_R   0.499290 0.499180 0.857070 -0.184106
C26   C     C_R   0.409132 0.479704 0.913379 0.197473
C27   C     C_3   0.341783 0.365951 0.897034 -0.468924
C28   C     C_3   0.341973 0.365689 0.050897 -0.493281
H11   H     H_    0.263116 0.386156 0.839082 0.236767
H12   H     H_    0.383392 0.284391 0.860205 0.196986
H13   H     H_    0.263371 0.386041 0.081329 0.216188
H14   H     H_    0.383597 0.283666 0.103360 0.212488
F1    F     F_    0.676165 0.565405 0.892268 -0.587197
F2    F     F_    0.810647 0.665323 0.719878 -0.599285
N3    N     N_R   0.188997 0.664787 0.632252 0.198022
O9    O     O_R   0.236994 0.756018 0.578557 -0.429543
O10   O     O_R   0.201780 0.649623 0.764289 -0.409514
F3    F     F_    0.548890 0.878122 0.263332 -0.641202

loop_
_geom_bond_atom_site_label_1
_geom_bond_atom_site_label_2
_geom_bond_distance
_ccdc_geom_bond_type
C25   F1    1.352222 S    
C1    C16   1.422162 S    
C13   C14   1.382671 A    
C17   C18   1.382944 A    
C15   C16   1.390961 A    
O4    Zn2   2.005641 S    
C15   C20   1.364975 A    
C17   H5    1.083542 S    
Zn2   N1    2.015313 S    
C16   C17   1.402984 A    
Zn2   O8    1.977274 S    
C27   H12   1.108327 S    
C27   H11   1.111695 S    
C21   H6    1.109839 S    
C18   C19   1.408536 A    
C3    C19   1.425217 S    
C6    C8    1.396330 A    
C23   C26   1.405938 A    
C11   C12   1.377980 A    
C9    N3    1.437299 S    
Zn1   O7    2.005640 S    
N3    O9    1.300717 A    
C28   H14   1.112283 S    
C23   C28   1.489721 S    
O3    Zn1   1.977274 S    
C14   H3    1.081468 S    
C7    H2    1.084258 S    
C5    C13   1.398329 A    
C21   C22   1.515423 S    
C5    C12   1.388445 A    
C24   C25   1.418161 A    
O6    C3    1.285501 A    
C7    C8    1.379877 A    
C18   F3    1.358346 S    
O2    C1    1.284655 A    
C6    C9    1.403142 A    
N1    C24   1.367075 A    
C22   H9    1.111679 S    
O4    C2    1.286735 A    
C19   C20   1.394434 A    
O7    C4    1.286011 A    
O2    Zn2   1.989662 S    
N3    O10   1.301404 A    
C28   H13   1.111025 S    
C23   N1    1.363236 A    
C2    C6    1.429330 S    
C22   H8    1.112186 S    
N2    C26   1.364179 A    
C10   C14   1.403821 A    
C13   F2    1.357535 S    
C8    H4    1.083418 S    
C10   C11   1.419061 A    
Zn2   O6    1.995045 S    
C27   C28   1.519297 S    
C15   C22   1.493585 S    
Zn1   O5    1.989662 S    
O5    C3    1.287465 A    
C25   N2    1.370883 A    
C26   C27   1.489724 S    
O1    Zn1   1.995048 S    
C4    C5    1.425458 S    
O3    C2    1.287467 A    
C12   H1    1.086281 S    
C21   H7    1.111857 S    
C7    C11   1.395504 A    
C24   H10   1.080882 S    
C9    C10   1.392129 A    
O8    C4    1.287380 A    
O1    C1    1.287135 A    
C20   C21   1.495426 S    
Zn1   N2    2.015431 S    
