data_mof_unit_24041.cif
_audit_creation_date              2012-12-10T16:57:02-0500
_audit_creation_method            fapswitch 2.2
_symmetry_space_group_name_H-M    P1
_symmetry_Int_Tables_number       1
_space_group_crystal_system       triclinic
_cell_length_a                    7.759662
_cell_length_b                    8.568082
_cell_length_c                    16.758922
_cell_angle_alpha                 91.306648
_cell_angle_beta                  82.068225
_cell_angle_gamma                 93.653941
_cell_volume                      1101.21031271

loop_
_atom_site_label
_atom_site_type_symbol
_atom_type_description
_atom_site_fract_x
_atom_site_fract_y
_atom_site_fract_z
_atom_type_partial_charge
C1    C     C_R   0.545986 0.794766 0.499477 0.963510
C2    C     C_R   0.502086 0.679918 0.236882 -0.021284
C3    C     C_R   0.633740 0.510104 0.855198 0.412423
C4    C     C_R   0.451763 0.700064 0.160789 0.476074
C5    C     C_R   0.555372 0.643566 0.889340 -0.091444
C6    C     C_R   0.446710 0.571578 0.107909 -0.055241
C7    C     C_R   0.447432 0.729982 0.848244 0.060833
C8    C     C_R   0.482097 0.419582 0.130409 0.014820
C9    C     C_R   0.412391 0.676172 0.771547 0.403940
C10   C     C_R   0.517508 0.397623 0.209741 0.389696
C11   C     C_2   0.557616 0.666866 0.975771 0.490801
C12   C     C_R   0.453830 0.205264 0.502463 0.966943
C13   C     C_2   0.421822 0.602388 0.025027 0.443974
C14   C     C_3   0.651130 0.293495 0.749648 -0.859423
C15   C     C_3   0.535427 0.820622 0.290102 -0.833294
C16   C     C_3   0.373209 0.878732 0.885340 -0.840741
C17   C     C_3   0.483071 0.282653 0.071208 -0.787904
C18   C     C_2   0.570243 0.958298 0.499029 -0.360637
C19   C     C_2   0.429416 0.041822 0.504596 -0.350787
C20   C     C_R   0.480577 0.504735 0.653772 0.952862
C21   C     C_R   0.520206 0.500145 0.346531 0.997851
C22   C     C_R   0.485421 0.538214 0.738717 -0.169176
C23   C     C_R   0.525620 0.527407 0.261602 -0.149599
C24   C     C_R   0.591421 0.451502 0.780955 0.010976
H1    H     H_    0.703271 0.009361 0.493364 0.181029
H2    H     H_    0.618003 0.793654 0.336170 0.231068
H3    H     H_    0.530085 0.169278 0.199491 0.351241
H4    H     H_    0.253073 0.840255 0.757116 0.344917
H5    H     H_    0.189459 0.501214 0.040561 0.354319
H6    H     H_    0.794328 0.757685 0.959114 0.347963
H7    H     H_    0.421429 0.913315 0.942854 0.261225
H8    H     H_    0.411628 0.977673 0.843684 0.225810
H9    H     H_    0.228863 0.863082 0.897440 0.259752
H10   H     H_    0.377926 0.193627 0.093038 0.240134
H11   H     H_    0.462105 0.314426 0.009834 0.273146
H12   H     H_    0.296386 0.990741 0.510318 0.181689
H13   H     H_    0.611241 0.229662 0.065003 0.264792
H14   H     H_    0.374254 0.911387 0.181622 0.339996
H15   H     H_    0.818031 0.367634 0.863172 0.354835
H16   H     H_    0.022526 0.381646 0.439901 0.199918
H17   H     H_    0.977466 0.618294 0.560136 0.203116
H18   H     H_    0.625851 0.206546 0.798664 0.242513
H19   H     H_    0.579702 0.245408 0.700702 0.235262
H20   H     H_    0.792641 0.303295 0.726828 0.247725
H21   H     H_    0.609411 0.915781 0.253740 0.268460
H22   H     H_    0.410012 0.862664 0.320246 0.240551
N1    N     N_2   0.953500 0.457650 0.478520 -0.174347
N2    N     N_2   0.046500 0.542350 0.521480 -0.170757
O1    O     O_R   0.388470 0.738640 0.505270 -0.598449
O2    O     O_3   0.313842 0.756973 0.725192 -0.761739
O3    O     O_3   0.271813 0.546033 0.995092 -0.781630
O4    O     O_3   0.708612 0.721077 0.005386 -0.737301
O5    O     O_3   0.411522 0.843778 0.134605 -0.771912
O6    O     O_3   0.741731 0.434995 0.899192 -0.752526
O7    O     O_R   0.611530 0.261360 0.494730 -0.610810
O8    O     O_R   0.679650 0.711510 0.491500 -0.641482
O9    O     O_R   0.320350 0.288490 0.508500 -0.636935
O10   O     O_R   0.337210 0.515200 0.623500 -0.565677
O11   O     O_R   0.662790 0.484800 0.376500 -0.598185
O12   O     O_R   0.628380 0.488060 0.609730 -0.631634
O13   O     O_R   0.371620 0.511940 0.390270 -0.632940
O14   O     O_3   0.543011 0.252909 0.239992 -0.785838
Zn1   Zn    Zn3+2 0.305580 0.518120 0.509190 0.975947
Zn2   Zn    Zn3+2 0.694420 0.481880 0.490810 0.961582

loop_
_geom_bond_atom_site_label_1
_geom_bond_atom_site_label_2
_ccdc_geom_bond_type
N1    Zn2   S    
H16   N1    S    
C2    C4    A    
O8    Zn2   S    
C21   O11   A    
O1    Zn1   S    
H3    O14   S    
C16   H9    S    
C16   H8    S    
C14   H20   S    
C21   O13   A    
C8    C17   S    
C16   H7    S    
C14   H18   S    
O12   Zn2   S    
O7    Zn2   S    
C1    C18   S    
C17   H13   S    
C6    C13   S    
C2    C15   S    
C11   C13   D    
C3    C24   A    
C10   O14   S    
H14   O5    S    
C1    O1    A    
C6    C8    A    
C12   O9    A    
C12   C19   S    
C4    C6    A    
C7    C16   S    
C3    O6    S    
H17   N2    S    
C20   C22   S    
O9    Zn1   S    
C5    C7    A    
C19   H12   S    
C21   C23   S    
C5    C11   S    
C10   C23   A    
C4    O5    S    
C22   C24   A    
C9    C22   A    
H15   O6    S    
C20   O12   A    
C17   H10   S    
C15   H21   S    
C20   O10   A    
C12   O7    A    
O11   Zn2   S    
C2    C23   A    
C8    C10   A    
C18   C19   D    
H5    O3    S    
C14   C24   S    
O10   Zn1   S    
O13   Zn1   S    
C18   H1    S    
C7    C9    A    
C15   H2    S    
H6    O4    S    
C11   O4    S    
C17   H11   S    
C15   H22   S    
C3    C5    A    
C13   O3    S    
H4    O2    S    
C1    O8    A    
C9    O2    S    
N1    N2    D    
C14   H19   S    
N2    Zn1   S    
