data_mof_unit_54651.cif
_audit_creation_date              2012-12-10T16:45:23-0500
_audit_creation_method            fapswitch 2.2
_symmetry_space_group_name_H-M    P1
_symmetry_Int_Tables_number       1
_space_group_crystal_system       triclinic
_cell_length_a                    7.494919
_cell_length_b                    8.688417
_cell_length_c                    15.725161
_cell_angle_alpha                 95.18102
_cell_angle_beta                  75.375356
_cell_angle_gamma                 103.550943
_cell_volume                      962.71855806

loop_
_atom_site_label
_atom_site_type_symbol
_atom_type_description
_atom_site_fract_x
_atom_site_fract_y
_atom_site_fract_z
_atom_type_partial_charge
C1    C     C_R   0.545264 0.800149 0.502767 0.873918
C2    C     C_R   0.454724 0.199855 0.497256 0.878797
C3    C     C_R   0.313507 0.311934 0.065032 0.139328
C4    C     C_R   0.738477 0.545435 0.913231 0.152658
C5    C     C_R   0.188717 0.268464 0.010305 -0.270071
C6    C     C_R   0.867802 0.571323 0.966049 -0.267578
C7    C     C_2   0.570111 0.968518 0.504259 -0.369640
C8    C     C_2   0.429880 0.031504 0.495789 -0.368897
C9    C     C_R   0.384590 0.485667 0.666015 0.785729
C10   C     C_R   0.615182 0.510640 0.333646 0.790061
C11   C     C_R   0.314334 0.449266 0.759297 -0.076508
C12   C     C_R   0.685553 0.515970 0.237602 -0.070245
C13   C     C_R   0.105113 0.279345 0.873165 -0.170822
C14   C     C_R   0.939874 0.577771 0.107694 -0.180719
C15   C     C_R   0.150968 0.332620 0.787876 -0.222427
C16   C     C_R   0.879007 0.561724 0.198433 -0.203006
C17   C     C_R   0.430864 0.511036 0.816443 -0.198029
C18   C     C_R   0.555956 0.476908 0.184479 -0.194248
C19   C     C_R   0.404374 0.441127 0.897359 0.091557
C20   C     C_R   0.616130 0.476629 0.092375 0.097360
C21   C     C_R   0.231371 0.331248 0.927659 0.111294
C22   C     C_R   0.808689 0.540936 0.055019 0.115044
C23   C     C_R   0.543368 0.474725 0.948422 0.004618
C24   C     C_R   0.488333 0.423189 0.036991 -0.001905
Cu1   Cu    Cu3+1 0.322120 0.483240 0.490330 0.969742
Cu2   Cu    Cu3+1 0.677880 0.516760 0.509670 0.975498
H1    H     H_    0.058425 0.181270 0.032288 0.151014
H2    H     H_    0.015856 0.620279 0.937184 0.155189
H3    H     H_    0.407189 0.454823 0.215940 0.175717
H4    H     H_    0.540626 0.614023 0.795507 0.172631
H5    H     H_    0.982143 0.591789 0.238051 0.154216
H6    H     H_    0.060509 0.281286 0.743998 0.154810
H7    H     H_    0.975242 0.191893 0.895094 0.140192
H8    H     H_    0.088991 0.621524 0.078848 0.138511
H9    H     H_    0.704665 0.040877 0.512403 0.174854
H10   H     H_    0.295365 0.959165 0.487607 0.173809
N1    N     N_2   0.945180 0.542040 0.524240 0.002599
N2    N     N_2   0.054820 0.457960 0.475760 0.002675
O1    O     O_R   0.384450 0.714270 0.493720 -0.556651
O2    O     O_R   0.615550 0.285730 0.506280 -0.555825
O3    O     O_R   0.684880 0.742590 0.510050 -0.599931
O4    O     O_R   0.315120 0.257410 0.489950 -0.598334
O5    O     O_R   0.265540 0.477900 0.617090 -0.567865
O6    O     O_R   0.734460 0.522100 0.382910 -0.565678
O7    O     O_R   0.565970 0.506210 0.633420 -0.581820
O8    O     O_R   0.434030 0.493790 0.366580 -0.598909
N3    N     N_3   0.271089 0.225910 0.143960 -0.613500
H11   H     H_    0.258854 0.105391 0.126838 0.225803
H12   H     H_    0.140014 0.241214 0.182353 0.212001
N4    N     N_3   0.812992 0.579593 0.822199 -0.625229
H13   H     H_    0.912414 0.511797 0.795086 0.237128
H14   H     H_    0.882015 0.699101 0.817381 0.206124
N5    N     N_3   0.016792 0.640431 0.587679 -0.415565
H15   H     H_    0.007187 0.754884 0.577151 0.198555
H16   H     H_    0.924610 0.607595 0.648083 0.220947
N6    N     N_3   0.985049 0.362783 0.410711 -0.412864
H17   H     H_    0.075812 0.400220 0.350536 0.201584
H18   H     H_    0.997523 0.248031 0.418704 0.202303

loop_
_geom_bond_atom_site_label_1
_geom_bond_atom_site_label_2
_ccdc_geom_bond_type
Cu1   O4    S    
C14   H8    S    
N4    H14   S    
C23   C24   A    
Cu2   N1    S    
C13   H7    S    
N1    N2    D    
C6    H2    S    
Cu1   N2    S    
C19   C23   A    
N3    H11   S    
C10   O6    A    
C4    N4    S    
N1    N5    S    
Cu1   O5    S    
C13   C15   A    
N4    H13   S    
C13   C21   A    
C7    C8    D    
N3    H12   S    
C18   H3    S    
C1    C7    S    
N5    H15   S    
Cu1   O1    S    
C16   H5    S    
C9    O7    A    
C17   H4    S    
C9    C11   S    
Cu2   O2    S    
C3    C24   A    
C10   C12   S    
C2    O4    A    
C7    H9    S    
C1    O3    A    
C19   C21   A    
N6    H18   S    
C18   C20   A    
N5    H16   S    
C14   C22   A    
C14   C16   A    
C9    O5    A    
C1    O1    A    
Cu2   O6    S    
C6    C22   A    
C2    O2    A    
C10   O8    A    
C15   H6    S    
N2    N6    S    
N6    H17   S    
C4    C6    A    
C8    H10   S    
C3    N3    S    
C4    C23   A    
C20   C24   A    
C11   C17   A    
Cu2   O7    S    
C17   C19   A    
Cu1   Cu2   S    
C5    H1    S    
C11   C15   A    
Cu1   O8    S    
C2    C8    S    
C12   C16   A    
Cu2   O3    S    
C20   C22   A    
C3    C5    A    
C5    C21   A    
C12   C18   A    
