data_mof_unit_38095.cif
_audit_creation_date              2012-10-26T20:06:04-0400
_audit_creation_method            fapswitch 2.2
_symmetry_space_group_name_H-M    P1
_symmetry_Int_Tables_number       1
_space_group_crystal_system       triclinic
_cell_length_a                    9.527461
_cell_length_b                    10.742459
_cell_length_c                    13.448046
_cell_angle_alpha                 90.202305
_cell_angle_beta                  72.640478
_cell_angle_gamma                 90.018882
_cell_volume                      1313.68438334

loop_
_atom_site_label
_atom_site_type_symbol
_atom_type_description
_atom_site_fract_x
_atom_site_fract_y
_atom_site_fract_z
_atom_type_partial_charge
C1    C     C_R   0.501042 0.737581 0.497238 0.577848
C2    C     C_R   0.373481 0.509416 0.814074 -0.013376
C3    C     C_R   0.501058 0.935514 0.585368 -0.203700
C4    C     C_R   0.421353 0.498493 0.700053 0.531743
C5    C     C_R   0.500668 0.064301 0.586041 -0.206613
C6    C     C_R   0.501738 0.128692 0.495962 -0.011430
C7    C     C_R   0.504205 0.065600 0.403788 0.279298
C8    C     C_R   0.501238 0.935189 0.403571 0.278031
C9    C     C_R   0.500953 0.871340 0.494961 -0.009796
C10   C     C_R   0.899462 0.579783 0.562612 -0.032448
C11   C     C_R   0.047960 0.579398 0.562871 -0.014608
C12   C     C_R   0.430165 0.504340 0.980843 0.035424
C13   C     C_R   0.100920 0.419756 0.437760 0.004938
C14   C     C_R   0.950281 0.417495 0.438482 0.380956
C15   C     C_R   0.500591 0.262397 0.498701 0.584853
C16   C     C_R   0.578420 0.497931 0.300200 0.570337
C17   C     C_R   0.753081 0.353801 0.039691 -0.127086
C18   C     C_R   0.621541 0.477180 0.187944 -0.011967
C19   C     C_R   0.247978 0.580387 0.859981 -0.186251
C20   C     C_R   0.209157 0.609554 0.964686 -0.114740
C21   C     C_R   0.296157 0.571725 0.026341 0.273954
C22   C     C_3   0.391689 0.155138 0.293345 -0.094628
C23   C     C_R   0.459645 0.463785 0.875517 -0.017147
C24   C     C_3   0.375063 0.839079 0.304258 -0.100866
C25   C     C_3   0.959020 0.219994 0.366385 -0.141477
C26   C     C_3   0.141452 0.514542 0.182708 -0.110057
C27   C     C_R   0.534584 0.472579 0.034580 0.030419
C28   C     C_R   0.652114 0.389271 0.987344 0.040887
C29   C     C_R   0.667267 0.340329 0.888892 -0.138861
C30   C     C_R   0.572880 0.376792 0.833846 -0.124480
C31   C     C_R   0.528931 0.521334 0.132846 -0.118471
C32   C     C_R   0.736259 0.395820 0.140426 -0.118830
Cu1   Cu    Cu3+1 0.359340 0.499980 0.500000 0.925220
Cu2   Cu    Cu3+1 0.640660 0.500020 0.500000 1.005630
H1    H     H_    0.808192 0.360297 0.182735 0.161616
H2    H     H_    0.588007 0.333298 0.758746 0.137396
H3    H     H_    0.500615 0.885654 0.655400 0.128632
H4    H     H_    0.397609 0.248112 0.256664 0.140575
H5    H     H_    0.295193 0.155770 0.364989 0.077661
H6    H     H_    0.373316 0.086000 0.237124 0.132815
H7    H     H_    0.283958 0.900527 0.349916 0.077325
H8    H     H_    0.349457 0.741302 0.328831 0.173252
H9    H     H_    0.377563 0.844722 0.221392 0.153439
H10   H     H_    0.822547 0.644089 0.612671 0.121343
H11   H     H_    0.885418 0.156368 0.340031 0.172830
H12   H     H_    0.499606 0.113934 0.656585 0.120957
H13   H     H_    0.069108 0.214935 0.307586 0.073281
H14   H     H_    0.963292 0.185679 0.443574 0.103496
H15   H     H_    0.194921 0.423466 0.186921 0.116161
H16   H     H_    0.051146 0.502779 0.146628 0.127720
H17   H     H_    0.090194 0.549053 0.262932 0.162010
H18   H     H_    0.082812 0.643241 0.613237 0.118214
H19   H     H_    0.180887 0.359715 0.385977 0.098640
H20   H     H_    0.753802 0.274113 0.853570 0.110018
H21   H     H_    0.841864 0.289726 0.004073 0.113101
H22   H     H_    0.454389 0.593904 0.170046 0.186805
H23   H     H_    0.181011 0.616362 0.814072 0.132276
H24   H     H_    0.110452 0.663654 0.998814 0.138359
N1    N     N_R   0.147940 0.499970 0.499970 -0.253649
N2    N     N_R   0.852060 0.500060 0.499990 -0.213201
O1    O     O_R   0.381250 0.680340 0.500010 -0.517788
O2    O     O_3   0.515634 0.871626 0.311311 -0.552828
O3    O     O_3   0.901797 0.341826 0.371478 -0.549740
O4    O     O_3   0.246345 0.603072 0.130393 -0.615194
O5    O     O_R   0.618820 0.680370 0.500010 -0.500317
O6    O     O_R   0.323240 0.499950 0.650980 -0.504421
O7    O     O_R   0.560810 0.499980 0.650980 -0.516760
O8    O     O_R   0.381180 0.319630 0.499990 -0.509283
O9    O     O_R   0.618750 0.319660 0.499990 -0.457138
O10   O     O_R   0.439190 0.500020 0.349020 -0.518908
O11   O     O_R   0.676760 0.500050 0.349020 -0.449717
O12   O     O_3   0.527441 0.131126 0.311797 -0.541682

loop_
_geom_bond_atom_site_label_1
_geom_bond_atom_site_label_2
_ccdc_geom_bond_type
Cu2   O7    S    
C4    O7    A    
C2    C4    S    
C23   C30   A    
C6    C7    A    
C3    C9    A    
C31   H22   S    
C24   H8    S    
C5    H12   S    
C25   H13   S    
C10   N2    A    
C19   C20   A    
C25   H14   S    
C30   H2    S    
C29   H20   S    
C22   H6    S    
C13   N1    A    
Cu1   Cu2   S    
C2    C19   A    
C16   O10   A    
C7    C8    A    
Cu1   N1    S    
C13   C14   A    
C19   H23   S    
Cu2   N2    S    
C24   H7    S    
C12   C23   A    
C3    H3    S    
C29   C30   A    
C16   O11   A    
Cu1   O10   S    
Cu1   O1    S    
C11   N1    A    
C15   O8    A    
C12   C21   A    
Cu2   O5    S    
C22   O12   S    
C28   C29   A    
Cu1   O6    S    
C13   H19   S    
C26   H16   S    
C27   C31   A    
C5    C6    A    
C15   O9    A    
C1    O5    A    
C18   C32   A    
C10   C11   A    
C14   O3    S    
C12   C27   A    
C10   H10   S    
C22   H4    S    
C32   H1    S    
C25   H11   S    
C7    O12   S    
C20   H24   S    
C14   N2    A    
C20   C21   A    
C4    O6    A    
C16   C18   S    
Cu2   O9    S    
C25   O3    S    
C26   H15   S    
C2    C23   A    
C24   H9    S    
C17   C32   A    
C17   H21   S    
C24   O2    S    
C8    C9    A    
C21   O4    S    
C26   O4    S    
C18   C31   A    
C3    C5    A    
C6    C15   S    
C26   H17   S    
C17   C28   A    
C22   H5    S    
Cu2   O11   S    
C1    C9    S    
Cu1   O8    S    
C8    O2    S    
C11   H18   S    
C27   C28   A    
C1    O1    A    
