data_mof_unit_23127.cif
_audit_creation_date              2012-12-11T20:30:25-0500
_audit_creation_method            fapswitch 2.2
_symmetry_space_group_name_H-M    P1
_symmetry_Int_Tables_number       1
_space_group_crystal_system       triclinic
_cell_length_a                    8.547664
_cell_length_b                    17.699584
_cell_length_c                    19.512682
_cell_angle_alpha                 103.434206
_cell_angle_beta                  94.437327
_cell_angle_gamma                 99.354732
_cell_volume                      2812.65208444

loop_
_atom_site_label
_atom_site_type_symbol
_atom_type_description
_atom_site_fract_x
_atom_site_fract_y
_atom_site_fract_z
_atom_type_partial_charge
Ba1   Ba    Ba6+2 0.853800 0.535410 0.467450 1.698145
Ba2   Ba    Ba6+2 0.336030 0.464660 0.532560 1.688349
C1    C     C_3   0.575613 0.802743 0.273065 -0.385329
C2    C     C_R   0.900562 0.417510 0.071959 -0.116647
C3    C     C_R   0.756100 0.368011 0.032502 0.364530
C4    C     C_3   0.130168 0.690369 0.284338 0.455587
C5    C     C_R   0.693533 0.385047 0.969068 0.359709
C6    C     C_R   0.790762 0.433545 0.936057 -0.051195
C7    C     C_R   0.947135 0.467558 0.966179 -0.033677
C8    C     C_R   0.733818 0.443259 0.870242 -0.061859
C9    C     C_R   0.832026 0.476006 0.827162 -0.061373
C10   C     C_R   0.994431 0.506105 0.853614 -0.000134
C11   C     C_R   0.048767 0.505578 0.925272 0.019550
C12   C     C_3   0.615363 0.744926 0.317586 0.792526
C13   C     C_R   0.770249 0.475802 0.757651 -0.027755
C14   C     C_R   0.876131 0.501508 0.712904 -0.292023
C15   C     C_R   0.039966 0.530630 0.734970 0.071577
C16   C     C_3   0.149883 0.717596 0.216429 0.290775
C17   C     C_R   0.099632 0.537303 0.809063 -0.027084
C18   C     C_R   0.152860 0.502949 0.069281 0.027108
C19   C     C_R   0.206197 0.501602 0.141375 -0.029951
C20   C     C_R   0.099087 0.463994 0.183542 -0.070682
C21   C     C_R   0.943096 0.423435 0.146964 0.447102
C22   C     C_R   0.256708 0.574068 0.842077 -0.037983
C23   C     C_3   0.481083 0.307285 0.302206 0.370865
C24   C     C_R   0.308435 0.575896 0.913976 0.011609
C25   C     C_R   0.203961 0.541068 0.956004 -0.005743
C26   C     C_R   0.255063 0.541587 0.028182 0.020539
C27   C     C_R   0.464784 0.610712 0.945450 -0.097943
C28   C     C_3   0.152850 0.730674 0.671214 0.638646
C29   C     C_R   0.514942 0.612181 0.015991 -0.100280
C30   C     C_R   0.411331 0.578032 0.058097 0.029709
C31   C     C_R   0.367306 0.539111 0.169894 -0.039085
C32   C     C_R   0.465453 0.576849 0.127838 -0.151133
C33   C     C_R   0.429365 0.535561 0.238978 -0.071727
C34   C     C_3   0.461407 0.257840 0.224914 0.340169
C35   C     C_R   0.326446 0.492714 0.276609 -0.252071
C36   C     C_R   0.157580 0.466743 0.258736 0.047860
C37   C     C_2   0.442149 0.722846 0.484323 0.265916
C38   C     C_3   0.362236 0.769968 0.440875 -0.026992
C39   C     C_2   0.415435 0.856978 0.467954 -0.151354
C40   C     C_3   0.175279 0.817121 0.716059 0.303052
C41   C     C_2   0.558139 0.886242 0.507899 0.046246
C42   C     C_2   0.644325 0.830056 0.537122 -0.132192
C43   C     C_1   0.581638 0.753517 0.524504 0.043435
C44   C     C_R   0.817175 0.133596 0.521637 -0.190641
C45   C     C_3   0.035615 0.286626 0.724877 0.291210
C46   C     C_R   0.875717 0.213808 0.532235 -0.019020
C47   C     C_R   0.620613 0.230950 0.473956 0.091064
C48   C     C_R   0.570486 0.147686 0.455530 0.347314
C49   C     C_R   0.664716 0.099668 0.483983 -0.009511
C50   C     C_2   0.631331 0.971341 0.520506 -0.120401
C51   C     C_2   0.603942 0.013735 0.472388 -0.094653
C52   C     C_3   0.894025 0.273613 0.315846 0.674819
C53   C     C_R   0.773485 0.261713 0.510453 -0.190546
C54   C     C_3   0.913875 0.185487 0.297934 0.273552
C55   C     C_3   0.745111 0.654989 0.691773 0.285813
C56   C     C_3   0.098232 0.298676 0.802324 -0.381983
C57   C     C_3   0.734425 0.680941 0.771205 -0.395632
C58   C     C_3   0.810765 0.851078 0.390249 0.213826
C59   C     C_3   0.439585 0.850452 0.774439 0.234104
C60   C     C_3   0.023588 0.305853 0.428223 0.207777
C61   C     C_3   0.132109 0.128809 0.264996 0.192369
C62   C     C_3   0.645086 0.189683 0.163778 0.137088
C63   C     C_3   0.739926 0.308750 0.658511 0.190536
C64   C     C_3   0.378069 0.099771 0.606482 0.088667
C65   C     C_3   0.404874 0.204686 0.813965 0.288474
C66   C     C_3   0.529129 0.269885 0.033053 0.237482
C67   C     C_3   0.491532 0.265634 0.684597 0.613096
C68   C     C_3   0.429237 0.392700 0.950067 0.068138
C69   C     C_3   0.687716 0.422773 0.177640 0.330741
C70   C     C_3   0.303607 0.096381 0.424155 0.143902
C71   C     C_3   0.373636 0.596902 0.422475 0.402872
C72   C     C_3   0.021297 0.720548 0.109049 0.185147
C73   C     C_3   0.397573 0.715397 0.639214 0.276077
C74   C     C_3   0.526726 0.190332 0.709402 0.638663
C75   C     C_R   0.999953 0.463491 0.036342 -0.091991
H1    H     H_    0.213209 0.859608 0.683616 0.004059
H2    H     H_    0.592390 0.352499 0.313218 -0.004660
H3    H     H_    0.239016 0.685928 0.188670 -0.032322
H4    H     H_    0.025975 0.346975 0.718314 0.015291
H5    H     H_    0.926437 0.240790 0.722845 0.032171
H6    H     H_    0.208251 0.345240 0.817068 0.124530
H7    H     H_    0.005896 0.320497 0.835846 0.094072
H8    H     H_    0.110180 0.240669 0.813088 0.090246
H9    H     H_    0.372419 0.250669 0.658908 0.124517
H10   H     H_    0.642244 0.176770 0.691380 0.008533
H11   H     H_    0.049180 0.632361 0.271917 0.100301
H12   H     H_    0.055521 0.827757 0.729225 0.006025
H13   H     H_    0.828032 0.500327 0.659720 0.038497
H14   H     H_    0.611376 0.421767 0.850944 0.151828
H15   H     H_    0.339760 0.602024 0.812232 0.111808
H16   H     H_    0.549248 0.636537 0.914752 0.068561
H17   H     H_    0.588018 0.603814 0.148037 0.107831
H18   H     H_    0.247321 0.679351 0.303039 -0.264791
H19   H     H_    0.380853 0.478857 0.322688 -0.017845
H20   H     H_    0.529250 0.984662 0.422932 0.119328
H21   H     H_    0.891824 0.097694 0.541641 0.074272
H22   H     H_    0.031122 0.714292 0.645721 0.033425
H23   H     H_    0.795483 0.147248 0.279592 0.057378
H24   H     H_    0.751753 0.900814 0.384931 -0.011696
H25   H     H_    0.895257 0.841467 0.350177 0.092082
H26   H     H_    0.879855 0.870461 0.443684 0.086072
H27   H     H_    0.493159 0.799211 0.780497 0.039986
H28   H     H_    0.502156 0.899473 0.819120 0.056622
H29   H     H_    0.467743 0.867945 0.724939 -0.003022
H30   H     H_    0.787070 0.279826 0.285270 0.040538
H31   H     H_    0.035399 0.356579 0.473756 0.144429
H32   H     H_    0.125080 0.319924 0.400547 0.110507
H33   H     H_    0.034630 0.250532 0.442047 0.010330
H34   H     H_    0.950114 0.166470 0.346212 -0.069007
H35   H     H_    0.074187 0.071481 0.273786 0.010709
H36   H     H_    0.210008 0.165293 0.313370 0.086512
H37   H     H_    0.208600 0.115299 0.222055 0.097263
H38   H     H_    0.655522 0.600414 0.668606 0.046994
H39   H     H_    0.685454 0.835539 0.258996 0.108398
H40   H     H_    0.606883 0.675553 0.780799 0.092901
H41   H     H_    0.498107 0.713980 0.324250 -0.080698
H42   H     H_    0.333370 0.232919 0.208106 0.055122
H43   H     H_    0.493350 0.296917 0.190483 -0.133123
H44   H     H_    0.706359 0.248683 0.160440 0.141486
H45   H     H_    0.864915 0.641555 0.684932 -0.014849
H46   H     H_    0.577895 0.153302 0.113199 0.057984
H47   H     H_    0.742195 0.157981 0.173117 0.088803
H48   H     H_    0.500586 0.769396 0.223085 0.065042
H49   H     H_    0.763977 0.326242 0.717540 -0.019727
H50   H     H_    0.789496 0.359137 0.636499 0.021813
H51   H     H_    0.797011 0.259222 0.641407 -0.021502
H52   H     H_    0.372328 0.035142 0.586703 0.083487
H53   H     H_    0.469732 0.130644 0.580371 0.024803
H54   H     H_    0.258054 0.112199 0.590847 0.088871
H55   H     H_    0.298516 0.162760 0.781051 0.064264
H56   H     H_    0.795829 0.743497 0.793068 0.134068
H57   H     H_    0.380437 0.265378 0.825933 0.103470
H58   H     H_    0.417275 0.186717 0.864726 0.043487
H59   H     H_    0.508042 0.230815 0.978816 0.093255
H60   H     H_    0.456841 0.316719 0.041240 0.019374
H61   H     H_    0.479264 0.233921 0.067556 0.004574
H62   H     H_    0.415522 0.430612 0.912651 0.070129
H63   H     H_    0.451946 0.429712 0.005809 0.025623
H64   H     H_    0.312620 0.352178 0.944363 0.062520
H65   H     H_    0.591094 0.382536 0.141952 0.004870
H66   H     H_    0.700879 0.476373 0.156101 -0.016077
H67   H     H_    0.792456 0.643560 0.799788 0.075706
H68   H     H_    0.638874 0.431985 0.228956 0.039595
H69   H     H_    0.636724 0.638877 0.037856 0.076096
H70   H     H_    0.756203 0.853658 0.571081 0.068016
H71   H     H_    0.709459 0.999394 0.569575 0.086020
H72   H     H_    0.345570 0.895147 0.448029 0.050313
H73   H     H_    0.257287 0.151759 0.439583 0.094624
H74   H     H_    0.307002 0.065785 0.467589 -0.011130
H75   H     H_    0.217614 0.056114 0.380313 0.036543
H76   H     H_    0.450704 0.555336 0.431543 0.087574
H77   H     H_    0.397823 0.623467 0.377558 -0.158816
H78   H     H_    0.507746 0.845167 0.303461 0.064946
H79   H     H_    0.261126 0.560073 0.402320 0.072692
H80   H     H_    0.813570 0.324879 0.522227 0.056625
H81   H     H_    0.910049 0.694271 0.071191 0.056087
H82   H     H_    0.122975 0.697658 0.083074 0.025775
H83   H     H_    0.038833 0.786570 0.118722 0.036275
H84   H     H_    0.197549 0.782575 0.230077 0.013675
H85   H     H_    0.402413 0.656963 0.607285 0.126081
H86   H     H_    0.485783 0.767822 0.638637 -0.030213
H87   H     H_    0.425422 0.705805 0.692086 0.027784
H88   H     H_    0.376429 0.336626 0.311414 -0.104789
O1    O     O_2   0.871520 0.445720 0.321500 -0.443979
O2    O     O_2   0.208153 0.234226 0.545600 -0.513347
O3    O     O_3   0.126580 0.251044 0.674056 -0.610876
O4    O     O_3   0.121030 0.451930 0.411150 -0.542473
O5    O     O_3   0.581210 0.598010 0.542960 -0.515447
O6    O     O_2   0.335820 0.303580 0.452320 -0.517506
O7    O     O_3   0.488692 0.254672 0.344585 -0.595987
O8    O     O_2   0.432888 0.474647 0.749490 -0.497041
O9    O     O_3   0.502665 0.334804 0.741378 -0.631587
O10   O     O_3   0.662190 0.593100 0.375060 -0.470502
O11   O     O_2   0.785858 0.560342 0.263016 -0.480496
O12   O     O_3   0.721923 0.717351 0.661623 -0.675737
O13   O     O_3   0.021319 0.320408 0.295290 -0.641562
O14   O     O_3   0.701582 0.691837 0.279181 -0.562838
O15   O     O_2   0.853880 0.696450 0.547730 -0.444957
O16   O     O_3   0.085100 0.636210 0.413950 -0.438476
O17   O     O_2   0.042872 0.779925 0.474591 -0.467269
O18   O     O_3   0.697435 0.781743 0.386192 -0.656015
O19   O     O_3   0.274853 0.832684 0.781397 -0.630464
O20   O     O_3   0.877493 0.299947 0.387972 -0.751284
O21   O     O_3   0.016719 0.170646 0.244501 -0.657325
O22   O     O_3   0.546420 0.193960 0.219010 -0.644777
O23   O     O_3   0.071728 0.746285 0.335562 -0.607608
O24   O     O_3   0.581116 0.278137 0.630024 -0.704293
O25   O     O_3   0.408809 0.120220 0.681285 -0.669735
O26   O     O_3   0.550737 0.204852 0.784130 -0.633254
O27   O     O_3   0.694779 0.299512 0.053830 -0.646513
O28   O     O_3   0.546613 0.345652 0.932800 -0.664238
O29   O     O_3   0.829603 0.391341 0.184127 -0.636946
O30   O     O_3   0.452473 0.111771 0.399174 -0.639207
O31   O     O_3   0.359538 0.650119 0.485729 -0.664451
O32   O     O_3   0.001443 0.697921 0.172871 -0.623733
O33   O     O_3   0.248288 0.727842 0.616530 -0.697650
O34   O     O_2   0.318180 0.554310 0.678550 -0.486889
O35   O     O_3   0.068680 0.548140 0.588860 -0.476350
O36   O     O_3   0.527520 0.406960 0.624950 -0.423656
O37   O     O_3   0.180691 0.678759 0.713677 -0.672544
O38   O     O_3   0.608500 0.402060 0.457050 -0.487014
O39   O     O_3   0.104610 0.363860 0.586060 -0.505681
P1    P     P_3+3 0.038810 0.422920 0.331160 1.014463
P2    P     P_3+3 0.678260 0.686080 0.568600 0.951728
P3    P     P_3+3 0.140003 0.736190 0.419597 1.048078
P4    P     P_3+3 0.150900 0.577150 0.668860 0.977392
P5    P     P_3+3 0.073826 0.263792 0.586950 0.899697
P6    P     P_3+3 0.637975 0.593898 0.286320 0.961507
P7    P     P_3+3 0.514164 0.299884 0.434968 1.023168
P8    P     P_3+3 0.557343 0.426874 0.718252 0.987307

loop_
_geom_bond_atom_site_label_1
_geom_bond_atom_site_label_2
_ccdc_geom_bond_type
C46   C53   A    
C55   O12   S    
C28   O33   S    
O23   P3    S    
C14   H13   S    
C43   P2    S    
C36   P1    S    
C68   H64   S    
C39   C41   D    
C66   H61   S    
C65   H55   S    
O7    P7    S    
C70   O30   S    
C12   O18   S    
C5    C6    A    
C55   H38   S    
C42   C43   D    
C68   H63   S    
C10   C11   A    
O14   P6    S    
C24   C25   A    
C35   C36   A    
C72   H82   S    
C73   H85   S    
Ba2   O35   S    
C63   H50   S    
O16   P3    S    
C33   P6    S    
C22   C24   A    
Ba1   Ba2   S    
C1    H39   S    
O4    P1    S    
Ba1   O15   S    
C58   H25   S    
C41   C50   S    
C55   C57   S    
C19   C31   A    
C66   O27   S    
C62   H44   S    
C20   C36   A    
O13   P1    S    
C4    O23   S    
Ba1   O5    S    
C42   H70   S    
C4    H11   S    
O12   P2    S    
C21   O29   S    
C67   C74   S    
C73   H86   S    
O17   P3    D    
O10   P6    S    
C61   H35   S    
C47   C48   A    
C34   H42   S    
C7    C11   A    
C31   C33   A    
C55   H45   S    
C29   H69   S    
C9    C13   A    
O11   P6    D    
C6    C7    A    
C12   H41   S    
C52   O20   S    
C71   H77   S    
O1    P1    D    
C5    O28   S    
C58   H26   S    
C59   H28   S    
C54   H34   S    
C12   O14   S    
Ba2   O6    S    
C37   C43   D    
C64   H52   S    
C70   H74   S    
C58   O18   S    
C44   H21   S    
C38   P3    S    
C68   H62   S    
O35   P4    S    
O37   P4    S    
C19   C20   A    
C61   H37   S    
O38   P7    S    
C66   H60   S    
Ba2   O36   S    
O15   P2    D    
C22   H15   S    
C10   C17   A    
C48   C49   A    
C52   C54   S    
C16   H84   S    
C4    C16   S    
C61   H36   S    
C44   C46   A    
C70   H75   S    
C72   H81   S    
Ba2   O34   S    
C63   H51   S    
C26   C30   A    
C65   H57   S    
Ba2   O39   S    
O2    P5    D    
C67   O24   S    
C37   C38   S    
C3    C5    A    
C2    C21   A    
Ba1   O16   S    
C14   C15   A    
C69   O29   S    
C18   C26   A    
C23   H88   S    
C47   C53   A    
C44   C49   A    
C57   H56   S    
C52   O13   S    
C35   H19   S    
C73   H87   S    
C49   C51   S    
C30   C32   A    
O39   P5    S    
C65   H58   S    
C41   C42   S    
C13   P8    S    
C59   H29   S    
C56   H7    S    
C39   H72   S    
O6    P7    D    
C48   O30   S    
C29   C30   A    
C60   H33   S    
C72   O32   S    
C66   H59   S    
C61   O21   S    
C47   P7    S    
C16   O32   S    
C1    H78   S    
C31   C32   A    
C7    C75   A    
C18   C19   A    
Ba1   P2    S    
C74   H10   S    
C1    C12   S    
Ba2   O5    S    
C69   H65   S    
C52   H30   S    
C23   O7    S    
C16   H3    S    
C38   C39   S    
C69   H68   S    
C63   O24   S    
C57   H67   S    
C40   H1    S    
C70   H73   S    
C60   O20   S    
O9    P8    S    
Ba1   O35   S    
Ba2   P4    S    
C67   O9    S    
C57   H40   S    
C58   H24   S    
Ba1   O38   S    
C56   H8    S    
Ba1   P1    S    
C50   C51   D    
C69   H66   S    
C64   H54   S    
C73   O33   S    
Ba1   O10   S    
C59   O19   S    
O36   P8    S    
C33   C35   A    
C50   H71   S    
O3    P5    S    
C45   H5    S    
C15   P4    S    
C28   C40   S    
Ba2   O38   S    
C32   H17   S    
C3    O27   S    
C54   O21   S    
C2    C3    A    
C23   H2    S    
C8    H14   S    
C9    C10   A    
C1    H48   S    
O5    P2    S    
C62   H46   S    
C37   O31   S    
C72   H83   S    
C34   O22   S    
C40   O19   S    
C63   H49   S    
C40   H12   S    
C17   C22   A    
C59   H27   S    
C2    C75   A    
C27   C29   A    
C74   O26   S    
C62   H47   S    
C56   H6    S    
C45   C56   S    
C27   H16   S    
C45   O3    S    
C60   H32   S    
Ba1   O1    S    
C68   O28   S    
C28   H22   S    
C71   H79   S    
Ba1   O4    S    
O34   P4    D    
C15   C17   A    
C51   H20   S    
C65   O26   S    
C45   H4    S    
C34   H43   S    
Ba2   O4    S    
C62   O22   S    
C74   O25   S    
C8    C9    A    
C64   O25   S    
C23   C34   S    
O8    P8    D    
C53   H80   S    
C28   O37   S    
C60   H31   S    
C46   P5    S    
C24   C27   A    
C6    C8    A    
C4    H18   S    
C71   O31   S    
C71   H76   S    
C25   C26   A    
C54   H23   S    
C20   C21   A    
C11   C25   A    
C18   C75   A    
C67   H9    S    
C13   C14   A    
C64   H53   S    
