data_mof_unit_34501.cif
_audit_creation_date              2012-12-10T20:35:47-0500
_audit_creation_method            fapswitch 2.2
_symmetry_space_group_name_H-M    P1
_symmetry_Int_Tables_number       1
_space_group_crystal_system       triclinic
_cell_length_a                    15.730311
_cell_length_b                    10.675327
_cell_length_c                    9.853448
_cell_angle_alpha                 89.99711
_cell_angle_beta                  90.290065
_cell_angle_gamma                 90.002981
_cell_volume                      1654.6310064

loop_
_atom_site_label
_atom_site_type_symbol
_atom_type_description
_atom_site_fract_x
_atom_site_fract_y
_atom_site_fract_z
_atom_type_partial_charge
C1    C     C_R   0.502598 0.259892 0.500073 0.875056
C2    C     C_3   0.951323 0.547118 0.635960 -0.434056
C3    C     C_3   0.917225 0.500608 0.496857 0.320515
C4    C     C_3   0.950321 0.591692 0.384256 -0.120757
C5    C     C_3   0.049120 0.588628 0.381873 -0.434481
C6    C     C_1   0.825771 0.499549 0.500000 -0.119501
C7    C     C_1   0.173969 0.501312 0.497289 -0.117995
C8    C     C_1   0.249312 0.500721 0.498597 -0.203071
C9    C     C_R   0.515368 0.063837 0.623514 0.139932
C10   C     C_R   0.516301 0.128538 0.500885 -0.103222
C11   C     C_R   0.533790 0.064776 0.379716 -0.231024
C12   C     C_R   0.338234 0.500069 0.499695 0.912952
C13   C     C_R   0.534000 0.935213 0.379733 -0.234431
C14   C     C_R   0.516652 0.871385 0.500903 -0.102062
C15   C     C_R   0.515609 0.936075 0.623543 0.123991
C16   C     C_3   0.454325 0.928693 0.738790 -0.476454
C17   C     C_3   0.453926 0.070696 0.738569 -0.493624
C18   C     C_R   0.458353 0.408147 0.070951 0.217516
C19   C     C_R   0.547657 0.583477 0.072416 -0.125482
C20   C     C_R   0.547659 0.583498 0.928332 -0.140398
C21   C     C_R   0.458285 0.408223 0.928338 0.219453
C22   C     C_3   0.365446 0.380478 0.922094 -0.519189
C23   C     C_R   0.502792 0.740077 0.500029 0.874319
C24   C     C_3   0.365615 0.380085 0.076185 -0.514349
C25   C     C_R   0.661710 0.499805 0.500275 0.903651
C26   C     C_3   0.049411 0.549200 0.634850 -0.393904
C27   C     C_3   0.049158 0.367080 0.471515 -0.407795
C28   C     C_3   0.951099 0.365911 0.474719 -0.398381
C29   C     C_1   0.750506 0.499449 0.500872 -0.184310
C30   C     C_3   0.082522 0.501668 0.496279 0.348672
H1    H     H_    0.929011 0.484405 0.718717 0.175895
H2    H     H_    0.072286 0.646343 0.653902 0.167196
H3    H     H_    0.926820 0.642713 0.658401 0.166815
H4    H     H_    0.541314 0.113843 0.284276 0.170771
H5    H     H_    0.541668 0.886164 0.284314 0.165626
H6    H     H_    0.392222 0.886931 0.708816 0.203145
H7    H     H_    0.483879 0.887916 0.831523 0.201178
H8    H     H_    0.391634 0.111507 0.708109 0.196411
H9    H     H_    0.483068 0.112082 0.831307 0.203292
H10   H     H_    0.584762 0.652430 0.127162 0.139041
H11   H     H_    0.074203 0.489055 0.718471 0.171501
H12   H     H_    0.584767 0.652475 0.874219 0.141271
H13   H     H_    0.327810 0.458692 0.877713 0.222804
H14   H     H_    0.352182 0.286902 0.877448 0.195896
H15   H     H_    0.327968 0.457934 0.120679 0.222269
H16   H     H_    0.352801 0.286175 0.120317 0.199515
H17   H     H_    0.071682 0.331568 0.371811 0.161316
H18   H     H_    0.074293 0.302638 0.551003 0.168006
H19   H     H_    0.929596 0.304186 0.558953 0.166382
H20   H     H_    0.925074 0.324487 0.379920 0.170671
H21   H     H_    0.074099 0.685233 0.397382 0.155447
H22   H     H_    0.074110 0.556946 0.282328 0.167428
H23   H     H_    0.932771 0.688081 0.417635 0.115970
N1    N     N_R   0.499430 0.499140 0.142800 -0.105228
N2    N     N_R   0.499430 0.499180 0.857150 -0.104026
O1    O     O_R   0.500010 0.316790 0.614690 -0.615930
O2    O     O_R   0.500000 0.316760 0.385350 -0.623699
O3    O     O_R   0.377150 0.500020 0.614720 -0.616879
O4    O     O_R   0.377140 0.499990 0.385380 -0.613815
O5    O     O_R   0.500000 0.683240 0.614650 -0.620425
O6    O     O_R   0.499990 0.683210 0.385310 -0.626338
O7    O     O_R   0.622860 0.500010 0.614620 -0.621202
O8    O     O_R   0.622850 0.499980 0.385280 -0.609371
Zn1   Zn    Zn3+2 0.500010 0.500020 0.653130 0.939054
Zn2   Zn    Zn3+2 0.499990 0.499980 0.346870 0.943674
C31   C     C_R   0.909265 0.571841 0.244656 0.147120
C32   C     C_R   0.843378 0.652530 0.202155 -0.156988
C33   C     C_R   0.803137 0.635284 0.076686 -0.120991
C34   C     C_R   0.828256 0.537808 0.991479 -0.113669
C35   C     C_R   0.893613 0.457295 0.031700 -0.154741
C36   C     C_R   0.933848 0.473755 0.157338 -0.148833
H24   H     H_    0.822271 0.728230 0.266919 0.110928
H25   H     H_    0.752290 0.697481 0.045637 0.113548
H26   H     H_    0.797076 0.524669 0.894310 0.128759
H27   H     H_    0.913147 0.381829 0.965456 0.120966
H28   H     H_    0.984351 0.410022 0.185086 0.118667

loop_
_geom_bond_atom_site_label_1
_geom_bond_atom_site_label_2
_ccdc_geom_bond_type
C27   H18   S    
O8    Zn2   S    
C26   H2    S    
C4    H23   S    
C18   C21   A    
C19   C20   A    
C3    C6    S    
C7    C8    T    
N1    Zn2   S    
C18   C24   S    
C24   H15   S    
C3    C28   S    
C1    O1    A    
C13   H5    S    
C25   O8    A    
C36   H28   S    
C15   C16   S    
C32   H24   S    
C17   H9    S    
O7    Zn1   S    
C12   O4    A    
C28   H20   S    
C22   H14   S    
C22   H13   S    
C16   C17   S    
O1    Zn1   S    
C5    H22   S    
C35   C36   A    
C9    C10   A    
C16   H7    S    
C17   H8    S    
C12   O3    A    
C31   C32   A    
C7    C30   S    
C21   C22   S    
C27   C30   S    
O3    Zn1   S    
C20   N2    A    
C25   C29   S    
C23   O5    A    
C32   C33   A    
C10   C11   A    
C21   N2    A    
C33   C34   A    
C33   H25   S    
C2    H1    S    
C14   C23   S    
C1    O2    A    
C28   H19   S    
C31   C36   A    
C8    C12   S    
N2    Zn1   S    
C34   H26   S    
C2    C26   S    
C2    H3    S    
C9    C17   S    
C26   C30   S    
C22   C24   S    
C3    C4    S    
C35   H27   S    
C19   N1    A    
C5    C30   S    
C27   H17   S    
C11   H4    S    
C1    C10   S    
O2    Zn2   S    
C4    C5    S    
C20   H12   S    
O5    Zn1   S    
C24   H16   S    
C2    C3    S    
C9    C15   A    
C16   H6    S    
C4    C31   S    
C11   C13   A    
C25   O7    A    
C34   C35   A    
C19   H10   S    
C18   N1    A    
O6    Zn2   S    
C23   O6    A    
C6    C29   T    
C27   C28   S    
C14   C15   A    
C5    H21   S    
C13   C14   A    
O4    Zn2   S    
C26   H11   S    
