data_mof_unit_9973.cif
_audit_creation_date              2012-12-11T16:35:20-0500
_audit_creation_method            fapswitch 2.2
_symmetry_space_group_name_H-M    P1
_symmetry_Int_Tables_number       1
_space_group_crystal_system       triclinic
_cell_length_a                    6.933139
_cell_length_b                    17.690814
_cell_length_c                    19.48655
_cell_angle_alpha                 109.07051
_cell_angle_beta                  90.697315
_cell_angle_gamma                 90.376258
_cell_volume                      2258.59912688

loop_
_atom_site_label
_atom_site_type_symbol
_atom_type_description
_atom_site_fract_x
_atom_site_fract_y
_atom_site_fract_z
_atom_type_partial_charge
O1    O     O_R   0.505700 0.440210 0.561730 -0.535787
O2    O     O_R   0.169350 0.406300 0.412660 -0.539767
O3    O     O_R   0.005650 0.559790 0.438270 -0.540981
C1    C     C_R   0.337822 0.383416 0.384670 0.689799
O4    O     O_R   0.175560 0.430650 0.559600 -0.534270
O5    O     O_R   0.011900 0.584320 0.586250 -0.535608
C2    C     C_R   0.345421 0.416348 0.581306 0.684934
O6    O     O_R   0.499450 0.415680 0.413750 -0.534802
O7    O     O_3   0.341370 0.550390 0.508570 -0.371852
V1    V     V_3+5 0.063940 0.490650 0.498410 1.439736
O8    O     O_R   0.682570 0.593700 0.587340 -0.539565
C3    C     C_R   0.852647 0.616392 0.615015 0.695290
O9    O     O_R   0.676370 0.569350 0.440400 -0.548906
C4    C     C_R   0.844835 0.584261 0.418702 0.679568
V2    V     V_3+5 0.564750 0.509350 0.501590 1.424532
O10   O     O_3   0.837190 0.449610 0.491430 -0.362334
C5    C     C_R   0.038140 0.680713 0.285038 -0.148339
H1    H     H_    0.170818 0.679315 0.255973 0.101507
C6    C     C_R   0.026606 0.635532 0.331924 -0.153567
H2    H     H_    0.151474 0.601669 0.338044 0.117223
C7    C     C_R   0.855761 0.632988 0.369395 -0.051112
C8    C     C_R   0.696733 0.677055 0.358867 -0.177172
H3    H     H_    0.563206 0.676762 0.387064 0.121856
C9    C     C_R   0.709031 0.723158 0.312634 -0.143958
H4    H     H_    0.584895 0.757782 0.307459 0.101423
C10   C     C_R   0.879904 0.725581 0.274814 0.089314
C11   C     C_R   0.730088 0.784572 0.185056 -0.147493
H5    H     H_    0.593277 0.756542 0.188937 0.100281
C12   C     C_R   0.741790 0.830274 0.138600 -0.161504
H6    H     H_    0.613110 0.836920 0.109099 0.121817
C13   C     C_R   0.917325 0.865999 0.129594 -0.048310
C14   C     C_R   0.080821 0.855185 0.168578 -0.171674
H7    H     H_    0.217822 0.882526 0.163524 0.113774
C15   C     C_R   0.068543 0.810417 0.215926 -0.146531
H8    H     H_    0.196557 0.805400 0.246419 0.099106
C16   C     C_R   0.892990 0.774166 0.224783 0.092141
H9    H     H_    0.089631 0.634547 0.927891 0.111622
C17   C     C_R   0.763789 0.903200 0.752749 -0.148621
C18   C     C_R   0.698174 0.915855 0.689584 -0.083948
C19   C     C_R   0.693469 0.853119 0.624261 -0.127167
C20   C     C_R   0.750808 0.777033 0.622004 -0.136743
C21   C     C_R   0.814721 0.762181 0.685690 0.076557
C22   C     C_R   0.826714 0.827062 0.752076 0.048670
C23   C     C_R   0.866359 0.684299 0.684024 -0.177152
C24   C     C_R   0.928224 0.671103 0.748825 0.029480
C25   C     C_R   0.949900 0.736683 0.814373 0.077485
C26   C     C_R   0.901684 0.815014 0.815879 -0.183622
C27   C     C_R   0.962365 0.592750 0.750143 -0.143390
C28   C     C_R   0.018119 0.579010 0.814399 0.031481
C29   C     C_R   0.045831 0.643986 0.877769 -0.215756
C30   C     C_R   0.011718 0.721612 0.878052 -0.135043
H10   H     H_    0.763001 0.953682 0.802061 0.156518
H11   H     H_    0.651431 0.974746 0.691369 0.144273
H12   H     H_    0.643992 0.863290 0.575131 0.118636
H13   H     H_    0.744239 0.730245 0.569810 0.103017
H14   H     H_    0.941681 0.541465 0.701668 0.143775
H15   H     H_    0.029810 0.769286 0.929307 0.111420
H16   H     H_    0.589484 0.481849 0.195231 0.118887
C31   C     C_R   0.226898 0.220334 0.372154 -0.143195
C32   C     C_R   0.182904 0.142418 0.369357 -0.119226
C33   C     C_R   0.217100 0.078696 0.306664 -0.123226
C34   C     C_R   0.295545 0.092380 0.246251 -0.135759
C35   C     C_R   0.339860 0.170921 0.246973 0.073690
C36   C     C_R   0.304876 0.236341 0.311488 0.069915
C37   C     C_R   0.420965 0.184425 0.185222 -0.187965
C38   C     C_R   0.467692 0.263722 0.188520 0.068367
C39   C     C_R   0.433066 0.329132 0.253099 0.073146
C40   C     C_R   0.351862 0.315626 0.314838 -0.186429
C41   C     C_R   0.545010 0.279763 0.127752 -0.139480
C42   C     C_R   0.589444 0.357678 0.130647 -0.119234
C43   C     C_R   0.555997 0.421361 0.193454 -0.125295
C44   C     C_R   0.477677 0.407668 0.253879 -0.137645
H17   H     H_    0.199323 0.267602 0.422465 0.105504
H18   H     H_    0.123022 0.131416 0.416314 0.116841
H19   H     H_    0.183971 0.018205 0.304959 0.119693
H20   H     H_    0.323097 0.040520 0.199434 0.100716
H21   H     H_    0.571582 0.232564 0.077253 0.106758
H22   H     H_    0.649033 0.368721 0.083665 0.113628
H23   H     H_    0.450506 0.459531 0.300751 0.102367
C45   C     C_R   0.434585 0.357135 0.748875 -0.041385
H24   H     H_    0.474822 0.386341 0.805283 0.093053
C46   C     C_R   0.421624 0.403027 0.702359 -0.089220
H25   H     H_    0.455192 0.466426 0.723366 0.094915
C47   C     C_R   0.359655 0.367876 0.629931 -0.021160
C48   C     C_R   0.321733 0.285489 0.603414 -0.139690
H26   H     H_    0.279625 0.256858 0.547117 0.091595
C49   C     C_R   0.341166 0.239130 0.649127 -0.086304
H27   H     H_    0.314385 0.175328 0.626795 0.102862
C50   C     C_R   0.390297 0.274807 0.723216 0.121367
C51   C     C_R   0.236286 0.173496 0.774334 -0.021125
C52   C     C_R   0.249874 0.123766 0.818784 -0.080125
C53   C     C_R   0.412330 0.130291 0.866025 -0.140829
C54   C     C_R   0.558869 0.185588 0.866482 -0.095850
H28   H     H_    0.682015 0.193391 0.902956 0.153518
C55   C     C_R   0.548898 0.232294 0.820889 -0.127933
H29   H     H_    0.667026 0.273085 0.822185 0.163452
C56   C     C_R   0.390519 0.226512 0.773766 -0.029670
O11   O     O_R   0.273230 0.084330 0.086440 -0.534500
O12   O     O_R   0.596660 0.069390 0.940470 -0.528577
O13   O     O_R   0.760270 0.915710 0.913690 -0.536775
C57   C     C_R   0.426691 0.082891 0.917351 0.679866
O14   O     O_R   0.603330 0.093680 0.087390 -0.538917
O15   O     O_R   0.766990 0.940160 0.061660 -0.541023
C58   C     C_R   0.434914 0.116622 0.115412 0.695238
O16   O     O_R   0.266510 0.059870 0.938470 -0.541096
O17   O     O_3   0.431050 0.949630 0.991510 -0.373052
V3    V     V_3+5 0.708490 0.009340 0.001580 1.442185
O18   O     O_R   0.096270 0.930570 0.059390 -0.548099
C59   C     C_R   0.927849 0.915385 0.080889 0.680010
O19   O     O_R   0.089600 0.906290 0.912460 -0.542585
C60   C     C_R   0.918934 0.883525 0.884716 0.690178
V4    V     V_3+5 0.207670 0.990600 0.998190 1.420752
O20   O     O_3   0.935250 0.050360 0.008480 -0.359406
C61   C     C_2   0.043303 0.496877 0.816627 0.342710
H30   H     H_    0.099099 0.487646 0.865541 0.041579
O21   O     O_2   0.999607 0.438607 0.764450 -0.512916
C62   C     C_2   0.059280 0.171122 0.729580 0.791983
O22   O     O_2   0.977272 0.233282 0.733221 -0.544093
O23   O     O_R   0.988191 0.098058 0.682770 -0.664092
H31   H     H_    0.866862 0.104373 0.655667 0.291469
C63   C     C_2   0.094355 0.064882 0.815659 0.425952
H32   H     H_    0.129963 0.003698 0.810721 0.031508
O24   O     O_2   0.925939 0.085136 0.821140 -0.548091

loop_
_geom_bond_atom_site_label_1
_geom_bond_atom_site_label_2
_ccdc_geom_bond_type
C49   H27   S    
C35   C37   A    
C54   H28   S    
C11   C12   A    
C20   C21   A    
C41   H21   S    
C6    H2    S    
C1    O6    A    
C61   H30   S    
O17   V4    S    
C48   H26   S    
C33   H19   S    
C31   C36   A    
C34   C35   A    
C5    C10   A    
C36   C40   A    
C4    C7    S    
C6    C7    A    
C9    C10   A    
C39   C44   A    
C44   H23   S    
C62   O23   S    
O5    C3    A    
C17   C18   A    
C26   C60   S    
H16   C43   S    
C38   C41   A    
C42   H22   S    
O17   V3    S    
V2    O10   S    
O18   C59   A    
C15   H8    S    
C45   C50   A    
C28   C29   A    
O19   C60   A    
C20   H13   S    
O8    V2    S    
V3    O20   S    
C55   H29   S    
C42   C43   A    
C30   H15   S    
O7    V1    S    
C31   H17   S    
C51   C56   A    
C2    C47   S    
C31   C32   A    
C54   C55   A    
O9    C4    A    
C34   H20   S    
C41   C42   A    
C21   C23   A    
V4    O20   S    
C29   C30   A    
C48   C49   A    
C57   O16   A    
O11   V4    S    
C39   C40   A    
C51   C62   S    
C38   C39   A    
C9    H4    S    
C45   C46   A    
C52   C53   A    
C1    C40   S    
C24   C25   A    
C25   C30   A    
O18   V4    S    
C50   C56   S    
C32   C33   A    
C14   C15   A    
O2    C1    A    
C12   H6    S    
C13   C14   A    
O23   H31   S    
C5    H1    S    
C13   C59   S    
O14   V3    S    
C47   C48   A    
O14   C58   A    
C63   H32   S    
O3    C4    A    
C53   C57   S    
O1    V2    S    
C10   C16   S    
C19   C20   A    
O12   C57   A    
O16   V4    S    
C37   C38   A    
O6    V2    S    
C19   H12   S    
C49   C50   A    
C8    C9    A    
C21   C22   A    
O2    V1    S    
C18   C19   A    
C23   C24   A    
O4    C2    A    
C24   C27   A    
C27   H14   S    
C25   C26   A    
C27   C28   A    
O13   V3    S    
O1    C2    A    
C45   H24   S    
O5    V1    S    
C61   O21   D    
O8    C3    A    
C55   C56   A    
C11   C16   A    
O12   V3    S    
C46   C47   A    
O15   C59   A    
C14   H7    S    
O9    V2    S    
O7    V2    S    
C17   C22   A    
C12   C13   A    
O3    V1    S    
V1    O10   S    
C62   O22   D    
H9    C29   S    
C51   C52   A    
C18   H11   S    
O11   C58   A    
C32   H18   S    
C53   C54   A    
C5    C6    A    
C28   C61   S    
C15   C16   A    
C33   C34   A    
O19   V4    S    
C63   O24   D    
C35   C36   A    
O4    V1    S    
C17   H10   S    
O13   C60   A    
C3    C23   S    
C46   H25   S    
C52   C63   S    
C11   H5    S    
C8    H3    S    
O15   V3    S    
C37   C58   S    
C43   C44   A    
C7    C8    A    
C22   C26   A    
