data_mof_unit_17045.cif
_audit_creation_date              2012-10-26T19:52:25-0400
_audit_creation_method            fapswitch 2.2
_symmetry_space_group_name_H-M    P1
_symmetry_Int_Tables_number       1
_space_group_crystal_system       triclinic
_cell_length_a                    9.577443
_cell_length_b                    10.82155
_cell_length_c                    13.379006
_cell_angle_alpha                 90.326864
_cell_angle_beta                  73.372539
_cell_angle_gamma                 90.182222
_cell_volume                      1328.63250366

loop_
_atom_site_label
_atom_site_type_symbol
_atom_type_description
_atom_site_fract_x
_atom_site_fract_y
_atom_site_fract_z
_atom_type_partial_charge
C1    C     C_R   0.499256 0.737560 0.502446 0.546758
C2    C     C_R   0.384110 0.444055 0.809252 0.008406
C3    C     C_R   0.369249 0.935852 0.515001 0.021594
C4    C     C_R   0.424012 0.482207 0.698295 0.568630
C5    C     C_R   0.495302 0.870698 0.513529 0.007360
C6    C     C_R   0.615889 0.936088 0.526864 -0.161965
C7    C     C_R   0.615838 0.064984 0.526484 -0.141983
C8    C     C_R   0.495272 0.129229 0.512636 0.012032
C9    C     C_R   0.369363 0.063064 0.514276 0.027451
C10   C     C_3   0.276793 0.067683 0.441551 -0.273301
C11   C     C_3   0.275696 0.927505 0.443065 -0.266307
C12   C     C_R   0.446899 0.429156 0.973436 -0.022150
C13   C     C_R   0.942486 0.402986 0.458072 0.191782
C14   C     C_R   0.905827 0.589414 0.550536 -0.006973
C15   C     C_R   0.054450 0.589424 0.550547 -0.029383
C16   C     C_R   0.499210 0.262362 0.501865 0.555030
C17   C     C_R   0.090051 0.403468 0.457307 0.164560
C18   C     C_3   0.136997 0.363228 0.345953 -0.288909
C19   C     C_3   0.978158 0.359107 0.348157 -0.286986
C20   C     C_R   0.577745 0.500703 0.299780 0.539027
C21   C     C_R   0.808022 0.485734 0.019172 -0.115040
C22   C     C_R   0.622390 0.493407 0.185237 -0.000171
C23   C     C_R   0.490817 0.424956 0.863178 0.018112
C24   C     C_R   0.236666 0.429562 0.864211 -0.141657
C25   C     C_R   0.195822 0.404589 0.970592 -0.138618
C26   C     C_R   0.298107 0.410469 0.025855 -0.112546
C27   C     C_R   0.553942 0.449637 0.026302 -0.014981
C28   C     C_R   0.703304 0.452478 0.968923 0.034175
C29   C     C_R   0.745101 0.418077 0.863336 0.101669
C30   C     C_R   0.638607 0.398494 0.812379 0.381290
C31   C     C_R   0.516289 0.473163 0.133836 -0.122889
C32   C     C_R   0.768679 0.503217 0.126869 -0.148155
Cu1   Cu    Cu3+1 0.359330 0.500020 0.500010 0.938541
Cu2   Cu    Cu3+1 0.640670 0.499980 0.499990 0.993490
F1    F     F_    0.678766 0.339213 0.718684 -0.631378
H1    H     H_    0.852408 0.524674 0.164103 0.116966
H2    H     H_    0.189814 0.271238 0.334397 0.119661
H3    H     H_    0.950856 0.427482 0.295135 0.143789
H4    H     H_    0.937223 0.263880 0.342333 0.124783
H5    H     H_    0.920010 0.499412 0.974716 0.139620
H6    H     H_    0.404431 0.477933 0.178858 0.114874
H7    H     H_    0.153492 0.435623 0.824510 0.162916
H8    H     H_    0.258608 0.394981 0.108652 0.099700
H9    H     H_    0.084151 0.383580 0.011913 0.119672
H10   H     H_    0.712650 0.888359 0.532330 0.128473
H11   H     H_    0.922554 0.456504 0.743395 0.250058
H12   H     H_    0.712558 0.113520 0.531831 0.159094
H13   H     H_    0.908528 0.307240 0.781981 0.269580
H14   H     H_    0.168059 0.108928 0.478902 0.142139
H15   H     H_    0.336172 0.106219 0.364144 0.130574
H16   H     H_    0.166566 0.887862 0.482018 0.132918
H17   H     H_    0.333017 0.885042 0.366459 0.142899
H18   H     H_    0.834874 0.662992 0.590173 0.111606
H19   H     H_    0.094184 0.662945 0.590278 0.119211
H20   H     H_    0.197236 0.437233 0.294719 0.137606
N1    N     N_R   0.852320 0.499070 0.499340 -0.210763
N2    N     N_R   0.148230 0.499110 0.499340 -0.233673
N3    N     N_3   0.895475 0.398749 0.808458 -0.654512
O1    O     O_R   0.381190 0.680360 0.500000 -0.504881
O2    O     O_R   0.618780 0.680320 0.499990 -0.519828
O3    O     O_R   0.323230 0.500000 0.650990 -0.515864
O4    O     O_R   0.560820 0.499960 0.650980 -0.435321
O5    O     O_R   0.381220 0.319680 0.500010 -0.503268
O6    O     O_R   0.618810 0.319640 0.500000 -0.472513
O7    O     O_R   0.439180 0.500040 0.349020 -0.509809
O8    O     O_R   0.676770 0.500000 0.349010 -0.512222

loop_
_geom_bond_atom_site_label_1
_geom_bond_atom_site_label_2
_ccdc_geom_bond_type
C14   N1    A    
C23   C30   A    
C4    O3    A    
H13   N3    S    
C6    C7    A    
C3    C9    A    
C19   H3    S    
C24   H7    S    
C9    C10   S    
C2    C4    S    
Cu2   O2    S    
C13   C17   A    
Cu1   O5    S    
C13   N1    A    
C22   C31   A    
Cu2   O8    S    
Cu2   O6    S    
C17   C18   S    
Cu1   O7    S    
C7    C8    A    
Cu1   O1    S    
C31   H6    S    
H11   N3    S    
Cu2   N1    S    
C15   N2    A    
C12   C23   A    
C29   C30   A    
C21   H5    S    
C22   C32   A    
C30   F1    S    
C1    C5    S    
C32   H1    S    
C25   H9    S    
C20   O8    A    
C28   C29   A    
C16   O5    A    
C21   C28   A    
C20   C22   S    
C26   H8    S    
Cu1   Cu2   S    
C18   H20   S    
C2    C23   A    
C1    O1    A    
C2    C24   A    
C5    C6    A    
C21   C32   A    
C11   H16   S    
C10   C11   S    
C13   C19   S    
C19   H4    S    
C27   C31   A    
C10   H15   S    
C15   H19   S    
C4    O4    A    
C20   O7    A    
Cu2   O4    S    
C14   H18   S    
C3    C11   S    
C24   C25   A    
Cu1   O3    S    
C18   C19   S    
C8    C16   S    
C1    O2    A    
C17   N2    A    
C27   C28   A    
C12   C27   A    
Cu1   N2    S    
C11   H17   S    
C16   O6    A    
C25   C26   A    
C14   C15   A    
C10   H14   S    
C6    H10   S    
C18   H2    S    
C29   N3    S    
C12   C26   A    
C8    C9    A    
C3    C5    A    
C7    H12   S    
