data_mof_unit_60520.cif
_audit_creation_date              2012-10-26T20:23:21-0400
_audit_creation_method            fapswitch 2.2
_symmetry_space_group_name_H-M    P1
_symmetry_Int_Tables_number       1
_space_group_crystal_system       triclinic
_cell_length_a                    10.661276
_cell_length_b                    12.763054
_cell_length_c                    13.916876
_cell_angle_alpha                 97.9771
_cell_angle_beta                  90.188424
_cell_angle_gamma                 93.276373
_cell_volume                      1872.16564254

loop_
_atom_site_label
_atom_site_type_symbol
_atom_type_description
_atom_site_fract_x
_atom_site_fract_y
_atom_site_fract_z
_atom_type_partial_charge
C1    C     C_R   0.498666 0.483534 0.315922 0.553390
C2    C     C_3   0.965691 0.601194 0.504844 -0.127169
C3    C     C_3   0.954213 0.441585 0.417104 -0.148894
C4    C     C_3   0.045787 0.558415 0.582896 -0.148895
C5    C     C_3   0.877268 0.500255 0.499111 0.034115
C6    C     C_3   0.122732 0.499745 0.500889 0.034114
C7    C     C_3   0.956333 0.458678 0.575270 0.229851
C8    C     C_3   0.043667 0.541322 0.424730 0.229854
C9    C     C_1   0.502000 0.525999 0.787246 0.008587
C10   C     C_1   0.498000 0.474001 0.212754 0.008587
C11   C     C_2   0.503154 0.544114 0.978685 0.289849
C12   C     C_R   0.501334 0.516466 0.684077 0.553390
C13   C     C_2   0.496846 0.455886 0.021315 0.289848
C14   C     C_1   0.497425 0.465268 0.125809 0.015991
C15   C     C_1   0.502575 0.534732 0.874191 0.015991
C16   C     C_2   0.462866 0.027373 0.473435 0.251401
C17   C     C_2   0.537134 0.972627 0.526565 0.251401
C18   C     C_1   0.526096 0.854587 0.519119 0.200571
C19   C     C_1   0.473904 0.145413 0.480881 0.200571
C20   C     C_R   0.259033 0.500142 0.500170 0.578338
C21   C     C_R   0.740967 0.499858 0.499830 0.578338
C22   C     C_3   0.034308 0.398806 0.495156 -0.127171
Cu1   Cu    Cu3+1 0.491940 0.395330 0.493960 1.052668
Cu2   Cu    Cu3+1 0.508060 0.604670 0.506040 1.052668
H1    H     H_    0.914980 0.395889 0.348882 0.129410
H2    H     H_    0.329031 0.021776 0.378227 0.326970
H3    H     H_    0.085019 0.604111 0.651117 0.129410
H4    H     H_    0.063824 0.316536 0.493299 0.145319
H5    H     H_    0.936176 0.683464 0.506701 0.145319
H6    H     H_    0.978473 0.395349 0.690669 0.331175
H7    H     H_    0.021529 0.604650 0.309328 0.331176
H8    H     H_    0.485988 0.302543 0.009620 0.330911
H9    H     H_    0.514012 0.697457 0.990380 0.330911
H10   H     H_    0.670969 0.978224 0.621773 0.326970
N1    N     N_1   0.479830 0.238040 0.484880 -0.191578
N2    N     N_1   0.520170 0.761960 0.515120 -0.191578
O1    O     O_R   0.492210 0.399110 0.356330 -0.508222
O2    O     O_3   0.094628 0.584834 0.345656 -0.655384
O3    O     O_3   0.489903 0.357238 0.965361 -0.696450
O4    O     O_3   0.510097 0.642762 0.034639 -0.696450
O5    O     O_3   0.625376 0.029300 0.589163 -0.700224
O6    O     O_3   0.374624 0.970700 0.410837 -0.700224
O7    O     O_R   0.507790 0.600890 0.643670 -0.508222
O8    O     O_R   0.505820 0.575890 0.366540 -0.466611
O9    O     O_R   0.494180 0.424110 0.633460 -0.466611
O10   O     O_R   0.310050 0.411620 0.494870 -0.518949
O11   O     O_R   0.689950 0.588380 0.505130 -0.518949
O12   O     O_R   0.323660 0.588400 0.505080 -0.465067
O13   O     O_R   0.676340 0.411600 0.494920 -0.465067
O14   O     O_3   0.905372 0.415165 0.654344 -0.655382

loop_
_geom_bond_atom_site_label_1
_geom_bond_atom_site_label_2
_ccdc_geom_bond_type
C2    C4    S    
Cu1   Cu2   S    
Cu1   O9    S    
C7    C22   S    
C6    C20   S    
C1    O8    A    
H7    O2    S    
C1    O1    A    
C11   C15   S    
C21   O13   A    
C17   C18   S    
C9    C15   T    
C5    C21   S    
Cu1   O10   S    
C22   H4    S    
C13   C14   S    
C11   C13   D    
Cu2   N2    S    
H10   O5    S    
C8    O2    S    
C16   C19   S    
C6    C8    S    
C12   O7    A    
Cu1   N1    S    
C4    C7    S    
H6    O14   S    
C11   O4    S    
Cu2   O8    S    
C9    C12   S    
C17   O5    S    
C13   O3    S    
H9    O4    S    
Cu1   O13   S    
C2    C5    S    
C16   O6    S    
C3    H1    S    
C4    H3    S    
C2    H5    S    
H2    O6    S    
C4    C6    S    
C3    C8    S    
C10   C14   T    
H8    O3    S    
C2    C8    S    
C5    C7    S    
Cu2   O7    S    
C12   O9    A    
C3    C22   S    
C19   N1    T    
C6    C22   S    
C20   O12   A    
C3    C5    S    
Cu1   O1    S    
Cu2   O11   S    
C18   N2    T    
C20   O10   A    
C1    C10   S    
C7    O14   S    
C16   C17   D    
C21   O11   A    
Cu2   O12   S    
