data_mof_unit_55471.cif
_audit_creation_date              2012-12-10T19:45:14-0500
_audit_creation_method            fapswitch 2.2
_symmetry_space_group_name_H-M    P1
_symmetry_Int_Tables_number       1
_space_group_crystal_system       triclinic
_cell_length_a                    14.994805
_cell_length_b                    14.159161
_cell_length_c                    10.626247
_cell_angle_alpha                 88.187805
_cell_angle_beta                  89.606011
_cell_angle_gamma                 89.266226
_cell_volume                      2254.73892567

loop_
_atom_site_label
_atom_site_type_symbol
_atom_type_description
_atom_site_fract_x
_atom_site_fract_y
_atom_site_fract_z
_atom_type_partial_charge
C1    C     C_R   0.327928 0.500440 0.499245 0.919506
C2    C     C_R   0.672791 0.499631 0.500695 0.916311
C3    C     C_R   0.048991 0.509685 0.481707 -0.029826
C4    C     C_R   0.953188 0.507262 0.468400 -0.036991
C5    C     C_R   0.452477 0.107338 0.407872 0.352438
C6    C     C_R   0.544081 0.101152 0.594989 0.354195
C7    C     C_R   0.452299 0.206765 0.412317 -0.132549
C8    C     C_R   0.543438 0.201369 0.592339 -0.125902
C9    C     C_R   0.497895 0.052934 0.501898 -0.106685
C10   C     C_R   0.578654 0.894966 0.498536 -0.272642
C11   C     C_R   0.418266 0.895507 0.504858 -0.234216
C12   C     C_R   0.578258 0.795723 0.497453 -0.001048
C13   C     C_R   0.420723 0.796119 0.503420 -0.024809
C14   C     C_R   0.498020 0.946506 0.503146 0.212923
C15   C     C_R   0.488155 0.502211 0.263280 0.840366
C16   C     C_R   0.502308 0.498020 0.737780 0.773544
C17   C     C_2   0.430483 0.454008 0.930083 0.124969
C18   C     C_2   0.432373 0.439314 0.066061 0.133679
C19   C     C_2   0.504063 0.489707 0.872463 0.361968
C20   C     C_2   0.457275 0.512794 0.134485 0.331203
C21   C     C_R   0.099096 0.567944 0.400705 -0.262910
C22   C     C_R   0.904245 0.591222 0.474882 -0.269953
C23   C     C_R   0.190935 0.566287 0.409740 -0.287758
C24   C     C_R   0.812509 0.587966 0.483013 -0.264678
C25   C     C_R   0.232520 0.501715 0.493306 -0.210433
C26   C     C_R   0.769519 0.500480 0.493372 -0.249608
C27   C     C_R   0.182471 0.439806 0.570745 0.356484
C28   C     C_R   0.819863 0.415678 0.492343 0.395126
C29   C     C_R   0.090649 0.451641 0.574602 0.484169
C30   C     C_R   0.910299 0.419671 0.464209 0.445120
H1    H     H_    0.640985 0.757630 0.494038 0.124782
H2    H     H_    0.358701 0.758096 0.505278 0.138913
H3    H     H_    0.067200 0.613963 0.330626 0.173753
H4    H     H_    0.937107 0.658864 0.476916 0.172600
H5    H     H_    0.229704 0.612988 0.348843 0.165371
H6    H     H_    0.775756 0.654160 0.485602 0.184902
H7    H     H_    0.412575 0.247437 0.346089 0.165049
H8    H     H_    0.574691 0.238317 0.667172 0.135965
H9    H     H_    0.641666 0.931350 0.493637 0.136461
H10   H     H_    0.354533 0.932242 0.507866 0.163654
N1    N     N_R   0.500000 0.252470 0.500000 -0.126732
N2    N     N_R   0.500000 0.747550 0.500000 -0.085798
O1    O     O_R   0.369060 0.579480 0.500010 -0.643146
O2    O     O_R   0.630940 0.579480 0.499990 -0.637918
O3    O     O_R   0.369050 0.420520 0.500010 -0.617776
O4    O     O_R   0.630950 0.420520 0.499990 -0.565235
O5    O     O_R   0.500000 0.579460 0.319080 -0.599862
O6    O     O_R   0.500000 0.579460 0.680920 -0.619320
O7    O     O_R   0.499990 0.420500 0.319080 -0.625654
O8    O     O_R   0.500010 0.420500 0.680920 -0.627740
Zn1   Zn    Zn3+2 0.500000 0.606140 0.500000 0.937696
Zn2   Zn    Zn3+2 0.500000 0.393860 0.500000 0.942779
C31   C     C_3   0.346521 0.429306 0.860695 -0.925093
H11   H     H_    0.291712 0.410592 0.927359 0.249503
H12   H     H_    0.323533 0.490539 0.801025 0.238218
H13   H     H_    0.359843 0.367472 0.801586 0.287036
C32   C     C_3   0.410992 0.342820 0.119940 -0.978972
H14   H     H_    0.385499 0.296284 0.046580 0.257975
H15   H     H_    0.472489 0.308976 0.157694 0.264273
H16   H     H_    0.358538 0.349144 0.193511 0.234908
O9    O     O_3   0.582535 0.501117 0.941591 -0.653196
C33   C     C_3   0.652587 0.542096 0.869674 0.107142
H17   H     H_    0.632717 0.614327 0.834998 0.167218
H18   H     H_    0.670534 0.497153 0.788992 0.099072
C34   C     C_3   0.735069 0.549553 0.952015 -0.313964
H19   H     H_    0.718564 0.592029 0.035453 0.239375
H20   H     H_    0.756548 0.477650 0.985407 0.217000
C35   C     C_3   0.811605 0.596109 0.878837 -1.007047
H21   H     H_    0.828603 0.555313 0.794189 0.259731
H22   H     H_    0.871300 0.598496 0.939741 0.270926
H23   H     H_    0.792783 0.669511 0.848849 0.272587
O10   O     O_3   0.459042 0.603166 0.078440 -0.627996
C36   C     C_3   0.382063 0.655643 0.113307 0.090983
H24   H     H_    0.400326 0.731488 0.110123 0.174350
H25   H     H_    0.358736 0.639279 0.211292 0.114547
C37   C     C_3   0.305849 0.641502 0.020658 -0.384217
H26   H     H_    0.330753 0.652793 0.922629 0.243715
H27   H     H_    0.280917 0.568236 0.031945 0.222340
C38   C     C_3   0.228304 0.709722 0.043700 -0.958641
H28   H     H_    0.200909 0.698202 0.140239 0.259439
H29   H     H_    0.174571 0.697524 0.974922 0.270751
H30   H     H_    0.250584 0.783996 0.031664 0.267129
O11   O     O_3   0.222930 0.374313 0.651883 -0.655157
C39   C     C_3   0.236273 0.287601 0.590785 0.146658
H31   H     H_    0.303406 0.260027 0.617840 0.173806
H32   H     H_    0.236399 0.294317 0.485673 0.112778
C40   C     C_3   0.166813 0.215394 0.635036 -0.349093
H33   H     H_    0.165043 0.211047 0.739660 0.237636
H34   H     H_    0.099864 0.237909 0.600746 0.266773
C41   C     C_3   0.188503 0.117750 0.585133 -0.979445
H35   H     H_    0.189916 0.120361 0.480535 0.274765
H36   H     H_    0.136627 0.067110 0.617535 0.270279
H37   H     H_    0.254308 0.092092 0.620580 0.270883
O12   O     O_3   0.782964 0.329401 0.526158 -0.611927
C42   C     C_3   0.780721 0.319682 0.659715 0.111037
H38   H     H_    0.715178 0.290753 0.687946 0.141773
H39   H     H_    0.786451 0.387712 0.709528 0.098495
C43   C     C_3   0.853544 0.250724 0.706408 -0.323336
H40   H     H_    0.842704 0.180311 0.666449 0.221077
H41   H     H_    0.919726 0.275756 0.674090 0.288631
C44   C     C_3   0.853885 0.241677 0.850069 -1.006933
H42   H     H_    0.864616 0.311466 0.891837 0.265653
H43   H     H_    0.908732 0.193123 0.881086 0.271810
H44   H     H_    0.789556 0.213125 0.885642 0.263818
O13   O     O_3   0.041636 0.401492 0.664311 -0.645033
C45   C     C_3   0.018250 0.460745 0.764520 0.054719
H45   H     H_    0.953552 0.435921 0.803356 0.172949
H46   H     H_    0.007472 0.536310 0.734509 0.125563
C46   C     C_3   0.088399 0.452780 0.868672 -0.306170
H47   H     H_    0.103407 0.377020 0.890967 0.245372
H48   H     H_    0.150618 0.487361 0.835256 0.229055
C47   C     C_3   0.056536 0.500036 0.988293 -1.016253
H49   H     H_    0.041890 0.576115 0.968494 0.270684
H50   H     H_    0.109437 0.493927 0.060863 0.271651
H51   H     H_    0.995578 0.465111 0.026002 0.266970
O14   O     O_3   0.958085 0.336756 0.447163 -0.630382
C48   C     C_3   0.977545 0.329556 0.317495 0.063761
H52   H     H_    0.010766 0.394263 0.278456 0.140353
H53   H     H_    0.914913 0.318232 0.264475 0.150790
C49   C     C_3   0.040634 0.245586 0.298868 -0.311971
H54   H     H_    0.102489 0.255707 0.353493 0.218290
H55   H     H_    0.008287 0.179669 0.334388 0.231288
C50   C     C_3   0.065383 0.235757 0.160255 -0.973518
H56   H     H_    0.004599 0.225780 0.103213 0.268701
H57   H     H_    0.110246 0.173478 0.149674 0.270616
H58   H     H_    0.100735 0.299731 0.124433 0.269656
O15   O     O_3   0.401505 0.065217 0.317520 -0.646809
C51   C     C_3   0.457085 0.024768 0.224587 0.102146
H59   H     H_    0.420633 0.964645 0.185372 0.165150
H60   H     H_    0.521163 0.995128 0.261945 0.127066
C52   C     C_3   0.476401 0.096913 0.118112 -0.400870
H61   H     H_    0.412578 0.127613 0.082283 0.241106
H62   H     H_    0.517783 0.154019 0.155162 0.219066
C53   C     C_3   0.526990 0.052036 0.009855 -0.891455
H63   H     H_    0.591201 0.021082 0.043826 0.249356
H64   H     H_    0.541300 0.106999 0.935896 0.286991
H65   H     H_    0.486547 0.995937 0.968096 0.275831
O16   O     O_3   0.579425 0.049456 0.696030 -0.637491
C54   C     C_3   0.672428 0.062476 0.703269 0.063158
H66   H     H_    0.685638 0.125147 0.760139 0.144317
H67   H     H_    0.704338 0.072228 0.608497 0.134397
C55   C     C_3   0.713970 0.974816 0.768654 -0.305838
H68   H     H_    0.685575 0.965831 0.865032 0.228702
H69   H     H_    0.697430 0.911156 0.715400 0.224053
C56   C     C_3   0.815125 0.981546 0.777451 -0.991428
H70   H     H_    0.845152 0.992743 0.682380 0.264491
H71   H     H_    0.842672 0.914801 0.819923 0.267192
H72   H     H_    0.833396 0.040457 0.838089 0.279960

loop_
_geom_bond_atom_site_label_1
_geom_bond_atom_site_label_2
_ccdc_geom_bond_type
C40   H33   S    
C44   H42   S    
C27   C29   A    
C54   H67   S    
C36   H24   S    
C13   H2    S    
C42   H38   S    
C37   C38   S    
C15   O5    A    
C52   C53   S    
C1    O3    A    
C51   H59   S    
C16   O6    A    
C6    C9    A    
C47   H50   S    
C56   H70   S    
C41   H35   S    
C42   C43   S    
C50   H56   S    
C30   O14   S    
C31   H11   S    
C2    O4    A    
C24   H6    S    
C6    C8    A    
C37   H27   S    
C39   H32   S    
C48   H53   S    
C54   C55   S    
C50   H57   S    
C21   H3    S    
C45   H45   S    
O4    Zn2   S    
O14   C48   S    
C28   O12   S    
C3    C29   A    
C47   H49   S    
C33   H18   S    
C17   C19   D    
C1    O1    A    
O6    Zn1   S    
C2    O2    A    
C35   H21   S    
C34   H20   S    
O8    Zn2   S    
C39   C40   S    
N1    Zn2   S    
C49   C50   S    
N2    Zn1   S    
O7    Zn2   S    
C7    N1    A    
C8    N1    A    
C44   H43   S    
C1    C25   S    
C36   H25   S    
C55   C56   S    
C29   O13   S    
O12   C42   S    
C8    H8    S    
C53   H65   S    
C13   N2    A    
C56   H71   S    
C49   H55   S    
C31   H12   S    
C15   C20   S    
C22   H4    S    
C12   N2    A    
C11   H10   S    
C37   H26   S    
C10   C14   A    
C46   C47   S    
C38   H29   S    
C50   H58   S    
C53   H64   S    
O3    Zn2   S    
C3    C4    S    
C38   H28   S    
C10   H9    S    
C6    O16   S    
C9    C14   S    
C5    C9    A    
C33   H17   S    
C4    C22   A    
C18   C32   S    
C41   H36   S    
O11   C39   S    
C34   C35   S    
C5    O15   S    
C17   C18   S    
C7    H7    S    
C2    C26   S    
C39   H31   S    
C10   C12   A    
O2    Zn1   S    
C43   H40   S    
C44   H44   S    
C23   H5    S    
C21   C23   A    
C12   H1    S    
C36   C37   S    
C22   C24   A    
C48   C49   S    
C32   H15   S    
O15   C51   S    
C51   C52   S    
C17   C31   S    
C56   H72   S    
C49   H54   S    
C41   H37   S    
C5    C7    A    
C31   H13   S    
C33   C34   S    
C24   C26   A    
O10   C36   S    
C52   H62   S    
C51   H60   S    
C38   H30   S    
O5    Zn1   S    
C54   H66   S    
C42   H39   S    
C35   H23   S    
C53   H63   S    
C25   C27   A    
C43   C44   S    
O13   C45   S    
C26   C28   A    
C46   H48   S    
C48   H52   S    
C11   C13   A    
O1    Zn1   S    
C32   H14   S    
C45   H46   S    
C19   O9    S    
C16   C19   S    
C28   C30   A    
C11   C14   A    
C18   C20   D    
C15   O7    A    
O9    C33   S    
C16   O8    A    
C43   H41   S    
C4    C30   A    
C3    C21   A    
O16   C54   S    
C27   O11   S    
C32   H16   S    
C23   C25   A    
C35   H22   S    
C34   H19   S    
C40   C41   S    
C40   H34   S    
C55   H68   S    
C20   O10   S    
C46   H47   S    
C47   H51   S    
C55   H69   S    
C52   H61   S    
C45   C46   S    
