data_mof_unit_36842.cif
_audit_creation_date              2012-12-10T17:10:28-0500
_audit_creation_method            fapswitch 2.2
_symmetry_space_group_name_H-M    P1
_symmetry_Int_Tables_number       1
_space_group_crystal_system       triclinic
_cell_length_a                    10.78586
_cell_length_b                    12.989614
_cell_length_c                    11.812336
_cell_angle_alpha                 99.944283
_cell_angle_beta                  93.215978
_cell_angle_gamma                 92.399364
_cell_volume                      1625.28866069

loop_
_atom_site_label
_atom_site_type_symbol
_atom_type_description
_atom_site_fract_x
_atom_site_fract_y
_atom_site_fract_z
_atom_type_partial_charge
C1    C     C_R   0.502902 0.299548 0.478067 0.810640
C2    C     C_R   0.497105 0.700454 0.521935 0.810670
C3    C     C_R   0.486875 0.813896 0.535398 -0.130000
C4    C     C_R   0.513154 0.186112 0.464614 -0.129906
C5    C     C_R   0.584507 0.019528 0.369939 0.389270
C6    C     C_R   0.415517 0.980483 0.630069 0.389257
C7    C     C_R   0.574790 0.128011 0.373483 0.078258
C8    C     C_R   0.425272 0.872005 0.626553 0.078322
C9    C     C_R   0.463588 0.136952 0.549055 -0.254788
C10   C     C_R   0.536437 0.863054 0.450951 -0.254743
C11   C     C_R   0.469488 0.029540 0.545162 -0.003171
C12   C     C_R   0.530540 0.970468 0.454847 -0.003154
C13   C     C_R   0.409773 0.380408 0.022808 -0.012196
C14   C     C_R   0.590226 0.619590 0.977192 -0.012179
C15   C     C_R   0.404095 0.401457 0.143741 0.488017
C16   C     C_R   0.595906 0.598542 0.856259 0.487955
C17   C     C_R   0.547171 0.547188 0.156863 0.494846
C18   C     C_R   0.452828 0.452812 0.843136 0.494860
C19   C     C_R   0.534363 0.542980 0.034304 -0.135110
C20   C     C_R   0.465635 0.457019 0.965696 -0.135113
C21   C     C_R   0.263170 0.500016 0.500344 0.790640
C22   C     C_R   0.736829 0.499982 0.499657 0.790600
C23   C     C_R   0.137374 0.687597 0.486159 -0.197490
C24   C     C_R   0.862622 0.312405 0.513857 -0.197466
C25   C     C_R   0.078140 0.780850 0.486648 -0.115471
C26   C     C_R   0.921853 0.219144 0.513378 -0.115513
C27   C     C_R   0.949661 0.783045 0.493867 0.224111
C28   C     C_R   0.050332 0.216947 0.506171 0.224085
C29   C     C_R   0.880375 0.690131 0.497438 -0.039109
C30   C     C_R   0.119622 0.309866 0.502591 -0.039129
C31   C     C_R   0.939217 0.594471 0.496563 0.042820
C32   C     C_R   0.060782 0.405528 0.503450 0.042822
C33   C     C_R   0.069516 0.593821 0.494098 0.060034
C34   C     C_R   0.930482 0.406179 0.505911 0.060027
C35   C     C_R   0.870822 0.500111 0.500044 -0.117710
C36   C     C_R   0.129176 0.499888 0.499959 -0.117719
Cu1   Cu    Cu3+1 0.509250 0.507730 0.615930 1.038127
Cu2   Cu    Cu3+1 0.490750 0.492270 0.384070 1.038148
H1    H     H_    0.236864 0.690000 0.479893 0.127862
H2    H     H_    0.763133 0.310008 0.520126 0.127859
H3    H     H_    0.132918 0.851806 0.482443 0.157701
H4    H     H_    0.867073 0.148188 0.517585 0.157682
H5    H     H_    0.780659 0.693623 0.502067 0.146205
H6    H     H_    0.219338 0.306373 0.497962 0.146202
H7    H     H_    0.582087 0.815888 0.382713 0.251092
H8    H     H_    0.417938 0.184119 0.617291 0.251084
N1    N     N_R   0.523180 0.519350 0.790130 -0.252483
N2    N     N_R   0.476820 0.480650 0.209870 -0.252489
O1    O     O_R   0.506570 0.354460 0.582000 -0.555780
O2    O     O_R   0.493430 0.645540 0.418000 -0.555762
O3    O     O_R   0.490940 0.341410 0.386200 -0.545956
O4    O     O_R   0.509060 0.658590 0.613800 -0.546018
O5    O     O_R   0.327470 0.506520 0.597900 -0.537673
O6    O     O_R   0.672530 0.493480 0.402100 -0.537693
O7    O     O_R   0.311840 0.493460 0.402100 -0.534719
O8    O     O_R   0.688160 0.506540 0.597900 -0.534712
C37   C     C_3   0.112198 0.115172 0.501875 -0.803825
H9    H     H_    0.098710 0.084534 0.582647 0.264345
H10   H     H_    0.071013 0.057443 0.427519 0.231074
H11   H     H_    0.213232 0.124576 0.491476 0.245475
C38   C     C_3   0.887786 0.884811 0.498154 -0.804060
H12   H     H_    0.901096 0.915346 0.417308 0.264454
H13   H     H_    0.786794 0.875451 0.508759 0.245427
H14   H     H_    0.929104 0.942598 0.572372 0.231051
C39   C     C_3   0.373595 0.270278 0.961523 -0.563083
H15   H     H_    0.390915 0.212253 0.018714 0.236229
H16   H     H_    0.273531 0.263356 0.932195 0.291770
H17   H     H_    0.433129 0.247274 0.888732 0.260881
C40   C     C_3   0.626397 0.729723 0.038475 -0.563064
H18   H     H_    0.609054 0.787747 0.981287 0.236221
H19   H     H_    0.566876 0.752720 0.111276 0.260905
H20   H     H_    0.726465 0.736655 0.067788 0.291762
C41   C     C_3   0.369638 0.818294 0.717926 -0.691573
H21   H     H_    0.307793 0.867000 0.773767 0.272286
H22   H     H_    0.311926 0.747571 0.677368 0.208471
H23   H     H_    0.445382 0.795704 0.774820 0.255457
C42   C     C_3   0.630502 0.181730 0.282159 -0.691559
H24   H     H_    0.692643 0.133105 0.226581 0.272248
H25   H     H_    0.554814 0.204115 0.225063 0.255471
H26   H     H_    0.687967 0.252584 0.322735 0.208415
Cl1   Cl    Cl    0.664836 0.945116 0.259431 -0.674313
Cl2   Cl    Cl    0.335089 0.054892 0.740508 -0.674311
Cl3   Cl    Cl    0.332022 0.373975 0.759740 -0.609852
Cl4   Cl    Cl    0.667980 0.626023 0.240257 -0.609855
Cl5   Cl    Cl    0.698426 0.677262 0.791614 -0.591219
Cl6   Cl    Cl    0.301577 0.322735 0.208389 -0.591168

loop_
_geom_bond_atom_site_label_1
_geom_bond_atom_site_label_2
_ccdc_geom_bond_type
C21   O5    A    
C6    Cl2   S    
C27   C29   A    
C41   H21   S    
C19   C20   A    
C17   N2    A    
C18   N1    A    
C22   O6    A    
C21   C36   S    
C13   C39   S    
C42   H24   S    
C22   C35   S    
C32   C36   A    
C24   C26   A    
C37   H10   S    
C33   C36   A    
Cu1   O1    S    
C18   C20   A    
C40   H19   S    
C34   C35   A    
C38   H13   S    
C2    O2    A    
C17   C19   A    
Cu1   O8    S    
Cu2   O7    S    
C23   C33   A    
C31   C33   A    
Cu1   N1    S    
C27   C38   S    
Cu2   N2    S    
C7    C42   S    
Cu1   O5    S    
C9    H8    S    
C29   H5    S    
C41   H22   S    
C30   H6    S    
C40   H18   S    
C15   N2    A    
C4    C7    A    
C10   C12   A    
C16   N1    A    
C42   H25   S    
C5    C12   A    
C3    C8    A    
C25   H3    S    
C6    C11   A    
C21   O7    A    
Cu1   O4    S    
C37   H11   S    
C6    C8    A    
Cu2   O3    S    
C39   H16   S    
C28   C37   S    
C24   C34   A    
C32   C34   A    
C38   H14   S    
Cu1   Cu2   S    
C5    Cl1   S    
Cu2   O6    S    
C39   H17   S    
C10   H7    S    
C18   Cl3   S    
C1    O3    A    
C2    O4    A    
C15   Cl6   S    
C13   C15   A    
C16   Cl5   S    
C14   C40   S    
C14   C16   A    
C40   H20   S    
C26   H4    S    
C5    C7    A    
C42   H26   S    
C13   C20   A    
C14   C19   A    
C22   O8    A    
C11   C12   A    
Cu2   O2    S    
C25   C27   A    
C26   C28   A    
C1    C4    S    
C17   Cl4   S    
C28   C30   A    
C2    C3    S    
C29   C31   A    
C3    C10   A    
C30   C32   A    
C37   H9    S    
C23   H1    S    
C9    C11   A    
C8    C41   S    
C24   H2    S    
C31   C35   A    
C23   C25   A    
C38   H12   S    
C41   H23   S    
C39   H15   S    
C4    C9    A    
C1    O1    A    
