data_mof_unit_22717.cif
_audit_creation_date              2012-10-26T18:27:56-0400
_audit_creation_method            fapswitch 2.2
_symmetry_space_group_name_H-M    P1
_symmetry_Int_Tables_number       1
_space_group_crystal_system       triclinic
_cell_length_a                    15.877865
_cell_length_b                    10.920892
_cell_length_c                    9.914562
_cell_angle_alpha                 109.702063
_cell_angle_beta                  99.037836
_cell_angle_gamma                 91.932425
_cell_volume                      1591.48949583

loop_
_atom_site_label
_atom_site_type_symbol
_atom_type_description
_atom_site_fract_x
_atom_site_fract_y
_atom_site_fract_z
_atom_type_partial_charge
C1    C     C_R   0.489651 0.254280 0.442682 0.548500
C2    C     C_2   0.453458 0.065409 0.512091 -0.037935
C3    C     C_2   0.495852 0.884011 0.587611 -0.129762
C4    C     C_R   0.340428 0.499318 0.499874 0.536640
C5    C     C_2   0.457597 0.926096 0.483560 -0.153236
C6    C     C_2   0.501927 0.520854 0.081404 0.169567
C7    C     C_2   0.487235 0.497171 0.920275 0.029432
C8    C     C_R   0.503065 0.745471 0.557734 0.548557
C9    C     C_R   0.659558 0.500123 0.500022 0.547731
C10   C     C_3   0.057132 0.433195 0.612120 -0.092627
C11   C     C_3   0.033493 0.417175 0.347322 -0.202319
C12   C     C_3   0.959263 0.439963 0.615524 -0.239579
C13   C     C_3   0.935849 0.408477 0.349494 0.181819
C14   C     C_1   0.749165 0.499393 0.500040 -0.028401
C15   C     C_3   0.083246 0.496902 0.502371 0.053436
C16   C     C_3   0.110109 0.492415 0.767170 -0.419210
C17   C     C_3   0.422265 0.146628 0.648549 -0.343641
C18   C     C_3   0.550217 0.650582 0.178684 -0.340789
C19   C     C_3   0.343249 0.312071 0.069197 0.053761
C20   C     C_3   0.288233 0.212697 0.934816 -0.427965
C21   C     C_3   0.885740 0.540406 0.209543 0.005740
C22   C     C_3   0.859576 0.525223 0.049964 -0.375099
C23   C     C_3   0.916846 0.497752 0.500865 0.055060
C24   C     C_3   0.959953 0.639531 0.548798 -0.227015
C25   C     C_3   0.056635 0.638338 0.542328 -0.217802
C26   C     C_1   0.824694 0.498612 0.500302 -0.046944
C27   C     C_1   0.175342 0.497402 0.500626 -0.076278
C28   C     C_1   0.250798 0.498216 0.499796 -0.050728
C29   C     C_2   0.478607 0.114336 0.415276 -0.108495
Cu1   Cu    Cu3+1 0.514650 0.521810 0.644910 0.920275
Cu2   Cu    Cu3+1 0.485350 0.478190 0.355090 0.955624
H1    H     H_    0.928704 0.340156 0.593067 0.092635
H2    H     H_    0.048938 0.461526 0.267444 0.125147
H3    H     H_    0.054630 0.316785 0.311011 0.080522
H4    H     H_    0.919491 0.306603 0.343725 0.132119
H5    H     H_    0.094498 0.702281 0.648590 0.120791
H6    H     H_    0.070691 0.680740 0.459846 0.101398
H7    H     H_    0.952330 0.694246 0.662709 0.113323
H8    H     H_    0.100618 0.597164 0.817579 0.136266
H9    H     H_    0.089995 0.439587 0.836674 0.119404
H10   H     H_    0.179349 0.482304 0.766054 0.141084
H11   H     H_    0.389923 0.082835 0.695266 0.126352
H12   H     H_    0.947913 0.500306 0.725551 0.127418
H13   H     H_    0.477064 0.204870 0.732361 0.180119
H14   H     H_    0.374732 0.211576 0.623010 0.127151
H15   H     H_    0.586663 0.701932 0.124840 0.064274
H16   H     H_    0.503143 0.719704 0.218652 0.131410
H17   H     H_    0.598197 0.640460 0.266516 0.173925
H18   H     H_    0.311272 0.404578 0.095408 0.134027
H19   H     H_    0.346144 0.273397 0.159680 0.178531
H20   H     H_    0.316325 0.117472 0.907226 0.153660
H21   H     H_    0.222645 0.198720 0.956214 0.093672
H22   H     H_    0.284048 0.247844 0.841293 0.139870
H23   H     H_    0.928915 0.696002 0.483958 0.092998
H24   H     H_    0.950090 0.595164 0.248716 0.113694
H25   H     H_    0.838335 0.597541 0.269691 0.139725
H26   H     H_    0.794280 0.473658 0.006578 0.169484
H27   H     H_    0.859481 0.622933 0.038498 0.086181
H28   H     H_    0.905493 0.468346 0.985577 0.147740
H29   H     H_    0.432863 0.859027 0.374337 0.132305
H30   H     H_    0.520187 0.952151 0.696864 0.119380
H31   H     H_    0.494096 0.048798 0.314159 0.090348
H32   H     H_    0.430177 0.437462 0.851683 0.161332
H33   H     H_    0.597646 0.590687 0.917915 0.211269
H34   H     H_    0.069224 0.328208 0.571370 0.122073
N1    N     N_2   0.463320 0.445430 0.137380 -0.042641
N2    N     N_2   0.536720 0.554500 0.862620 -0.374651
O1    O     O_R   0.507820 0.332330 0.577400 -0.491940
O2    O     O_3   0.883613 0.415296 0.221866 -0.557081
O3    O     O_R   0.483070 0.295500 0.332660 -0.477672
O4    O     O_R   0.391820 0.518430 0.622420 -0.498422
O5    O     O_R   0.367070 0.481600 0.377680 -0.526393
O6    O     O_R   0.516930 0.704500 0.667340 -0.480168
O7    O     O_R   0.492180 0.667670 0.422600 -0.526526
O8    O     O_R   0.632930 0.518400 0.622320 -0.493466
O9    O     O_R   0.608180 0.481570 0.377580 -0.496579
O10   O     O_3   0.425972 0.329794 0.040443 -0.502408

loop_
_geom_bond_atom_site_label_1
_geom_bond_atom_site_label_2
_ccdc_geom_bond_type
C22   H27   S    
C21   H25   S    
C24   H7    S    
C9    C14   S    
C24   H23   S    
C6    C7    S    
C22   H28   S    
C9    O9    A    
Cu2   N1    S    
C16   H8    S    
C19   H18   S    
C15   C27   S    
Cu1   N2    S    
C12   C23   S    
C6    N1    D    
C23   C24   S    
C18   H16   S    
C3    C5    D    
C22   H26   S    
C1    C29   S    
Cu1   O4    S    
C17   H13   S    
C20   H21   S    
C10   C16   S    
C21   C22   S    
C12   H1    S    
C2    C17   S    
C20   H22   S    
Cu1   O8    S    
C11   C13   S    
C19   H19   S    
C7    H32   S    
Cu2   O9    S    
C13   O2    S    
C16   H9    S    
C2    C29   D    
C10   C12   S    
C8    O7    A    
Cu2   O5    S    
C4    C28   S    
C23   C26   S    
C17   H14   S    
C13   H4    S    
C20   H20   S    
C10   C15   S    
C11   H3    S    
Cu1   Cu2   S    
C6    C18   S    
Cu1   O1    S    
C15   C25   S    
C2    C5    S    
C3    H30   S    
C7    N2    D    
C4    O4    A    
H33   N2    S    
C18   H15   S    
C11   H2    S    
C1    O1    A    
C24   C25   S    
C13   C23   S    
C21   H24   S    
C3    C8    S    
C10   H34   S    
C21   O2    S    
C27   C28   T    
C19   O10   S    
Cu1   O6    S    
C29   H31   S    
C8    O6    A    
Cu2   O7    S    
C9    O8    A    
C5    H29   S    
C25   H6    S    
C25   H5    S    
C17   H11   S    
C11   C15   S    
C12   H12   S    
Cu2   O3    S    
C14   C26   T    
N1    O10   S    
C1    O3    A    
C19   C20   S    
C4    O5    A    
C16   H10   S    
C18   H17   S    
