data_mof_unit_65746.cif
_audit_creation_date              2012-12-10T20:47:24-0500
_audit_creation_method            fapswitch 2.2
_symmetry_space_group_name_H-M    P1
_symmetry_Int_Tables_number       1
_space_group_crystal_system       triclinic
_cell_length_a                    17.793364
_cell_length_b                    19.214622
_cell_length_c                    19.23166
_cell_angle_alpha                 94.903408
_cell_angle_beta                  98.878938
_cell_angle_gamma                 103.312514
_cell_volume                      6271.53026238

loop_
_atom_site_label
_atom_site_type_symbol
_atom_type_description
_atom_site_fract_x
_atom_site_fract_y
_atom_site_fract_z
_atom_type_partial_charge
C1    C     C_R   0.491930 0.506616 0.688199 0.508616
C2    C     C_R   0.916612 0.418516 0.447494 -0.124618
C3    C     C_R   0.956641 0.381460 0.406722 0.094399
C4    C     C_R   0.507496 0.493356 0.311822 0.532315
C5    C     C_R   0.038847 0.398614 0.420860 0.067132
C6    C     C_R   0.080492 0.449676 0.480044 -0.007386
C7    C     C_R   0.080294 0.366556 0.375939 -0.089602
C8    C     C_R   0.162439 0.386147 0.387465 0.081622
C9    C     C_R   0.162337 0.473355 0.486387 -0.164136
C10   C     C_R   0.507389 0.488253 0.234955 0.039866
C11   C     C_R   0.482324 0.540206 0.196630 -0.200752
C12   C     C_R   0.838305 0.592519 0.625185 -0.124225
C13   C     C_R   0.478822 0.535665 0.123594 -0.109119
C14   C     C_R   0.499540 0.478197 0.087015 0.179467
C15   C     C_R   0.523530 0.425829 0.124872 -0.093104
C16   C     C_R   0.491732 0.308950 0.490726 0.513227
C17   C     C_R   0.529819 0.431229 0.198905 0.250733
C18   C     C_R   0.457602 0.454161 0.867462 -0.090120
C19   C     C_R   0.456145 0.449918 0.794434 -0.151457
C20   C     C_R   0.491960 0.520102 0.911247 0.224642
C21   C     C_R   0.489602 0.511044 0.764401 0.030551
C22   C     C_R   0.522373 0.576870 0.808020 -0.146871
C23   C     C_R   0.837650 0.512611 0.520732 -0.122444
C24   C     C_R   0.522586 0.581365 0.880684 -0.111717
C25   C     C_R   0.508554 0.768206 0.514664 0.028874
C26   C     C_R   0.472388 0.795346 0.456529 -0.150996
C27   C     C_R   0.469993 0.867404 0.461299 -0.087287
C28   C     C_R   0.508046 0.691292 0.509488 0.506930
C29   C     C_R   0.503794 0.913991 0.524705 0.225529
C30   C     C_R   0.538988 0.886657 0.582969 -0.109636
C31   C     C_R   0.542132 0.814436 0.577927 -0.148473
C32   C     C_R   0.462263 0.117883 0.534245 -0.147054
C33   C     C_R   0.460130 0.190198 0.537100 -0.172107
C34   C     C_R   0.916354 0.511872 0.544595 0.022299
C35   C     C_R   0.491954 0.085806 0.479259 0.238541
C36   C     C_R   0.488941 0.231702 0.486035 -0.014152
C37   C     C_R   0.517407 0.199427 0.430763 -0.128525
C38   C     C_R   0.516644 0.126176 0.425931 0.286170
C39   C     C_R   0.288201 0.459531 0.459632 0.526239
C40   C     C_R   0.712554 0.539704 0.540083 0.502013
C41   C     C_R   0.797812 0.550273 0.561650 0.021237
C42   C     C_R   0.202924 0.440627 0.442537 0.069154
C43   C     C_R   0.917168 0.595219 0.648389 -0.135833
C44   C     C_3   0.630780 0.382327 0.238655 -0.101806
C45   C     C_R   0.956221 0.554835 0.608964 0.021220
C46   C     C_3   0.492347 0.083975 0.308715 -0.116232
C47   C     C_R   0.956549 0.470392 0.505929 -0.004026
C48   C     C_R   0.038686 0.479170 0.527877 0.038677
C49   C     C_R   0.074449 0.515808 0.597196 0.096434
C50   C     C_R   0.033532 0.554595 0.635187 -0.078712
H1    H     H_    0.061923 0.582882 0.687235 0.129332
H2    H     H_    0.437767 0.214073 0.580093 0.145163
H3    H     H_    0.195897 0.518679 0.524092 0.108762
H4    H     H_    0.440445 0.087019 0.574658 0.143853
H5    H     H_    0.564618 0.921626 0.632206 0.122321
H6    H     H_    0.569680 0.794559 0.623741 0.134524
H7    H     H_    0.540187 0.230911 0.391085 0.150028
H8    H     H_    0.440975 0.886365 0.415614 0.137875
H9    H     H_    0.445685 0.760814 0.407224 0.137307
H10   H     H_    0.947221 0.627661 0.698083 0.109091
H11   H     H_    0.808660 0.622137 0.657717 0.137724
H12   H     H_    0.049081 0.326278 0.331774 0.153315
H13   H     H_    0.805799 0.484543 0.470099 0.122247
H14   H     H_    0.853495 0.403231 0.433438 0.106556
H15   H     H_    0.666628 0.436921 0.262935 0.120182
H16   H     H_    0.644628 0.368632 0.185510 0.102603
H17   H     H_    0.647776 0.342967 0.273078 0.144623
H18   H     H_    0.486308 0.136028 0.290219 0.115831
H19   H     H_    0.434025 0.050356 0.314122 0.116629
H20   H     H_    0.514200 0.054434 0.267213 0.149086
H21   H     H_    0.235083 0.321586 0.373907 0.231138
H22   H     H_    0.166191 0.315879 0.302192 0.225054
H23   H     H_    0.430238 0.398682 0.761722 0.134112
H24   H     H_    0.879355 0.352903 0.314184 0.228148
H25   H     H_    0.874804 0.288576 0.369232 0.239940
H26   H     H_    0.192339 0.548423 0.634905 0.225551
H27   H     H_    0.156129 0.455834 0.617880 0.249179
H28   H     H_    0.431855 0.406192 0.889541 0.138079
H29   H     H_    0.537411 0.380532 0.096616 0.125459
H30   H     H_    0.547754 0.624992 0.785937 0.134292
H31   H     H_    0.458659 0.576479 0.095760 0.149863
H32   H     H_    0.548216 0.632506 0.913639 0.120236
H33   H     H_    0.465245 0.584575 0.223235 0.143208
N1    N     N_2   0.495410 0.470370 0.012332 -0.245123
N2    N     N_2   0.495912 0.527408 0.985764 -0.246709
N3    N     N_2   0.502216 0.987817 0.531818 -0.253335
N4    N     N_2   0.494700 0.012439 0.473894 -0.206254
N5    N     N_3   0.204985 0.352142 0.342899 -0.615157
N6    N     N_3   0.913167 0.328224 0.348882 -0.651750
N7    N     N_3   0.145396 0.504721 0.636341 -0.641023
O1    O     O_3   0.500000 0.500000 0.500000 -0.439876
O2    O     O_R   0.321500 0.427480 0.506110 -0.547232
O3    O     O_R   0.674970 0.575130 0.575140 -0.545038
O4    O     O_R   0.328550 0.507430 0.428780 -0.523042
O5    O     O_R   0.674980 0.489960 0.489960 -0.550763
O6    O     O_3   0.549795 0.376877 0.234899 -0.546955
O7    O     O_3   0.546860 0.095066 0.372598 -0.544772
O8    O     O_R   0.540930 0.349770 0.460420 -0.537272
O9    O     O_R   0.550820 0.667300 0.556650 -0.547265
O10   O     O_R   0.445640 0.455160 0.644460 -0.543118
O11   O     O_R   0.462610 0.527770 0.338470 -0.550692
O12   O     O_R   0.540910 0.554790 0.665460 -0.548294
O13   O     O_R   0.550840 0.462270 0.351610 -0.502842
O14   O     O_R   0.445650 0.335310 0.524600 -0.542743
O15   O     O_R   0.462600 0.647620 0.458330 -0.547458
Zn1   Zn    Zn3+2 0.565550 0.451340 0.451340 0.952314
Zn2   Zn    Zn3+2 0.429430 0.430690 0.543050 0.938542
Zn3   Zn    Zn3+2 0.439490 0.544930 0.432570 0.948124
Zn4   Zn    Zn3+2 0.565540 0.573040 0.573050 0.930926

loop_
_geom_bond_atom_site_label_1
_geom_bond_atom_site_label_2
_ccdc_geom_bond_type
C25   C31   A    
C1    C21   S    
C27   C29   A    
C44   H16   S    
C14   N1    S    
C40   O3    A    
C6    C9    A    
C7    C8    A    
C39   O4    A    
C33   H2    S    
O4    Zn3   S    
C9    C42   A    
C29   C30   A    
C6    C48   A    
H24   N6    S    
C36   C37   A    
C19   C21   A    
C8    C42   A    
O12   Zn4   S    
C12   C43   A    
C30   C31   A    
C10   C17   A    
O9    Zn4   S    
C4    O13   A    
C13   H31   S    
C33   C36   A    
C18   C19   A    
C24   H32   S    
C46   H19   S    
C35   N4    S    
C16   O14   A    
C15   H29   S    
C20   C24   A    
C31   H6    S    
C26   H9    S    
C49   N7    S    
O11   Zn3   S    
C23   H13   S    
C13   C14   A    
C4    O11   A    
O1    Zn1   S    
C44   H15   S    
C38   O7    S    
C1    O10   A    
C32   H4    S    
H22   N5    S    
C2    H14   S    
C39   C42   S    
O15   Zn3   S    
H27   N7    S    
C32   C35   A    
O1    Zn2   S    
C19   H23   S    
C35   C38   A    
N1    N2    D    
C34   C45   A    
N3    N4    D    
C11   H33   S    
C25   C26   A    
C8    N5    S    
C7    H12   S    
C46   H18   S    
C37   C38   A    
C44   O6    S    
O5    Zn1   S    
O2    Zn2   S    
C47   C48   A    
C28   O15   A    
C18   H28   S    
C23   C34   A    
C20   N2    S    
C50   H1    S    
C26   C27   A    
C17   O6    S    
C43   C45   A    
C29   N3    S    
C43   H10   S    
C28   O9    A    
C48   C49   A    
C46   O7    S    
C22   C24   A    
C9    H3    S    
C40   O5    A    
C4    C10   S    
C39   O2    A    
C12   C41   A    
C5    C7    A    
C15   C17   A    
C40   C41   S    
O10   Zn2   S    
O1    Zn3   S    
C3    C5    A    
C27   H8    S    
O8    Zn1   S    
C2    C47   A    
C30   H5    S    
C23   C41   A    
C3    N6    S    
C32   C33   A    
O1    Zn4   S    
C2    C3    A    
C22   H30   S    
C16   C36   S    
C12   H11   S    
C11   C13   A    
C16   O8    A    
C5    C6    A    
C45   C50   A    
O13   Zn1   S    
C18   C20   A    
C46   H20   S    
C10   C11   A    
H25   N6    S    
C25   C28   S    
H21   N5    S    
C49   C50   A    
H26   N7    S    
C14   C15   A    
C44   H17   S    
C34   C47   A    
C21   C22   A    
C1    O12   A    
O14   Zn2   S    
C37   H7    S    
O3    Zn4   S    
