data_mof_unit_28529.cif
_audit_creation_date              2012-12-10T17:41:04-0500
_audit_creation_method            fapswitch 2.2
_symmetry_space_group_name_H-M    P1
_symmetry_Int_Tables_number       1
_space_group_crystal_system       triclinic
_cell_length_a                    15.155638
_cell_length_b                    14.867624
_cell_length_c                    9.906571
_cell_angle_alpha                 90.4278
_cell_angle_beta                  89.332143
_cell_angle_gamma                 88.679892
_cell_volume                      2231.4202017

loop_
_atom_site_label
_atom_site_type_symbol
_atom_type_description
_atom_site_fract_x
_atom_site_fract_y
_atom_site_fract_z
_atom_type_partial_charge
C1    C     C_R   0.383941 0.876983 0.499982 0.828424
C2    C     C_R   0.766329 0.165202 0.481473 0.193159
C3    C     C_R   0.176341 0.239479 0.379796 0.192956
C4    C     C_R   0.266884 0.664951 0.482645 0.201986
C5    C     C_R   0.643266 0.777330 0.500697 -0.183968
C6    C     C_R   0.677975 0.196060 0.498840 -0.126700
C7    C     C_R   0.143204 0.277295 0.500691 -0.181865
C8    C     C_R   0.178249 0.695634 0.499235 -0.116838
C9    C     C_R   0.338143 0.000388 0.142253 -0.161856
C10   C     C_R   0.838143 0.500389 0.142254 -0.161594
C11   C     C_R   0.258777 0.000646 0.073350 -0.216181
C12   C     C_R   0.376490 0.118754 0.501687 0.852700
C13   C     C_R   0.758777 0.500647 0.073351 -0.216238
C14   C     C_R   0.258971 0.000490 0.933898 -0.168092
C15   C     C_R   0.758971 0.500490 0.933900 -0.168199
C16   C     C_R   0.338531 0.000500 0.862827 -0.143422
C17   C     C_R   0.838532 0.500501 0.862830 -0.143262
C18   C     C_R   0.420417 0.000277 0.929047 0.138281
C19   C     C_R   0.920417 0.500279 0.929048 0.138162
C20   C     C_R   0.420366 0.000233 0.073592 0.172468
C21   C     C_R   0.920366 0.500236 0.073593 0.172276
C22   C     C_R   0.576025 0.998947 0.070132 -0.121494
C23   C     C_R   0.883948 0.376959 0.500002 0.828111
C24   C     C_R   0.076024 0.498936 0.070130 -0.121328
C25   C     C_R   0.613230 0.126449 0.499942 0.922173
C26   C     C_R   0.601017 0.866568 0.499594 0.907502
C27   C     C_R   0.113182 0.626501 0.500005 0.910336
C28   C     C_R   0.100891 0.366513 0.499595 0.898641
C29   C     C_R   0.575986 0.998931 0.926994 -0.113916
C30   C     C_R   0.075985 0.498922 0.926994 -0.114376
C31   C     C_R   0.302320 0.209585 0.756129 -0.161489
C32   C     C_R   0.209868 0.944324 0.533646 -0.193048
C33   C     C_R   0.802340 0.709571 0.756149 -0.161850
C34   C     C_R   0.876479 0.618733 0.501688 0.852484
C35   C     C_R   0.709886 0.444513 0.533753 -0.193617
C36   C     C_R   0.254343 0.225355 0.875195 -0.196421
C37   C     C_R   0.125336 0.979502 0.547945 -0.213143
C38   C     C_R   0.754363 0.725349 0.875212 -0.196817
C39   C     C_R   0.625342 0.479795 0.547654 -0.212718
C40   C     C_R   0.663606 0.739676 0.870519 -0.162794
C41   C     C_R   0.554960 0.423032 0.543232 -0.103645
C42   C     C_R   0.163582 0.239665 0.870510 -0.162463
C43   C     C_R   0.055033 0.922659 0.543779 -0.104328
C44   C     C_R   0.621546 0.747800 0.746441 0.226439
C45   C     C_R   0.254610 0.190365 0.383678 -0.228938
C46   C     C_R   0.568330 0.329759 0.525808 0.188971
C47   C     C_R   0.121514 0.247774 0.746435 0.226250
C48   C     C_R   0.068459 0.829412 0.526064 0.189395
C49   C     C_R   0.672822 0.743319 0.625185 0.047075
C50   C     C_R   0.655797 0.290703 0.514396 0.023523
C51   C     C_R   0.172783 0.243296 0.625175 0.048076
C52   C     C_R   0.155958 0.790369 0.514479 0.020231
C53   C     C_R   0.259794 0.209581 0.629330 0.051168
C54   C     C_R   0.226348 0.850755 0.516868 0.074843
C55   C     C_R   0.759819 0.709582 0.629343 0.051275
C56   C     C_R   0.332874 0.726923 0.480803 -0.243358
C57   C     C_R   0.726295 0.350937 0.516933 0.074453
C58   C     C_R   0.299217 0.178442 0.505762 -0.162894
C59   C     C_R   0.312804 0.817202 0.500192 -0.093719
C60   C     C_R   0.799228 0.678433 0.505769 -0.162757
C61   C     C_R   0.812759 0.317211 0.500295 -0.097108
C62   C     C_3   0.522250 0.752329 0.747432 -0.866351
C63   C     C_3   0.487278 0.276842 0.518614 -0.941607
C64   C     C_3   0.022215 0.252297 0.747434 -0.864435
C65   C     C_3   0.987372 0.776568 0.518918 -0.941037
C66   C     C_3   0.630355 0.749368 0.246755 -0.893395
C67   C     C_R   0.754622 0.690355 0.383687 -0.228375
C68   C     C_3   0.791229 0.066421 0.464499 -0.884668
C69   C     C_3   0.130327 0.249346 0.246744 -0.891847
C70   C     C_3   0.295480 0.566913 0.467490 -0.888598
C71   C     C_R   0.832712 0.226870 0.480503 -0.226779
C72   C     C_R   0.676374 0.739492 0.379803 0.193477
H1    H     H_    0.638106 0.997999 0.872047 0.158858
H2    H     H_    0.614331 0.551594 0.560560 0.161119
H3    H     H_    0.638165 0.998079 0.122801 0.150534
H4    H     H_    0.138164 0.498057 0.122795 0.155048
H5    H     H_    0.196752 0.001192 0.128792 0.157497
H6    H     H_    0.696751 0.501192 0.128793 0.157348
H7    H     H_    0.280821 0.162393 0.289838 0.177344
H8    H     H_    0.400963 0.704430 0.465782 0.135778
H9    H     H_    0.780821 0.662369 0.289849 0.177227
H10   H     H_    0.900796 0.204562 0.465227 0.128761
H11   H     H_    0.197128 0.001220 0.880168 0.162151
H12   H     H_    0.138105 0.497982 0.872048 0.161263
H13   H     H_    0.697129 0.501220 0.880167 0.161892
H14   H     H_    0.332677 0.001906 0.756463 0.211788
H15   H     H_    0.832682 0.501906 0.756469 0.211701
H16   H     H_    0.625649 0.745144 0.963269 0.150425
H17   H     H_    0.489157 0.452656 0.552904 0.134861
H18   H     H_    0.125629 0.245130 0.963264 0.150349
H19   H     H_    0.989235 0.952202 0.553937 0.135260
H20   H     H_    0.498322 0.814653 0.799576 0.270184
H21   H     H_    0.495498 0.749774 0.644151 0.215838
H22   H     H_    0.496353 0.693579 0.802564 0.221184
H23   H     H_    0.372563 0.200282 0.766630 0.175530
H24   H     H_    0.487239 0.240723 0.420465 0.253275
H25   H     H_    0.486839 0.232443 0.607286 0.251294
H26   H     H_    0.425849 0.319116 0.523922 0.234938
H27   H     H_    0.998288 0.314646 0.799511 0.269860
H28   H     H_    0.995448 0.249679 0.644157 0.215825
H29   H     H_    0.996327 0.193577 0.802649 0.222002
H30   H     H_    0.987274 0.740512 0.420734 0.253347
H31   H     H_    0.986924 0.732195 0.607602 0.251697
H32   H     H_    0.925960 0.818858 0.524269 0.234644
H33   H     H_    0.559634 0.768757 0.260870 0.251499
H34   H     H_    0.262299 0.991636 0.535398 0.137495
H35   H     H_    0.664083 0.800481 0.184844 0.245469
H36   H     H_    0.632252 0.683920 0.191794 0.221225
H37   H     H_    0.768155 0.028185 0.553562 0.242811
H38   H     H_    0.760733 0.039029 0.371991 0.251455
H39   H     H_    0.863764 0.055243 0.454823 0.223376
H40   H     H_    0.059613 0.268770 0.260842 0.251731
H41   H     H_    0.164079 0.300430 0.184808 0.245709
H42   H     H_    0.132199 0.183884 0.191818 0.221024
H43   H     H_    0.240942 0.518849 0.474276 0.252883
H44   H     H_    0.328976 0.556383 0.368144 0.236744
H45   H     H_    0.872578 0.700248 0.766667 0.175709
H46   H     H_    0.342820 0.549254 0.548361 0.226682
H47   H     H_    0.331513 0.000599 0.248891 0.210276
H48   H     H_    0.831513 0.500598 0.248892 0.210211
H49   H     H_    0.762381 0.491743 0.535712 0.137707
H50   H     H_    0.287194 0.222929 0.971633 0.157665
H51   H     H_    0.114277 0.051281 0.560991 0.160764
H52   H     H_    0.787209 0.722911 0.971652 0.157839
N1    N     N_R   0.498810 0.000000 0.142780 -0.121013
N2    N     N_R   0.998810 0.500000 0.142780 -0.120824
N3    N     N_R   0.498740 0.000000 0.857170 -0.131280
N4    N     N_R   0.998740 0.500000 0.857170 -0.131118
O1    O     O_R   0.408390 0.908380 0.614690 -0.646338
O2    O     O_R   0.591620 0.908390 0.614640 -0.602468
O3    O     O_R   0.091620 0.591610 0.614640 -0.605564
O4    O     O_R   0.091620 0.408390 0.614640 -0.601623
O5    O     O_R   0.591610 0.091610 0.385310 -0.604419
O6    O     O_R   0.591610 0.908390 0.385310 -0.603594
O7    O     O_R   0.091610 0.591610 0.385310 -0.601197
O8    O     O_R   0.091610 0.408390 0.385310 -0.604916
O9    O     O_R   0.408390 0.091620 0.614690 -0.652492
O10   O     O_R   0.908390 0.408380 0.614690 -0.646294
O11   O     O_R   0.908390 0.591620 0.614690 -0.652548
O12   O     O_R   0.408370 0.908380 0.385360 -0.641141
O13   O     O_R   0.408370 0.091620 0.385360 -0.637611
O14   O     O_R   0.908370 0.408380 0.385360 -0.640760
O15   O     O_R   0.908370 0.591620 0.385360 -0.637649
O16   O     O_R   0.591620 0.091610 0.614640 -0.607775
Zn1   Zn    Zn3+2 0.500010 1.000000 0.653130 0.913545
Zn2   Zn    Zn3+2 0.000010 0.500000 0.653130 0.914546
Zn3   Zn    Zn3+2 0.499980 0.000000 0.346870 0.923266
Zn4   Zn    Zn3+2 0.999980 0.500000 0.346870 0.924866

loop_
_geom_bond_atom_site_label_1
_geom_bond_atom_site_label_2
_ccdc_geom_bond_type
C44   C49   A    
C33   C55   A    
C41   H17   S    
O11   Zn2   S    
C33   H45   S    
C22   C29   A    
C27   O3    A    
C19   N4    A    
C23   O10   A    
C36   C42   A    
C66   H35   S    
C4    C8    A    
C4    C70   S    
C39   C41   A    
O6    Zn3   S    
C69   H41   S    
C22   H3    S    
O9    Zn1   S    
C3    C69   S    
C70   H46   S    
C5    C72   A    
C1    O1    A    
C1    C59   S    
C69   H40   S    
C6    C25   S    
C29   H1    S    
C34   O11   A    
C12   O13   A    
O3    Zn2   S    
C15   C17   A    
C67   C72   A    
C39   H2    S    
C11   H5    S    
C17   C19   A    
C37   H51   S    
C2    C68   S    
C64   H27   S    
C66   C72   S    
C60   C67   A    
C62   H20   S    
C41   C46   A    
C23   O14   A    
O5    Zn3   S    
C48   C65   S    
C25   O5    A    
C43   C48   A    
C8    C52   A    
C31   C36   A    
O1    Zn1   S    
C26   O2    A    
C15   H13   S    
C71   H10   S    
C12   C58   S    
C61   C71   A    
C17   H15   S    
C55   C60   A    
C4    C56   A    
O2    Zn1   S    
C34   C60   S    
C5    C49   A    
C2    C6    A    
C65   H30   S    
O12   Zn3   S    
C32   C54   A    
C52   C54   A    
O10   Zn2   S    
C54   C59   A    
C10   C21   A    
C64   H29   S    
C34   O15   A    
C30   N4    A    
C69   H42   S    
C14   H11   S    
O14   Zn4   S    
C35   H49   S    
N1    Zn3   S    
C47   C64   S    
C27   O7    A    
N2    Zn4   S    
C24   H4    S    
C22   N1    A    
C47   C51   A    
C70   H44   S    
C49   C55   A    
C63   H24   S    
C3    C45   A    
C43   H19   S    
C7    C28   S    
C28   O4    A    
C68   H39   S    
C37   C43   A    
C35   C39   A    
C62   H22   S    
C26   O6    A    
C18   N3    A    
C9    C20   A    
C23   C61   S    
C45   H7    S    
C68   H38   S    
C32   C37   A    
C31   C53   A    
C9    C11   A    
O8    Zn4   S    
C1    O12   A    
N3    Zn1   S    
C67   H9    S    
C13   C15   A    
C9    H47   S    
C14   C16   A    
C25   O16   A    
C65   H31   S    
C66   H33   S    
C45   C58   A    
C24   N2    A    
C13   H6    S    
C68   H37   S    
C6    C50   A    
C19   C21   A    
C28   O8    A    
C50   C57   A    
C66   H36   S    
O16   Zn1   S    
C10   C13   A    
C53   C58   A    
C57   C61   A    
C70   H43   S    
C63   H26   S    
C46   C50   A    
C3    C7    A    
C33   C38   A    
C56   H8    S    
C56   C59   A    
C46   C63   S    
C35   C57   A    
C44   C62   S    
C40   H16   S    
C29   N3    A    
C64   H28   S    
O4    Zn2   S    
C20   N1    A    
C63   H25   S    
C36   H50   S    
C38   C40   A    
N4    Zn2   S    
C16   H14   S    
C31   H23   S    
C11   C14   A    
C18   C20   A    
C42   C47   A    
C30   H12   S    
C24   C30   A    
O15   Zn4   S    
C10   H48   S    
O13   Zn3   S    
C51   C53   A    
C7    C51   A    
C5    C26   S    
C40   C44   A    
C16   C18   A    
O7    Zn4   S    
C62   H21   S    
C8    C27   S    
C12   O9    A    
C32   H34   S    
C65   H32   S    
C42   H18   S    
C21   N2    A    
C48   C52   A    
C38   H52   S    
C2    C71   A    
