data_mof_unit_59207.cif
_audit_creation_date              2012-12-10T20:28:45-0500
_audit_creation_method            fapswitch 2.2
_symmetry_space_group_name_H-M    P1
_symmetry_Int_Tables_number       1
_space_group_crystal_system       triclinic
_cell_length_a                    10.622271
_cell_length_b                    10.627742
_cell_length_c                    9.884585
_cell_angle_alpha                 89.748027
_cell_angle_beta                  89.88672
_cell_angle_gamma                 90.724842
_cell_volume                      1115.77588037

loop_
_atom_site_label
_atom_site_type_symbol
_atom_type_description
_atom_site_fract_x
_atom_site_fract_y
_atom_site_fract_z
_atom_type_partial_charge
C1    C     C_R   0.507569 0.259796 0.499866 0.901781
C2    C     C_R   0.562130 0.934440 0.378271 -0.337907
C3    C     C_R   0.537786 0.870686 0.500042 -0.163329
C4    C     C_R   0.260607 0.502920 0.499862 0.923738
C5    C     C_R   0.546599 0.935253 0.621853 0.112960
C6    C     C_3   0.467920 0.925656 0.747015 -0.454304
C7    C     C_3   0.464249 0.067936 0.744985 -0.461970
C8    C     C_R   0.420137 0.423066 0.072391 0.217535
C9    C     C_R   0.585580 0.569311 0.071277 -0.148799
C10   C     C_R   0.585178 0.569888 0.927464 -0.127468
C11   C     C_R   0.421338 0.419131 0.929897 0.174421
C12   C     C_R   0.067378 0.611445 0.562117 0.031805
C13   C     C_3   0.278398 0.413838 0.929279 -0.098341
C14   C     C_3   0.281598 0.425793 0.082548 -0.521815
C15   C     C_R   0.507449 0.740013 0.499808 0.876032
C16   C     C_R   0.739349 0.503966 0.499857 0.883861
C17   C     C_R   0.134275 0.714091 0.619757 -0.161635
C18   C     C_R   0.070343 0.813888 0.678502 -0.152131
C19   C     C_R   0.939392 0.813872 0.679994 -0.149179
C20   C     C_R   0.872057 0.714281 0.622381 -0.170187
C21   C     C_R   0.935603 0.611905 0.563065 0.099104
C22   C     C_3   0.105399 0.200425 0.414214 0.085602
C23   C     C_R   0.128197 0.509888 0.498881 -0.231641
C24   C     C_3   0.092085 0.107231 0.298644 -0.855456
C25   C     C_3   0.219683 0.284720 0.891573 -0.346902
C26   C     C_3   0.176396 0.277628 0.745639 -0.894854
C27   C     C_3   0.704174 0.125019 0.212781 0.093020
C28   C     C_3   0.725695 0.222719 0.101924 -0.798202
C29   C     C_R   0.062475 0.412679 0.433610 0.465680
C30   C     C_R   0.933305 0.416552 0.431373 -0.317328
C31   C     C_R   0.871532 0.511696 0.499398 -0.166672
C32   C     C_R   0.544998 0.063620 0.621246 0.067736
C33   C     C_R   0.537608 0.128942 0.499030 -0.227567
C34   C     C_R   0.565454 0.065351 0.377233 0.458964
H1    H     H_    0.521468 0.887115 0.834054 0.201429
H2    H     H_    0.122544 0.892057 0.721702 0.126612
H3    H     H_    0.889784 0.891931 0.724437 0.132240
H4    H     H_    0.770528 0.719766 0.622594 0.138521
H5    H     H_    0.880856 0.344014 0.377998 0.163269
H6    H     H_    0.568146 0.884607 0.283120 0.181869
H7    H     H_    0.374361 0.880752 0.729397 0.195484
H8    H     H_    0.020652 0.190741 0.480490 0.123854
H9    H     H_    0.189027 0.173924 0.474669 0.154597
H10   H     H_    0.178468 0.109292 0.235073 0.263271
H11   H     H_    0.077921 0.010671 0.339847 0.218749
H12   H     H_    0.368898 0.103239 0.722796 0.205098
H13   H     H_    0.009919 0.131898 0.234988 0.241987
H14   H     H_    0.108317 0.353433 0.724283 0.265957
H15   H     H_    0.257966 0.284777 0.676492 0.280762
H16   H     H_    0.128621 0.185580 0.728257 0.219619
H17   H     H_    0.286252 0.207565 0.913737 0.206765
H18   H     H_    0.134366 0.267337 0.954840 0.219483
H19   H     H_    0.725684 0.030505 0.171320 0.134846
H20   H     H_    0.770652 0.146955 0.297011 0.120107
H21   H     H_    0.709127 0.318391 0.142451 0.268163
H22   H     H_    0.824210 0.217946 0.064650 0.199523
H23   H     H_    0.513223 0.112274 0.832203 0.208049
H24   H     H_    0.660482 0.205026 0.016215 0.243728
H25   H     H_    0.653108 0.627352 0.124996 0.147898
H26   H     H_    0.652101 0.628636 0.872881 0.148535
H27   H     H_    0.234372 0.496229 0.879100 0.197263
H28   H     H_    0.246654 0.517880 0.118965 0.209446
H29   H     H_    0.245609 0.342968 0.140186 0.256067
H30   H     H_    0.235873 0.719578 0.617795 0.140832
N1    N     N_R   0.499160 0.499140 0.142800 -0.105744
N2    N     N_R   0.499160 0.499180 0.857150 -0.115102
O1    O     O_R   0.500020 0.316790 0.614690 -0.623233
O2    O     O_3   0.577338 0.129079 0.255441 -0.585443
O3    O     O_R   0.500000 0.316760 0.385350 -0.546763
O4    O     O_R   0.316770 0.500020 0.614690 -0.635919
O5    O     O_R   0.316760 0.499980 0.385350 -0.582322
O6    O     O_R   0.500000 0.683240 0.614650 -0.633380
O7    O     O_R   0.499980 0.683210 0.385310 -0.625042
O8    O     O_R   0.683240 0.500020 0.614650 -0.623819
O9    O     O_R   0.683230 0.499980 0.385310 -0.625382
O10   O     O_3   0.125999 0.322464 0.359995 -0.616728
Zn1   Zn    Zn3+2 0.500010 0.500020 0.653130 0.929265
Zn2   Zn    Zn3+2 0.499990 0.499980 0.346870 0.969038

loop_
_geom_bond_atom_site_label_1
_geom_bond_atom_site_label_2
_ccdc_geom_bond_type
C16   O9    A    
C19   C20   A    
O1    Zn1   S    
C22   O10   S    
C4    O4    A    
C28   H22   S    
C27   H20   S    
C1    C33   S    
C29   O10   S    
C16   C31   S    
C15   O6    A    
C21   C31   A    
C12   C23   A    
C29   C30   A    
C16   O8    A    
C24   H11   S    
C23   C29   A    
C26   H16   S    
C17   H30   S    
C30   C31   A    
C14   H28   S    
C6    H1    S    
C18   C19   A    
C27   O2    S    
C19   H3    S    
C6    H7    S    
C12   C17   A    
O7    Zn2   S    
N1    Zn2   S    
C9    C10   A    
C11   N2    A    
C26   H14   S    
C5    C32   A    
C2    C34   A    
C8    N1    A    
C13   C14   S    
O4    Zn1   S    
C13   C25   S    
O3    Zn2   S    
C28   H21   S    
C33   C34   A    
C10   N2    A    
C7    H12   S    
C26   H15   S    
C34   O2    S    
C4    C23   S    
C25   C26   S    
C12   C21   A    
O8    Zn1   S    
C1    O3    A    
C9    H25   S    
C10   H26   S    
C25   H17   S    
O6    Zn1   S    
C20   H4    S    
C22   H9    S    
C17   C18   A    
C15   O7    A    
C24   H10   S    
C22   C24   S    
C3    C15   S    
N2    Zn1   S    
C8    C14   S    
C7    C32   S    
C24   H13   S    
C3    C5    A    
C27   H19   S    
C6    C7    S    
C28   H24   S    
C32   C33   A    
C2    C3    A    
C25   H18   S    
C11   C13   S    
C22   H8    S    
C8    C11   A    
C14   H29   S    
C1    O1    A    
C30   H5    S    
O5    Zn2   S    
O9    Zn2   S    
C9    N1    A    
C2    H6    S    
C13   H27   S    
C20   C21   A    
C27   C28   S    
C5    C6    S    
C18   H2    S    
C7    H23   S    
C4    O5    A    
