data_mof_unit_6326.cif
_audit_creation_date              2013-03-05T15:48:11-0500
_audit_creation_method            fapswitch 2.2
_symmetry_space_group_name_H-M    P1
_symmetry_Int_Tables_number       1
_space_group_crystal_system       triclinic
_cell_length_a                    20.857305
_cell_length_b                    7.128409
_cell_length_c                    14.107717
_cell_angle_alpha                 90.004175
_cell_angle_beta                  98.192739
_cell_angle_gamma                 89.779067
_cell_volume                      2076.10449872

loop_
_atom_site_label
_atom_site_type_symbol
_atom_site_description
_atom_site_fract_x
_atom_site_fract_y
_atom_site_fract_z
_atom_type_partial_charge
O1    O     O_R   0.447130 0.507140 0.597350 -0.597235
O2    O     O_R   0.552870 0.007140 0.402650 -0.563106
O3    O     O_R   0.578910 0.181280 0.586990 -0.576216
O4    O     O_R   0.421090 0.681280 0.413010 -0.590847
C1    C     C_R   0.604619 0.344266 0.607015 1.043915
C2    C     C_R   0.395412 0.844674 0.392928 1.043631
O5    O     O_R   0.449230 0.177860 0.608640 -0.561582
O6    O     O_R   0.550770 0.677860 0.391360 -0.594871
O7    O     O_R   0.422260 0.000770 0.424450 -0.576912
O8    O     O_R   0.577740 0.500770 0.575550 -0.592706
C3    C     C_R   0.432547 0.346382 0.633972 1.125300
C4    C     C_R   0.567562 0.846119 0.366134 1.124137
O9    O     O_3   0.491310 0.336980 0.439550 -0.276554
O10   O     O_3   0.508690 0.836980 0.560450 -0.279936
V1    V     V_3+5 0.501610 0.064760 0.511210 1.343944
V2    V     V_3+5 0.498390 0.564760 0.488790 1.317561
C5    C     C_R   0.610717 0.848034 0.116221 0.510164
C6    C     C_R   0.389235 0.394934 0.882599 0.511773
C7    C     C_R   0.605395 0.853724 0.286673 -0.450664
C8    C     C_R   0.394690 0.356943 0.713301 -0.451373
C9    C     C_R   0.915105 0.819712 0.300705 0.181664
C10   C     C_R   0.084781 0.381194 0.697835 0.179960
C11   C     C_R   0.877106 0.749034 0.366837 0.361884
C12   C     C_R   0.122577 0.437784 0.628452 0.364697
C13   C     C_R   0.809812 0.727298 0.340565 0.243541
C14   C     C_R   0.189731 0.464141 0.653595 0.243915
C15   C     C_R   0.779285 0.803439 0.252140 -0.031439
C16   C     C_R   0.220531 0.405309 0.745463 -0.032694
C17   C     C_R   0.818018 0.845512 0.180098 -0.154814
C18   C     C_R   0.181939 0.375809 0.819122 -0.155237
C19   C     C_R   0.710759 0.830629 0.231978 -0.020434
C20   C     C_R   0.289180 0.383761 0.767017 -0.023454
C21   C     C_R   0.679779 0.834169 0.135006 -0.291637
C22   C     C_R   0.320033 0.398811 0.863709 -0.291426
C23   C     C_R   0.719676 0.835851 0.061779 0.483550
C24   C     C_R   0.280064 0.405380 0.936862 0.482718
C25   C     C_R   0.786300 0.868422 0.084851 0.225374
C26   C     C_R   0.213692 0.367330 0.915032 0.221876
C27   C     C_R   0.672818 0.866728 0.305710 0.450467
C28   C     C_R   0.327520 0.335244 0.695473 0.447875
C29   C     C_R   0.574025 0.843173 0.192290 0.168574
C30   C     C_R   0.425738 0.390693 0.806337 0.168133
C31   C     C_R   0.886823 0.854294 0.205441 -0.357922
C32   C     C_R   0.113160 0.364773 0.794350 -0.359617
C33   C     C_1   0.165893 0.855442 0.170044 -0.085183
C34   C     C_1   0.834249 0.358455 0.829505 -0.086600
C35   C     C_1   0.218318 0.853404 0.221166 0.185437
C36   C     C_1   0.781828 0.356010 0.778388 0.181912
C37   C     C_1   0.280234 0.852960 0.280757 0.184877
C38   C     C_1   0.719871 0.353708 0.718930 0.183876
C39   C     C_1   0.332805 0.851377 0.331508 -0.141714
C40   C     C_1   0.667260 0.350751 0.668319 -0.141670
O11   O     O_R   0.922300 0.202240 0.924350 -0.552276
O12   O     O_R   0.077700 0.702240 0.075650 -0.558683
O13   O     O_R   0.050780 0.535130 0.891350 -0.584158
O14   O     O_R   0.949220 0.035130 0.108650 -0.584874
C41   C     C_R   0.069583 0.368465 0.867847 1.090004
C42   C     C_R   0.930498 0.868064 0.132287 1.093604
O15   O     O_R   0.921100 0.531560 0.912990 -0.562076
O16   O     O_R   0.078900 0.031560 0.087010 -0.556246
O17   O     O_R   0.947120 0.708470 0.097370 -0.585161
O18   O     O_R   0.052880 0.208470 0.902630 -0.586474
C43   C     C_R   0.896375 0.363870 0.892250 1.023476
C44   C     C_R   0.103693 0.862979 0.107537 1.026095
O19   O     O_3   0.008710 0.375800 0.060400 -0.265829
O20   O     O_3   0.991290 0.875800 0.939600 -0.269581
V3    V     V_3+5 0.998380 0.648080 0.988790 1.344903
V4    V     V_3+5 0.001620 0.148080 0.011210 1.349206
N1    N     N_R   0.504406 0.845194 0.173328 0.260260
O21   O     O_R   0.473828 0.721498 0.116252 -0.236581
O22   O     O_R   0.471475 0.975233 0.209882 -0.362955
N2    N     N_R   0.495179 0.403736 0.824821 0.260067
O23   O     O_R   0.522463 0.544788 0.873032 -0.241835
O24   O     O_R   0.531278 0.270804 0.797349 -0.358764
Cl1   Cl    Cl    0.691120 0.793807 0.939226 -0.448568
Cl2   Cl    Cl    0.308188 0.463761 0.057726 -0.453570
Cl3   Cl    Cl    0.567250 0.907030 0.002886 -0.347231
Cl4   Cl    Cl    0.433873 0.359005 0.997671 -0.348482
Cl5   Cl    Cl    0.706966 0.966998 0.416702 -0.549403
Cl6   Cl    Cl    0.294487 0.210742 0.590822 -0.547865
N3    N     N_R   0.983704 0.840376 0.328520 0.261906
O25   O     O_R   0.005480 0.952446 0.398444 -0.236618
O26   O     O_R   0.024236 0.735239 0.290287 -0.367864
N4    N     N_R   0.016290 0.355574 0.671137 0.261551
O27   O     O_R   0.995080 0.230195 0.607401 -0.241010
O28   O     O_R   0.975243 0.468094 0.703592 -0.361174
N5    N     N_R   0.774173 0.605192 0.395705 0.269255
O29   O     O_R   0.733581 0.484201 0.352220 -0.358765
O30   O     O_R   0.782472 0.611192 0.488852 -0.270449
N6    N     N_R   0.224842 0.574571 0.592460 0.268496
O31   O     O_R   0.217126 0.548711 0.500216 -0.272480
O32   O     O_R   0.264215 0.705087 0.629337 -0.354159
Cl7   Cl    Cl    0.916331 0.666730 0.478502 -0.333992
Cl8   Cl    Cl    0.083194 0.497895 0.513046 -0.334101
N7    N     N_R   0.818542 0.949089 0.012285 0.231108
O33   O     O_R   0.810410 0.127486 0.995964 -0.409663
O34   O     O_R   0.837866 0.842677 0.946909 -0.360976
N8    N     N_R   0.181832 0.296190 0.990410 0.234925
O35   O     O_R   0.190016 0.119986 0.012384 -0.404520
O36   O     O_R   0.162753 0.410694 0.052558 -0.363385

loop_
_geom_bond_atom_site_label_1
_geom_bond_atom_site_label_2
_geom_bond_distance
_ccdc_geom_bond_type
O20   V4    2.185205 S    
N5    O29   1.301743 A    
C15   C17   1.418275 A    
N7    O33   1.298545 A    
O1    C3    1.311565 A    
C26   N8    1.426060 S    
O2    C4    1.311103 A    
C2    O7    1.297397 A    
N3    O25   1.301007 A    
C41   O18   1.309499 A    
C35   C37   1.437007 S    
O5    C3    1.313031 A    
C23   Cl1   1.772452 S    
C23   C25   1.401584 A    
C12   C14   1.408317 A    
C6    C30   1.404057 A    
C8    C28   1.396858 A    
O5    V1    2.038110 S    
C13   N5    1.444025 S    
C25   N7    1.424842 S    
N1    O22   1.301129 A    
O11   V4    1.950650 S    
C24   Cl2   1.772401 S    
C31   C42   1.474176 S    
O15   V3    1.987575 S    
C9    C31   1.409933 A    
N6    O32   1.301817 A    
C10   C32   1.409903 A    
C19   C27   1.416859 A    
C37   C39   1.221153 T    
C38   C40   1.221168 T    
C28   Cl6   1.776698 S    
C1    C40   1.461337 S    
C2    C39   1.461264 S    
C6    Cl4   1.770686 S    
C42   O17   1.304855 A    
C36   C38   1.437025 S    
O20   V3    1.762826 S    
O6    V2    2.041519 S    
C17   C31   1.430272 A    
C18   C32   1.429771 A    
C5    C21   1.430038 A    
C30   N2    1.437961 S    
N3    O26   1.300892 A    
C33   C35   1.221116 T    
C9    C11   1.402254 A    
C34   C36   1.221154 T    
C3    C8    1.460484 S    
C19   C21   1.427473 A    
C15   C19   1.429421 A    
C16   C20   1.428431 A    
N4    O27   1.300983 A    
N2    O24   1.301022 A    
O12   V3    1.953140 S    
O19   V3    2.183859 S    
C20   C22   1.427134 A    
O14   V4    2.041462 S    
C11   Cl7   1.767589 S    
C10   N4    1.436868 S    
O4    V2    1.982625 S    
C12   Cl8   1.767862 S    
O17   V3    2.034203 S    
C8    C30   1.399594 A    
C32   C41   1.473199 S    
O6    C4    1.314058 A    
O19   V4    1.763782 S    
C5    Cl3   1.771803 S    
O1    V2    2.031633 S    
O2    V1    2.029919 S    
C6    C22   1.430090 A    
C7    C27   1.396996 A    
O4    C2    1.294494 A    
C9    N3    1.436800 S    
N8    O36   1.300048 A    
O13   C41   1.307144 A    
C10   C12   1.401692 A    
C13   C15   1.423807 A    
O3    V1    1.987762 S    
C29   N1    1.438536 S    
C14   C16   1.424444 A    
N4    O28   1.300881 A    
N2    O23   1.300554 A    
O3    C1    1.295680 A    
O13   V3    2.038056 S    
N7    O34   1.300754 A    
C14   N6    1.443725 S    
C33   C44   1.461833 S    
O15   C43   1.319900 A    
O18   V4    2.035991 S    
C34   C43   1.462041 S    
O16   C44   1.322109 A    
C16   C18   1.418348 A    
O7    V1    1.968176 S    
C1    O8    1.296261 A    
O8    V2    1.965257 S    
O11   C43   1.323040 A    
N6    O31   1.301510 A    
O12   C44   1.320756 A    
C4    C7    1.461070 S    
C24   C26   1.402213 A    
C21   C23   1.415955 A    
O14   C42   1.312524 A    
C22   C24   1.416741 A    
C20   C28   1.416213 A    
N1    O21   1.300192 A    
C5    C29   1.404580 A    
C11   C13   1.408838 A    
O16   V4    1.982438 S    
N8    O35   1.298546 A    
O9    V2    1.764439 S    
C17   C25   1.419772 A    
N5    O30   1.301479 A    
O10   V1    1.763484 S    
C18   C26   1.420348 A    
C7    C29   1.399569 A    
C27   Cl5   1.776494 S    
