data_mof_unit_5532.cif
_audit_creation_date              2013-03-05T15:52:08-0500
_audit_creation_method            fapswitch 2.2
_symmetry_space_group_name_H-M    P1
_symmetry_Int_Tables_number       1
_space_group_crystal_system       triclinic
_cell_length_a                    6.958471
_cell_length_b                    19.599551
_cell_length_c                    23.409765
_cell_angle_alpha                 96.15038
_cell_angle_beta                  91.206134
_cell_angle_gamma                 88.629556
_cell_volume                      3172.85813393

loop_
_atom_site_label
_atom_site_type_symbol
_atom_site_description
_atom_site_fract_x
_atom_site_fract_y
_atom_site_fract_z
_atom_type_partial_charge
O1    O     O_R   0.617180 0.809390 0.808140 -0.555445
O2    O     O_R   0.382820 0.190610 0.191860 -0.555395
O3    O     O_R   0.293300 0.672410 0.795490 -0.597833
O4    O     O_R   0.706700 0.327590 0.204510 -0.597832
O5    O     O_R   0.117220 0.690610 0.691850 -0.566390
O6    O     O_R   0.882780 0.309390 0.308150 -0.566427
C1    C     C_R   0.464995 0.647977 0.805442 0.903052
C2    C     C_R   0.535005 0.352023 0.194558 0.903068
O7    O     O_R   0.287840 0.807750 0.814460 -0.571418
O8    O     O_R   0.712160 0.192250 0.185540 -0.571363
O9    O     O_R   0.111720 0.826910 0.710960 -0.562057
O10   O     O_R   0.888280 0.173090 0.289040 -0.562135
C3    C     C_R   0.456506 0.830801 0.833141 0.972311
C4    C     C_R   0.543494 0.169200 0.166858 0.972177
O11   O     O_R   0.622680 0.673080 0.789040 -0.598668
O12   O     O_R   0.377320 0.326920 0.210960 -0.598668
O13   O     O_3   0.448820 0.756130 0.716020 -0.244615
O14   O     O_3   0.551180 0.243870 0.283980 -0.244670
V1    V     V_3+5 0.176220 0.748860 0.756300 1.224370
V2    V     V_3+5 0.823780 0.251140 0.243700 1.224359
O15   O     O_R   0.781670 0.827580 0.704500 -0.578893
O16   O     O_R   0.218330 0.172420 0.295500 -0.578889
C5    C     C_R   0.947788 0.851898 0.694280 1.153201
C6    C     C_R   0.052211 0.148100 0.305717 1.153539
O17   O     O_R   0.787130 0.692240 0.685530 -0.580647
O18   O     O_R   0.212870 0.307760 0.314470 -0.580633
C7    C     C_R   0.956096 0.669192 0.666822 0.992421
C8    C     C_R   0.043904 0.330808 0.333177 0.992464
V3    V     V_3+5 0.675510 0.751130 0.743690 1.232451
V4    V     V_3+5 0.324490 0.248870 0.256310 1.232427
O19   O     O_3   0.952780 0.743870 0.783980 -0.278848
O20   O     O_3   0.047220 0.256130 0.216020 -0.278797
C9    C     C_1   0.966634 0.617165 0.614748 -0.255611
C10   C     C_1   0.033366 0.382836 0.385251 -0.255561
C11   C     C_1   0.978203 0.573667 0.571921 0.094335
C12   C     C_1   0.021797 0.426334 0.428078 0.094340
C13   C     C_1   0.993426 0.521863 0.521315 0.032128
C14   C     C_1   0.006574 0.478137 0.478685 0.032130
C15   C     C_R   0.946345 0.914440 0.663860 -0.449288
C16   C     C_R   0.053633 0.085547 0.336122 -0.449376
C17   C     C_R   0.871316 0.035682 0.663368 -0.148380
C18   C     C_R   0.128340 0.964282 0.336593 -0.148424
C19   C     C_R   0.872458 0.976595 0.691768 0.308839
C20   C     C_R   0.127222 0.023361 0.308178 0.308535
C21   C     C_R   0.009770 0.911840 0.606369 0.279481
C22   C     C_R   0.990363 0.088166 0.393631 0.279465
C23   C     C_R   0.980494 0.970324 0.574680 -0.026601
C24   C     C_R   0.019574 0.029675 0.425317 -0.026533
C25   C     C_R   0.928978 0.033903 0.606112 -0.076250
C26   C     C_R   0.070917 0.966083 0.393874 -0.076307
C27   C     C_R   0.000674 0.968737 0.513314 0.019925
C28   C     C_R   0.999437 0.031264 0.486687 0.019857
C29   C     C_R   0.988612 0.093317 0.522736 -0.159289
C30   C     C_R   0.011479 0.906681 0.477271 -0.159254
C31   C     C_R   0.941672 0.095172 0.580271 0.482377
C32   C     C_R   0.058269 0.904818 0.419725 0.482317
H1    H     H_    0.824534 0.083489 0.686912 0.217161
H2    H     H_    0.174896 0.916452 0.313040 0.217336
H3    H     H_    0.017956 0.141726 0.507301 0.208360
H4    H     H_    0.982190 0.858275 0.492720 0.208298
C33   C     C_R   0.485447 0.585882 0.835664 -0.098925
C34   C     C_R   0.514553 0.414118 0.164336 -0.098932
C35   C     C_R   0.590978 0.467257 0.833646 -0.151908
C36   C     C_R   0.409022 0.532743 0.166354 -0.151892
C37   C     C_R   0.553849 0.525220 0.805431 -0.155662
C38   C     C_R   0.446151 0.474780 0.194569 -0.155666
C39   C     C_R   0.455010 0.588333 0.895062 -0.243978
C40   C     C_R   0.544990 0.411667 0.104938 -0.243975
C41   C     C_R   0.496422 0.530128 0.925360 0.112250
C42   C     C_R   0.503578 0.469872 0.074640 0.112248
C43   C     C_R   0.564700 0.469259 0.893057 0.164874
C44   C     C_R   0.435300 0.530741 0.106942 0.164861
C45   C     C_R   0.475943 0.530331 0.986360 0.059499
C46   C     C_R   0.524057 0.469669 0.013640 0.059504
C47   C     C_R   0.590195 0.410808 0.978985 -0.192964
C48   C     C_R   0.409805 0.589192 0.021015 -0.192960
C49   C     C_R   0.609411 0.410779 0.920117 -0.212958
C50   C     C_R   0.390589 0.589221 0.079883 -0.212938
H5    H     H_    0.661615 0.364290 0.895447 0.150680
H6    H     H_    0.338385 0.635710 0.104553 0.150699
H7    H     H_    0.594791 0.363190 0.083728 0.104912
H8    H     H_    0.405209 0.636810 0.916272 0.104912
H9    H     H_    0.419831 0.477044 0.240201 0.119659
H10   H     H_    0.580170 0.522956 0.759799 0.119661
H11   H     H_    0.643978 0.420889 0.809014 0.140887
H12   H     H_    0.356023 0.579111 0.190986 0.140896
H13   H     H_    0.629451 0.363450 0.996027 0.136676
H14   H     H_    0.370549 0.636550 0.003973 0.136683
C51   C     C_1   0.467258 0.882892 0.885176 -0.249373
C52   C     C_1   0.532742 0.117108 0.114823 -0.249415
C53   C     C_1   0.478702 0.926402 0.928005 0.107936
C54   C     C_1   0.521297 0.073598 0.071994 0.107938
C55   C     C_1   0.493589 0.978163 0.978659 0.029519
C56   C     C_1   0.506411 0.021837 0.021341 0.029535
Cl1   Cl    Cl    0.910306 0.176909 0.619068 -0.576963
Cl2   Cl    Cl    0.089513 0.823072 0.380933 -0.576987
N1    N     N_R   0.875009 0.146295 0.416110 0.225144
O21   O     O_R   0.703826 0.137193 0.434918 -0.362051
O22   O     O_R   0.938061 0.208358 0.416740 -0.430805
N2    N     N_R   0.125296 0.853746 0.583910 0.225213
O23   O     O_R   0.062436 0.791659 0.583298 -0.430748
O24   O     O_R   0.296424 0.862906 0.565088 -0.362050
N3    N     N_R   0.192311 0.018175 0.249783 0.236020
O25   O     O_R   0.101838 0.050858 0.211410 -0.411016
O26   O     O_R   0.329068 0.974517 0.233197 -0.371655
N4    N     N_R   0.807057 0.981731 0.750122 0.235982
O27   O     O_R   0.898033 0.949343 0.788588 -0.410901
O28   O     O_R   0.669308 0.025039 0.766558 -0.371693

loop_
_geom_bond_atom_site_label_1
_geom_bond_atom_site_label_2
_geom_bond_distance
_ccdc_geom_bond_type
C35   C37   1.390400 A    
C55   C56   1.247263 T    
O6    C8    1.310980 A    
O13   V3    1.697237 S    
C45   C46   1.438129 A    
O4    C2    1.302233 A    
V1    O19   1.705908 S    
C18   H2    1.081654 S    
N1    O21   1.301398 A    
C29   H3    1.076228 S    
C23   C25   1.419866 A    
C30   H4    1.076247 S    
C7    C9    1.505022 S    
C16   C22   1.420539 A    
O9    V1    1.990764 S    
C40   H7    1.076926 S    
C11   C13   1.479182 S    
C48   C50   1.387299 A    
O3    C1    1.302234 A    
C9    C11   1.247167 T    
C50   H6    1.084412 S    
N4    O27   1.301487 A    
O12   V4    1.998411 S    
C21   C23   1.438904 A    
C17   C25   1.403817 A    
C41   C43   1.419696 A    
O7    C3    1.316912 A    
C4    C52   1.505042 S    
C44   C50   1.393567 A    
C6    C16   1.481875 S    
C38   H9    1.083673 S    
O5    C7    1.310978 A    
O7    V1    1.857642 S    
C1    C33   1.474419 S    
O8    V2    1.857642 S    
C42   C46   1.437648 A    
O3    V1    1.988786 S    
O14   V4    1.697237 S    
C51   C53   1.247190 T    
C48   H14   1.076075 S    
C10   C12   1.247167 T    
C15   C21   1.420523 A    
C24   C26   1.419892 A    
C8    C10   1.505022 S    
C2    O12   1.295179 A    
C35   H11   1.083999 S    
C17   C19   1.395545 A    
C18   C20   1.395599 A    
C36   H12   1.083997 S    
N1    O22   1.301451 A    
C20   N3    1.441637 S    
O11   V3    1.998409 S    
C22   C24   1.438917 A    
C29   C31   1.389095 A    
O17   V3    1.858522 S    
C30   C32   1.389061 A    
C46   C47   1.410891 A    
C34   C38   1.395655 A    
C27   C28   1.432981 A    
C31   Cl1   1.766000 S    
O8    C4    1.316913 A    
C37   H10   1.083671 S    
C15   C19   1.410255 A    
C1    O11   1.295179 A    
C25   C31   1.406677 A    
O15   V3    2.002139 S    
C26   C32   1.406703 A    
C39   C41   1.427061 A    
C19   N4    1.441466 S    
C36   C38   1.390399 A    
C13   C14   1.247233 T    
C53   C55   1.479223 S    
C33   C39   1.406503 A    
C52   C54   1.247189 T    
C16   C20   1.410350 A    
O10   V2    1.990764 S    
O1    V3    1.838319 S    
C49   H5    1.084413 S    
N3    O26   1.301511 A    
C41   C45   1.437650 A    
C47   C49   1.387296 A    
C18   C26   1.403826 A    
C47   H13   1.076075 S    
C22   N1    1.436950 S    
C35   C43   1.402848 A    
O18   V4    1.858524 S    
O15   C5    1.297304 A    
C45   C48   1.410890 A    
O16   C6    1.297311 A    
O1    C3    1.311923 A    
C43   C49   1.393568 A    
C28   C29   1.405491 A    
N2    O24   1.301398 A    
V2    O20   1.705908 S    
C32   Cl2   1.766014 S    
O16   V4    2.002142 S    
C3    C51   1.505041 S    
C21   N2    1.436962 S    
C23   C27   1.443288 A    
O5    V1    1.837273 S    
O17   C7    1.316097 A    
O6    V2    1.837271 S    
O10   C6    1.299628 A    
O18   C8    1.316095 A    
C34   C40   1.406503 A    
O2    V4    1.838318 S    
C27   C30   1.405450 A    
C12   C14   1.479182 S    
C17   H1    1.081678 S    
V3    O19   2.138068 S    
V4    O20   2.138070 S    
C54   C56   1.479223 S    
N4    O28   1.301521 A    
C5    C15   1.481890 S    
O9    C5    1.299642 A    
N2    O23   1.301446 A    
O13   V1    2.150492 S    
O14   V2    2.150491 S    
C36   C44   1.402850 A    
O2    C4    1.311925 A    
O4    V2    1.988786 S    
C33   C37   1.395656 A    
C24   C28   1.443338 A    
C39   H8    1.076927 S    
C40   C42   1.427062 A    
N3    O25   1.301450 A    
C42   C44   1.419696 A    
C2    C34   1.474421 S    
