data_mof_unit_59087.cif
_audit_creation_date              2012-12-10T17:24:51-0500
_audit_creation_method            fapswitch 2.2
_symmetry_space_group_name_H-M    P1
_symmetry_Int_Tables_number       1
_space_group_crystal_system       triclinic
_cell_length_a                    10.274575
_cell_length_b                    10.454424
_cell_length_c                    19.141417
_cell_angle_alpha                 92.139664
_cell_angle_beta                  81.285416
_cell_angle_gamma                 94.725104
_cell_volume                      2024.782274

loop_
_atom_site_label
_atom_site_type_symbol
_atom_type_description
_atom_site_fract_x
_atom_site_fract_y
_atom_site_fract_z
_atom_type_partial_charge
C1    C     C_R   0.553972 0.734610 0.500031 0.928793
C2    C     C_R   0.500723 0.502227 0.365895 0.847682
C3    C     C_R   0.396066 0.409993 0.750977 -0.040511
C4    C     C_R   0.604754 0.570045 0.245059 -0.024980
C5    C     C_R   0.397832 0.405412 0.824463 0.129248
C6    C     C_R   0.602157 0.563845 0.171430 0.120950
C7    C     C_R   0.498377 0.479929 0.854248 0.027171
C8    C     C_R   0.498181 0.488187 0.145095 0.025337
C9    C     C_R   0.598753 0.554840 0.811673 -0.033063
C10   C     C_R   0.395584 0.422817 0.191068 -0.022292
C11   C     C_R   0.597101 0.554811 0.739425 -0.223312
C12   C     C_R   0.446132 0.265811 0.508332 0.904530
C13   C     C_R   0.397918 0.433859 0.263235 -0.275196
C14   C     C_R   0.496635 0.486021 0.709461 -0.121181
C15   C     C_R   0.501369 0.504063 0.290094 -0.138199
C16   C     C_R   0.494948 0.481589 0.069887 0.362886
C17   C     C_R   0.497260 0.480129 0.929738 0.360062
C18   C     C_2   0.295843 0.330343 0.716041 0.438825
C19   C     C_2   0.708984 0.651010 0.276267 0.434824
C20   C     C_3   0.296522 0.317219 0.869736 -0.727503
C21   C     C_3   0.705996 0.642826 0.122277 -0.727354
C22   C     C_2   0.706316 0.636971 0.839272 0.450349
C23   C     C_2   0.578852 0.871834 0.513302 -0.335084
C24   C     C_2   0.284734 0.339961 0.167148 0.432203
C25   C     C_2   0.597101 0.146155 0.604289 0.475320
C26   C     C_2   0.402815 0.873691 0.620484 0.458430
C27   C     C_3   0.099387 0.339842 0.478703 -0.779251
C28   C     C_3   0.885965 0.614720 0.562033 -0.804370
C29   C     C_2   0.421972 0.130567 0.525379 -0.487380
C30   C     C_2   0.497089 0.935005 0.562559 0.044353
C31   C     C_2   0.503925 0.074176 0.561798 -0.093404
C32   C     C_2   0.926504 0.508751 0.509123 0.223884
C33   C     C_2   0.067016 0.473476 0.504193 0.192846
C34   C     C_R   0.499017 0.496521 0.634011 0.885332
H1    H     H_    0.672694 0.612675 0.706074 0.152427
H2    H     H_    0.197612 0.354818 0.874212 0.279211
H3    H     H_    0.293478 0.218985 0.845575 0.245149
H4    H     H_    0.683769 0.647264 0.067642 0.246202
H5    H     H_    0.713811 0.743831 0.142266 0.244623
H6    H     H_    0.802960 0.601697 0.119145 0.277795
H7    H     H_    0.787155 0.680414 0.802359 0.074898
H8    H     H_    0.201370 0.306456 0.205702 0.068136
H9    H     H_    0.588861 0.246745 0.617498 0.062912
H10   H     H_    0.315734 0.921509 0.643131 0.053505
H11   H     H_    0.016269 0.279388 0.461525 0.185018
H12   H     H_    0.320452 0.383174 0.299131 0.143465
H13   H     H_    0.181023 0.344349 0.433551 0.248758
H14   H     H_    0.123278 0.287035 0.523648 0.261258
H15   H     H_    0.937336 0.707652 0.543644 0.201070
H16   H     H_    0.781850 0.630975 0.570493 0.295805
H17   H     H_    0.912153 0.593241 0.614344 0.212084
H18   H     H_    0.344716 0.073647 0.502624 0.165167
H19   H     H_    0.656269 0.924373 0.478111 0.148740
H20   H     H_    0.134244 0.641850 0.545782 0.162269
H21   H     H_    0.878091 0.390256 0.429830 0.157769
H22   H     H_    0.323488 0.288955 0.663621 0.032887
H23   H     H_    0.684266 0.700378 0.326847 0.052652
H24   H     H_    0.318108 0.306628 0.924091 0.238874
N1    N     N_R   0.408779 0.546869 0.972960 -0.129218
N2    N     N_R   0.583022 0.414262 0.026679 -0.132863
N3    N     N_R   0.407892 0.547914 0.042328 -0.127731
N4    N     N_R   0.583933 0.413245 0.957280 -0.126346
N5    N     N_2   0.842710 0.448880 0.471430 -0.188914
N6    N     N_2   0.157290 0.551120 0.528570 -0.186968
O1    O     O_R   0.431050 0.692470 0.505750 -0.587778
O2    O     O_2   0.823604 0.660145 0.247394 -0.558343
O3    O     O_2   0.705868 0.659888 0.902290 -0.556842
O4    O     O_2   0.285447 0.305228 0.105510 -0.552663
O5    O     O_2   0.682591 0.091813 0.626637 -0.550659
O6    O     O_2   0.425717 0.774899 0.646567 -0.561041
O7    O     O_R   0.568950 0.307530 0.494250 -0.597162
O8    O     O_R   0.651120 0.659650 0.487410 -0.615303
O9    O     O_R   0.348880 0.340350 0.512590 -0.616008
O10   O     O_R   0.389930 0.516430 0.611030 -0.559547
O11   O     O_R   0.610070 0.483570 0.388970 -0.604121
O12   O     O_R   0.610000 0.483610 0.592700 -0.639678
O13   O     O_R   0.390000 0.516390 0.407300 -0.606250
O14   O     O_2   0.181129 0.313485 0.744084 -0.545339
Zn1   Zn    Zn3+2 0.353060 0.521920 0.512240 0.967425
Zn2   Zn    Zn3+2 0.646940 0.478080 0.487760 0.954730

loop_
_geom_bond_atom_site_label_1
_geom_bond_atom_site_label_2
_ccdc_geom_bond_type
C27   H14   S    
C25   C31   S    
O1    Zn1   S    
C12   C29   S    
C24   H8    S    
C25   H9    S    
C26   H10   S    
C5    C20   S    
C19   H23   S    
C3    C18   S    
C30   C31   S    
C28   H17   S    
C9    C22   S    
C22   H7    S    
C19   O2    D    
N2    N4    A    
C16   N2    A    
C4    C19   S    
C28   H16   S    
C21   H4    S    
C7    C17   S    
H21   N5    S    
C1    O1    A    
O11   Zn2   S    
C18   H22   S    
C27   H11   S    
C8    C16   S    
C12   O9    A    
O7    Zn2   S    
C23   H19   S    
N5    Zn2   S    
O13   Zn1   S    
N1    N3    A    
C1    O8    A    
C23   C30   D    
C28   C32   S    
C4    C6    A    
C5    C7    A    
C6    C8    A    
C10   C24   S    
C6    C21   S    
C27   C33   S    
O8    Zn2   S    
C17   N4    A    
C28   H15   S    
C21   H5    S    
C18   O14   D    
O9    Zn1   S    
C2    C15   S    
C9    C11   A    
C3    C14   A    
C17   N1    A    
C12   O7    A    
C34   O10   A    
C1    C23   S    
O10   Zn1   S    
C13   C15   A    
C26   O6    D    
N6    Zn1   S    
C25   O5    D    
C16   N3    A    
C20   H24   S    
C27   H13   S    
C7    C9    A    
O12   Zn2   S    
C32   N5    D    
C3    C5    A    
C10   C13   A    
C14   C34   S    
C26   C30   S    
C32   C33   S    
C4    C15   A    
C11   H1    S    
C29   C31   D    
C2    O13   A    
C20   H3    S    
C13   H12   S    
C21   H6    S    
H20   N6    S    
C33   N6    D    
C11   C14   A    
C22   O3    D    
C24   O4    D    
C20   H2    S    
C8    C10   A    
C2    O11   A    
C34   O12   A    
C29   H18   S    
