data_mof_unit_65297.cif
_audit_creation_date              2012-12-10T19:46:04-0500
_audit_creation_method            fapswitch 2.2
_symmetry_space_group_name_H-M    P1
_symmetry_Int_Tables_number       1
_space_group_crystal_system       triclinic
_cell_length_a                    28.743997
_cell_length_b                    18.270011
_cell_length_c                    18.271122
_cell_angle_alpha                 89.945169
_cell_angle_beta                  130.636185
_cell_angle_gamma                 89.892602
_cell_volume                      7281.32452336

loop_
_atom_site_label
_atom_site_type_symbol
_atom_type_description
_atom_site_fract_x
_atom_site_fract_y
_atom_site_fract_z
_atom_type_partial_charge
C1    C     C_R   0.500395 0.000027 0.359167 0.931501
C2    C     C_R   0.500083 0.858903 0.000074 0.930238
C3    C     C_R   0.999917 0.641097 0.999926 0.930239
C4    C     C_R   0.000083 0.358903 0.000074 0.930238
C5    C     C_R   0.500500 0.000013 0.141611 0.929194
C6    C     C_R   0.499499 0.999987 0.858388 0.929195
C7    C     C_R   0.000500 0.500013 0.141611 0.929194
C8    C     C_R   0.999499 0.499987 0.858388 0.929195
C9    C     C_1   0.000192 0.217678 0.000128 -0.197604
C10   C     C_1   0.999807 0.782322 0.999872 -0.197603
C11   C     C_1   0.500193 0.717678 0.000128 -0.197604
C12   C     C_R   0.499605 0.999973 0.640833 0.931500
C13   C     C_1   0.499807 0.282322 0.999872 -0.197603
C14   C     C_1   0.500227 0.782447 0.000179 -0.187341
C15   C     C_1   0.499773 0.217553 0.999821 -0.187341
C16   C     C_1   0.000227 0.282447 0.000179 -0.187341
C17   C     C_1   0.999773 0.717553 0.999821 -0.187341
C18   C     C_R   0.618947 0.999767 0.624645 0.943257
C19   C     C_R   0.381053 0.000233 0.375355 0.943257
C20   C     C_R   0.118947 0.499767 0.624645 0.943257
C21   C     C_R   0.881053 0.500233 0.375355 0.943257
C22   C     C_2   0.785009 0.043950 0.830380 -0.428989
C23   C     C_R   0.000395 0.500027 0.359167 0.931501
C24   C     C_2   0.214991 0.956049 0.169620 -0.428988
C25   C     C_2   0.285009 0.543950 0.830380 -0.428990
C26   C     C_2   0.714991 0.456050 0.169620 -0.428987
C27   C     C_2   0.814443 0.006091 0.808209 0.331482
C28   C     C_2   0.185557 0.993908 0.191791 0.331481
C29   C     C_2   0.314443 0.506092 0.808209 0.331483
C30   C     C_2   0.685556 0.493908 0.191791 0.331481
C31   C     C_2   0.718036 0.055739 0.757212 0.614231
C32   C     C_2   0.281964 0.944260 0.242788 0.614231
C33   C     C_2   0.218036 0.555739 0.757213 0.614232
C34   C     C_R   0.999605 0.499973 0.640833 0.931500
C35   C     C_2   0.781964 0.444261 0.242787 0.614231
C36   C     C_2   0.684199 0.997272 0.704325 -0.348786
C37   C     C_2   0.315800 0.002728 0.295675 -0.348786
C38   C     C_2   0.184199 0.497272 0.704325 -0.348785
C39   C     C_2   0.815801 0.502728 0.295675 -0.348786
C40   C     C_1   0.501164 0.000071 0.283507 -0.176894
C41   C     C_1   0.498836 0.999929 0.716493 -0.176894
C42   C     C_1   0.001164 0.500071 0.283507 -0.176893
C43   C     C_1   0.998836 0.499929 0.716493 -0.176894
C44   C     C_1   0.501393 0.000056 0.218974 -0.182793
C45   C     C_R   0.880716 0.000295 0.879543 0.835072
C46   C     C_1   0.498607 0.999944 0.781026 -0.182793
C47   C     C_1   0.001393 0.500056 0.218974 -0.182793
C48   C     C_1   0.998607 0.499944 0.781026 -0.182793
C49   C     C_R   0.000070 0.141228 0.000045 0.928905
C50   C     C_R   0.999930 0.858772 0.999954 0.928905
C51   C     C_R   0.500070 0.641228 0.000045 0.928906
C52   C     C_R   0.499930 0.358772 0.999954 0.928906
C53   C     C_3   0.795449 0.912885 0.706930 -0.307639
C54   C     C_3   0.204550 0.087115 0.293069 -0.307638
C55   C     C_3   0.295449 0.412887 0.706928 -0.307638
C56   C     C_R   0.119284 0.999704 0.120457 0.835072
C57   C     C_3   0.704550 0.587114 0.293070 -0.307639
C58   C     C_3   0.729090 0.182029 0.780233 -0.273442
C59   C     C_3   0.270910 0.817971 0.219769 -0.273442
C60   C     C_3   0.229091 0.682028 0.780240 -0.273442
C61   C     C_3   0.770910 0.317971 0.219769 -0.273440
C62   C     C_R   0.380716 0.500296 0.879543 0.835072
C63   C     C_R   0.619284 0.499704 0.120457 0.835072
C64   C     C_R   0.499917 0.141097 0.999926 0.930239
H1    H     H_    0.810082 0.067829 0.901503 0.145666
H2    H     H_    0.839409 0.907177 0.721899 0.194259
H3    H     H_    0.758542 0.893628 0.632149 0.193759
H4    H     H_    0.160590 0.092824 0.278100 0.194259
H5    H     H_    0.204799 0.123489 0.244297 0.129461
H6    H     H_    0.241458 0.106372 0.367851 0.193759
H7    H     H_    0.295200 0.376512 0.755700 0.129461
H8    H     H_    0.339409 0.407179 0.721896 0.194260
H9    H     H_    0.258541 0.393631 0.632147 0.193758
H10   H     H_    0.660591 0.592823 0.278102 0.194260
H11   H     H_    0.704799 0.623489 0.244298 0.129461
H12   H     H_    0.189918 0.932170 0.098497 0.145667
H13   H     H_    0.741458 0.606371 0.367851 0.193758
H14   H     H_    0.753190 0.182479 0.751191 0.171900
H15   H     H_    0.762324 0.183083 0.860345 0.157874
H16   H     H_    0.701425 0.232972 0.755157 0.189457
H17   H     H_    0.237675 0.816916 0.139658 0.157874
H18   H     H_    0.246812 0.817522 0.248814 0.171900
H19   H     H_    0.298575 0.767028 0.244845 0.189456
H20   H     H_    0.253193 0.682480 0.751202 0.171900
H21   H     H_    0.262323 0.683080 0.860352 0.157873
H22   H     H_    0.201426 0.732971 0.755166 0.189457
H23   H     H_    0.310082 0.567828 0.901504 0.145665
H24   H     H_    0.737675 0.316916 0.139657 0.157874
H25   H     H_    0.746812 0.317522 0.248813 0.171900
H26   H     H_    0.798575 0.267029 0.244844 0.189456
H27   H     H_    0.689918 0.432171 0.098497 0.145667
H28   H     H_    0.705391 0.943524 0.721691 0.135106
H29   H     H_    0.294609 0.056475 0.278309 0.135107
H30   H     H_    0.205391 0.443524 0.721691 0.135106
H31   H     H_    0.794609 0.556475 0.278309 0.135107
H32   H     H_    0.795201 0.876511 0.755702 0.129461
O1    O     O_R   0.500010 0.939400 0.392680 -0.615917
O2    O     O_R   0.409540 0.060600 0.409520 -0.643244
O3    O     O_R   0.409540 0.939400 0.409520 -0.558822
O4    O     O_R   0.590460 0.060600 0.590480 -0.558821
O5    O     O_R   0.090460 0.439400 0.590480 -0.643245
O6    O     O_R   0.909540 0.560600 0.409520 -0.643244
O7    O     O_R   0.909540 0.439400 0.409520 -0.558822
O8    O     O_R   0.090460 0.560600 0.590480 -0.558821
O9    O     O_R   0.999970 0.107320 0.060560 -0.625317
O10   O     O_R   0.000030 0.892680 0.939440 -0.625317
O11   O     O_R   0.000030 0.107320 0.939440 -0.612446
O12   O     O_R   0.499990 0.060600 0.607320 -0.615916
O13   O     O_R   0.999970 0.892680 0.060560 -0.612446
O14   O     O_R   0.499970 0.607320 0.060560 -0.625317
O15   O     O_R   0.500030 0.392680 0.939440 -0.625317
O16   O     O_R   0.500030 0.607320 0.939440 -0.612446
O17   O     O_R   0.499970 0.392680 0.060560 -0.612446
O18   O     O_R   0.909520 0.000000 0.970100 -0.644512
O19   O     O_R   0.090480 0.000000 0.029900 -0.644512
O20   O     O_R   0.409520 0.500000 0.970100 -0.644512
O21   O     O_R   0.590480 0.500000 0.029900 -0.644512
O22   O     O_R   0.909530 1.000000 0.848930 -0.599589
O23   O     O_R   0.499990 0.939400 0.607320 -0.624718
O24   O     O_R   0.090470 1.000000 0.151070 -0.599589
O25   O     O_R   0.409530 0.500000 0.848930 -0.599590
O26   O     O_R   0.590470 0.500000 0.151070 -0.599590
O27   O     O_R   0.551060 0.107320 0.051070 -0.620270
O28   O     O_R   0.448940 0.892680 0.948930 -0.620270
O29   O     O_R   0.448940 0.107320 0.948930 -0.622132
O30   O     O_R   0.551060 0.892680 0.051070 -0.622132
O31   O     O_R   0.051060 0.607320 0.051070 -0.620270
O32   O     O_R   0.948940 0.392680 0.948930 -0.620270
O33   O     O_R   0.948940 0.607320 0.948930 -0.622132
O34   O     O_R   0.500010 0.060600 0.392680 -0.624718
O35   O     O_R   0.051060 0.392680 0.051070 -0.622132
O36   O     O_R   0.551050 0.000000 0.158390 -0.618555
O37   O     O_R   0.448950 1.000000 0.841610 -0.618554
O38   O     O_R   0.051050 0.500000 0.158390 -0.618555
O39   O     O_R   0.948950 0.500000 0.841610 -0.618555
O40   O     O_R   0.448910 0.000000 0.056230 -0.620094
O41   O     O_R   0.551090 1.000000 0.943770 -0.620094
O42   O     O_R   0.948910 0.500000 0.056230 -0.620094
O43   O     O_R   0.051090 0.500000 0.943770 -0.620094
O44   O     O_3   0.783765 0.986926 0.712687 -0.593243
O45   O     O_R   0.000010 0.439400 0.392680 -0.615917
O46   O     O_3   0.216235 0.013074 0.287313 -0.593244
O47   O     O_3   0.283765 0.486928 0.712687 -0.593243
O48   O     O_3   0.716235 0.513074 0.287313 -0.593244
O49   O     O_3   0.689254 0.121694 0.745830 -0.590640
O50   O     O_3   0.310746 0.878306 0.254170 -0.590640
O51   O     O_3   0.189254 0.621694 0.745831 -0.590639
O52   O     O_3   0.810746 0.378306 0.254169 -0.590641
O53   O     O_R   0.999990 0.560600 0.607320 -0.615916
O54   O     O_R   0.999990 0.439400 0.607320 -0.624718
O55   O     O_R   0.000010 0.560600 0.392680 -0.624718
O56   O     O_R   0.590460 0.939400 0.590480 -0.643244
Zn1   Zn    Zn3+2 0.500000 0.919080 0.500000 0.997200
Zn2   Zn    Zn3+2 0.431810 0.000000 0.931800 0.968804
Zn3   Zn    Zn3+2 0.068190 0.500000 0.068200 0.968804
Zn4   Zn    Zn3+2 0.931810 0.500000 0.931800 0.968804
Zn5   Zn    Zn3+2 0.500000 0.080920 0.500000 0.997201
Zn6   Zn    Zn3+2 1.000000 0.419080 0.500000 0.997200
Zn7   Zn    Zn3+2 1.000000 0.580920 0.500000 0.997202
Zn8   Zn    Zn3+2 0.999980 1.000000 0.080900 0.965617
Zn9   Zn    Zn3+2 0.000020 1.000000 0.919100 0.965617
Zn10  Zn    Zn3+2 0.499980 0.500000 0.080900 0.965616
Zn11  Zn    Zn3+2 0.500020 0.500000 0.919100 0.965616
Zn12  Zn    Zn3+2 0.568190 0.000000 0.068200 0.968804

loop_
_geom_bond_atom_site_label_1
_geom_bond_atom_site_label_2
_ccdc_geom_bond_type
C45   O22   A    
C5    O40   A    
O22   Zn9   S    
C4    C16   S    
C51   O16   A    
O28   Zn2   S    
C53   O44   S    
C59   H18   S    
C8    C48   S    
C34   O54   A    
C58   O49   S    
C49   O11   A    
C52   O17   A    
O21   Zn11  S    
C23   C42   S    
O14   Zn10  S    
C8    O43   A    
O20   Zn10  S    
C9    C16   T    
C59   H19   S    
C6    O37   A    
C6    C46   S    
C63   O21   A    
C11   C14   T    
C3    O31   A    
O9    Zn8   S    
C54   H4    S    
C10   C17   T    
C29   O47   S    
C25   H23   S    
C30   O48   S    
O10   Zn9   S    
C19   C37   S    
C1    C40   S    
O17   Zn10  S    
C45   O18   A    
C34   O53   A    
C5    O36   A    
O11   Zn9   S    
C21   C39   S    
O29   Zn2   S    
C41   C46   T    
C60   O51   S    
O1    Zn1   S    
C33   O51   S    
C43   C48   T    
C55   H8    S    
C58   H16   S    
C35   O52   S    
C36   H28   S    
C2    C14   S    
O23   Zn1   S    
C30   C63   S    
C53   H32   S    
C56   O24   A    
O40   Zn2   S    
C58   H14   S    
C18   O4    A    
C18   O56   A    
O4    Zn5   S    
C21   O7    A    
C19   O2    A    
C61   H25   S    
C4    O35   A    
O36   Zn12  S    
C25   C29   D    
C55   O47   S    
C22   C31   S    
C4    O32   A    
C13   C52   S    
C37   H29   S    
O37   Zn2   S    
C59   H17   S    
C9    C49   S    
C7    O38   A    
C1    O34   A    
O31   Zn3   S    
C12   O12   A    
C60   H22   S    
C24   H12   S    
C49   O9    A    
O12   Zn5   S    
C52   O15   A    
C26   H27   S    
C50   O13   A    
O39   Zn4   S    
O55   Zn7   S    
C57   H10   S    
O19   Zn9   S    
C35   C39   D    
C24   C32   S    
C22   H1    S    
C62   O20   A    
C12   C41   S    
C61   H24   S    
C57   H13   S    
O41   Zn12  S    
C12   O23   A    
C20   C38   S    
C26   C35   S    
O38   Zn3   S    
C54   H6    S    
O2    Zn5   S    
O43   Zn3   S    
C15   C64   S    
C55   H9    S    
C39   H31   S    
C38   H30   S    
O15   Zn11  S    
C32   C37   D    
C53   H2    S    
O53   Zn7   S    
O18   Zn8   S    
C58   H15   S    
C20   O8    A    
C21   O6    A    
C2    O30   A    
C54   O46   S    
C5    C44   S    
O5    Zn6   S    
C26   C30   D    
C51   O14   A    
C22   C27   D    
O34   Zn5   S    
C28   O46   S    
O8    Zn7   S    
C1    O1    A    
C10   C50   S    
C63   O26   A    
C61   H26   S    
O24   Zn8   S    
O42   Zn4   S    
O16   Zn11  S    
C23   O55   A    
C29   C62   S    
C19   O3    A    
O54   Zn6   S    
C57   O48   S    
C3    O33   A    
C61   O52   S    
C34   C43   S    
C24   C28   D    
O6    Zn7   S    
C7    O42   A    
C60   H21   S    
O7    Zn6   S    
C20   O5    A    
O33   Zn4   S    
C2    O28   A    
C64   O27   A    
C7    C47   S    
C33   C38   D    
O26   Zn10  S    
C57   H11   S    
C6    O41   A    
C13   C15   T    
O27   Zn12  S    
C60   H20   S    
C27   C45   S    
C54   H5    S    
C28   C56   S    
O3    Zn1   S    
O35   Zn3   S    
C56   O19   A    
O30   Zn12  S    
C3    C17   S    
C42   C47   T    
C53   H3    S    
C11   C51   S    
O32   Zn4   S    
C31   O49   S    
C59   O50   S    
O45   Zn6   S    
C40   C44   T    
C27   O44   S    
C32   O50   S    
O56   Zn1   S    
C64   O29   A    
C50   O10   A    
C31   C36   D    
C23   O45   A    
O13   Zn8   S    
C18   C36   S    
C62   O25   A    
C55   H7    S    
C25   C33   S    
C8    O39   A    
O25   Zn11  S    
