data_mof_unit_49391.cif
_audit_creation_date              2012-12-10T17:23:12-0500
_audit_creation_method            fapswitch 2.2
_symmetry_space_group_name_H-M    P1
_symmetry_Int_Tables_number       1
_space_group_crystal_system       triclinic
_cell_length_a                    15.843796
_cell_length_b                    10.856897
_cell_length_c                    9.610756
_cell_angle_alpha                 91.000711
_cell_angle_beta                  90.196072
_cell_angle_gamma                 94.695167
_cell_volume                      1647.37057461

loop_
_atom_site_label
_atom_site_type_symbol
_atom_type_description
_atom_site_fract_x
_atom_site_fract_y
_atom_site_fract_z
_atom_type_partial_charge
C1    C     C_R   0.493723 0.261899 0.498866 0.928221
C2    C     C_3   0.084036 0.518213 0.499656 0.085355
C3    C     C_3   0.974376 0.536914 0.630944 -0.170406
C4    C     C_3   0.918133 0.513752 0.500958 0.094585
C5    C     C_3   0.033842 0.626217 0.545623 0.311972
C6    C     C_3   0.976224 0.604326 0.416150 -0.166221
C7    C     C_1   0.175839 0.518249 0.499137 0.055049
C8    C     C_1   0.826093 0.509416 0.501071 0.018736
C9    C     C_R   0.356934 0.104912 0.648792 0.179397
C10   C     C_R   0.310484 0.037787 0.749131 -0.173702
C11   C     C_R   0.323976 0.915356 0.770762 0.657959
C12   C     C_R   0.340762 0.508900 0.499773 0.866975
C13   C     C_R   0.381802 0.858292 0.688651 -0.247743
C14   C     C_R   0.434790 0.926848 0.593732 -0.014979
C15   C     C_R   0.426564 0.055434 0.581224 -0.025128
C16   C     C_R   0.484803 0.126396 0.495204 -0.192767
C17   C     C_R   0.540986 0.066975 0.409850 0.624454
C18   C     C_R   0.542893 0.940138 0.412522 -0.221733
C19   C     C_R   0.492125 0.869986 0.505050 -0.122603
C20   C     C_R   0.614280 0.667331 0.147606 -0.336498
C21   C     C_R   0.669595 0.750005 0.077003 0.542271
C22   C     C_R   0.669020 0.750435 0.933280 0.554490
C23   C     C_R   0.498049 0.737095 0.501476 0.782536
C24   C     C_R   0.613248 0.668025 0.859419 -0.327875
C25   C     C_R   0.555727 0.582682 0.927095 0.121904
C26   C     C_R   0.555963 0.582470 0.076604 0.103912
C27   C     C_R   0.446608 0.420904 0.070516 0.359287
C28   C     C_R   0.446970 0.421396 0.923163 -0.038956
C29   C     C_R   0.660148 0.501305 0.500262 0.821843
C30   C     C_3   0.967929 0.404706 0.454585 -0.114449
C31   C     C_3   0.027587 0.495156 0.369957 -0.177997
C32   C     C_1   0.251314 0.515485 0.499145 -0.062464
C33   C     C_1   0.750220 0.505381 0.500821 -0.102586
C34   C     C_3   0.025706 0.427908 0.584317 -0.166802
Cu1   Cu    Cu3+1 0.499990 0.499990 0.640660 0.984346
Cu2   Cu    Cu3+1 0.500010 0.500010 0.359340 1.043328
H1    H     H_    0.050636 0.477898 0.262984 0.182441
H2    H     H_    0.381782 0.759978 0.700182 0.196903
H3    H     H_    0.586797 0.896623 0.344971 0.200457
H4    H     H_    0.620006 0.673692 0.257716 0.229722
H5    H     H_    0.617853 0.674579 0.749468 0.239193
H6    H     H_    0.403680 0.357102 0.865415 0.174482
H7    H     H_    0.939449 0.313240 0.417109 0.182718
H8    H     H_    0.954809 0.677105 0.347718 0.192145
H9    H     H_    0.951482 0.554620 0.737915 0.181678
H10   H     H_    0.047267 0.355442 0.653051 0.188923
H11   H     H_    0.258183 0.077038 0.801357 0.209221
N1    N     N_R   0.500800 0.501210 0.147910 -0.193789
N2    N     N_R   0.500830 0.501290 0.852040 -0.193747
O1    O     O_R   0.499990 0.319640 0.618810 -0.578239
O2    O     O_R   0.500000 0.319660 0.381240 -0.491559
O3    O     O_R   0.379070 0.499980 0.618770 -0.568119
O4    O     O_R   0.379080 0.500000 0.381190 -0.536597
O5    O     O_R   0.500000 0.680340 0.618760 -0.612644
O6    O     O_R   0.500010 0.680360 0.381190 -0.598310
O7    O     O_R   0.620920 0.500000 0.618810 -0.588966
O8    O     O_R   0.620930 0.500020 0.381230 -0.577482
F1    F     F_    0.274894 0.848233 0.862056 -0.613505
Br1   Br    Br    0.367367 0.303037 0.155496 -0.406570
F2    F     F_    0.724334 0.830076 0.149222 -0.595571
F3    F     F_    0.723160 0.830927 0.864268 -0.591642
Br2   Br    Br    0.083006 0.786024 0.611244 -0.391641
F4    F     F_    0.596362 0.132442 0.326037 -0.619105
Br3   Br    Br    0.298284 0.232569 0.571028 -0.494106

loop_
_geom_bond_atom_site_label_1
_geom_bond_atom_site_label_2
_ccdc_geom_bond_type
C27   N1    A    
Cu1   N2    S    
C19   C23   S    
C18   H3    S    
C24   C25   A    
C23   O6    A    
C6    C31   S    
C34   H10   S    
C29   O7    A    
C11   F1    S    
C11   C13   A    
C28   N2    A    
C12   O4    A    
C26   N1    A    
C4    C8    S    
C2    C34   S    
Cu1   O1    S    
C17   C18   A    
Cu1   O7    S    
C4    C30   S    
Cu2   O6    S    
C27   Br1   S    
C21   C22   A    
C12   C32   S    
Cu1   O5    S    
C7    C32   T    
C24   H5    S    
C1    O2    A    
C13   H2    S    
C30   C31   S    
Cu2   O2    S    
C20   C26   A    
C23   O5    A    
C28   H6    S    
C12   O3    A    
C29   O8    A    
C5    Br2   S    
Cu2   N1    S    
C25   N2    A    
C8    C33   T    
C9    C15   A    
C5    C6    S    
C20   H4    S    
C22   C24   A    
C30   H7    S    
C10   H11   S    
C2    C5    S    
C1    O1    A    
C10   C11   A    
C30   C34   S    
C15   C16   A    
C9    Br3   S    
C29   C33   S    
Cu1   O3    S    
C20   C21   A    
C21   F2    S    
C4    C6    S    
Cu2   O8    S    
C9    C10   A    
C27   C28   A    
C1    C16   S    
C14   C15   A    
C18   C19   A    
C6    H8    S    
Cu2   O4    S    
C3    C34   S    
C3    C5    S    
C25   C26   A    
C13   C14   A    
C14   C19   A    
C3    H9    S    
C17   F4    S    
C3    C4    S    
C2    C7    S    
C16   C17   A    
C31   H1    S    
C2    C31   S    
C22   F3    S    
Cu1   Cu2   S    
