data_mof_unit_9220.cif
_audit_creation_date              2012-12-10T16:57:06-0500
_audit_creation_method            fapswitch 2.2
_symmetry_space_group_name_H-M    P1
_symmetry_Int_Tables_number       1
_space_group_crystal_system       triclinic
_cell_length_a                    7.855725
_cell_length_b                    8.564934
_cell_length_c                    16.552494
_cell_angle_alpha                 92.529257
_cell_angle_beta                  80.350575
_cell_angle_gamma                 93.284128
_cell_volume                      1095.47926818

loop_
_atom_site_label
_atom_site_type_symbol
_atom_type_description
_atom_site_fract_x
_atom_site_fract_y
_atom_site_fract_z
_atom_type_partial_charge
C1    C     C_R   0.545501 0.794323 0.498101 0.976313
C2    C     C_R   0.454486 0.205684 0.502020 0.964156
C3    C     C_2   0.569524 0.957725 0.497110 -0.367803
C4    C     C_2   0.430433 0.042323 0.503267 -0.356667
C5    C     C_R   0.475503 0.493973 0.654091 0.846124
C6    C     C_R   0.522917 0.494316 0.345471 0.859032
C7    C     C_R   0.452250 0.439297 0.737081 -0.039525
C8    C     C_R   0.533981 0.462832 0.257896 -0.050848
C9    C     C_R   0.557516 0.322555 0.754502 -0.136731
C10   C     C_R   0.405211 0.510459 0.216913 -0.177789
C11   C     C_R   0.527800 0.257226 0.830951 -0.114253
C12   C     C_R   0.405241 0.462603 0.135807 -0.114111
C13   C     C_R   0.396223 0.311963 0.891462 0.103405
C14   C     C_R   0.533512 0.365619 0.095424 0.110365
C15   C     C_R   0.284110 0.421344 0.872725 -0.102735
C16   C     C_R   0.666817 0.324255 0.135086 -0.108653
C17   C     C_R   0.311503 0.484466 0.795373 -0.177930
C18   C     C_R   0.666749 0.371930 0.216246 -0.176625
C19   C     C_2   0.397101 0.283384 0.977476 0.407515
C20   C     C_2   0.541261 0.323636 0.008780 0.421788
H1    H     H_    0.661599 0.280477 0.708744 0.178722
H2    H     H_    0.305343 0.584657 0.247442 0.199819
H3    H     H_    0.767580 0.333656 0.246986 0.190764
H4    H     H_    0.225702 0.570624 0.781632 0.183186
H5    H     H_    0.182195 0.464606 0.919292 0.192634
H6    H     H_    0.769371 0.253618 0.103560 0.196746
H7    H     H_    0.307083 0.503709 0.104289 0.178579
H8    H     H_    0.613156 0.170446 0.844451 0.174282
H9    H     H_    0.701246 0.007874 0.491245 0.208092
H10   H     H_    0.298706 0.992186 0.509163 0.209683
N1    N     N_2   0.953500 0.457650 0.478520 -0.188552
N2    N     N_2   0.046500 0.542350 0.521480 -0.189788
O1    O     O_R   0.388470 0.738640 0.505270 -0.628753
O2    O     O_R   0.611530 0.261360 0.494730 -0.637239
O3    O     O_R   0.679650 0.711510 0.491500 -0.584174
O4    O     O_R   0.320350 0.288490 0.508500 -0.582786
O5    O     O_R   0.337210 0.515200 0.623500 -0.607115
O6    O     O_R   0.662790 0.484800 0.376500 -0.605906
O7    O     O_R   0.628380 0.488060 0.609730 -0.624136
O8    O     O_R   0.371620 0.511940 0.390270 -0.623848
Zn1   Zn    Zn3+2 0.305580 0.518120 0.509190 1.005149
Zn2   Zn    Zn3+2 0.694420 0.481880 0.490810 1.000618
F1    F     F_    0.695710 0.351992 0.959049 -0.673755
F2    F     F_    0.243186 0.254627 0.027484 -0.681470
C21   C     C_2   0.036622 0.401030 0.401436 1.100928
O9    O     O_2   0.031359 0.474124 0.340273 -0.660711
O10   O     O_R   0.111287 0.255955 0.394456 -0.805924
H11   H     H_    0.163602 0.226937 0.335861 0.328829
C22   C     C_2   0.962434 0.598979 0.598409 1.108651
O11   O     O_2   0.957889 0.521521 0.659086 -0.641731
O12   O     O_R   0.895799 0.747576 0.605731 -0.809637
H12   H     H_    0.841232 0.776089 0.664058 0.323815

loop_
_geom_bond_atom_site_label_1
_geom_bond_atom_site_label_2
_ccdc_geom_bond_type
C2    C4    S    
N2    Zn1   S    
C6    O6    A    
C15   C17   A    
N1    Zn2   S    
C5    O5    A    
C11   C13   A    
C19   C20   D    
O2    Zn2   S    
C4    H10   S    
O1    Zn1   S    
C2    O2    A    
C5    O7    A    
C1    O1    A    
C21   O9    D    
C10   H2    S    
O5    Zn1   S    
C9    C11   A    
C3    H9    S    
O4    Zn1   S    
C10   C12   A    
C11   H8    S    
C18   H3    S    
C8    C10   A    
O8    Zn1   S    
C12   C14   A    
O6    Zn2   S    
O7    Zn2   S    
C14   C16   A    
C13   C15   A    
C16   H6    S    
C6    O8    A    
N2    C22   S    
C15   H5    S    
C17   H4    S    
C13   C19   S    
C12   H7    S    
O12   H12   S    
C9    H1    S    
C7    C9    A    
C20   F1    S    
C19   F2    S    
C1    O3    A    
C14   C20   S    
C16   C18   A    
C22   O11   D    
N1    C21   S    
C21   O10   S    
C2    O4    A    
C5    C7    S    
O3    Zn2   S    
C6    C8    S    
C1    C3    S    
N1    N2    D    
C8    C18   A    
C3    C4    D    
O10   H11   S    
C22   O12   S    
C7    C17   A    
