data_mof_unit_36051.cif
_audit_creation_date              2013-03-05T15:40:40-0500
_audit_creation_method            fapswitch 2.2
_symmetry_space_group_name_H-M    P1
_symmetry_Int_Tables_number       1
_space_group_crystal_system       triclinic
_cell_length_a                    7.421967
_cell_length_b                    8.696668
_cell_length_c                    15.83106
_cell_angle_alpha                 94.27832
_cell_angle_beta                  74.451138
_cell_angle_gamma                 103.249858
_cell_volume                      958.140272037

loop_
_atom_site_label
_atom_site_type_symbol
_atom_site_description
_atom_site_fract_x
_atom_site_fract_y
_atom_site_fract_z
_atom_type_partial_charge
O1    O     O_R   0.384450 0.714270 0.493720 -0.585424
O2    O     O_R   0.615550 0.285730 0.506280 -0.585424
O3    O     O_R   0.684880 0.742590 0.510050 -0.581540
O4    O     O_R   0.315120 0.257410 0.489950 -0.581540
C1    C     C_R   0.545164 0.800212 0.502594 0.874770
C2    C     C_R   0.454836 0.199787 0.497406 0.874770
O5    O     O_R   0.265540 0.477900 0.617090 -0.544594
O6    O     O_R   0.734460 0.522100 0.382910 -0.544594
O7    O     O_R   0.565970 0.506210 0.633420 -0.560424
O8    O     O_R   0.434030 0.493790 0.366580 -0.560424
C3    C     C_R   0.382057 0.487962 0.666728 0.817530
C4    C     C_R   0.617943 0.512038 0.333272 0.817529
Cu1   Cu    Cu3+1 0.322120 0.483240 0.490330 1.032784
Cu2   Cu    Cu3+1 0.677880 0.516760 0.509670 1.032784
C5    C     C_R   0.307068 0.470729 0.762941 -0.181235
C6    C     C_R   0.692932 0.529271 0.237059 -0.181235
C7    C     C_R   0.068856 0.355297 0.892315 -0.243253
C8    C     C_R   0.931144 0.644702 0.107685 -0.243253
C9    C     C_R   0.117204 0.392999 0.803621 0.336288
C10   C     C_R   0.882796 0.607001 0.196379 0.336288
C11   C     C_R   0.438680 0.519044 0.814018 -0.237642
C12   C     C_R   0.561320 0.480955 0.185982 -0.237642
C13   C     C_R   0.391934 0.482629 0.903556 0.088523
C14   C     C_R   0.608066 0.517371 0.096444 0.088523
C15   C     C_R   0.204287 0.396579 0.941651 0.078512
C16   C     C_R   0.795713 0.603421 0.058349 0.078512
C17   C     C_R   0.527353 0.524560 0.955446 0.074767
C18   C     C_R   0.472647 0.475440 0.044554 0.074767
C19   C     C_R   0.284407 0.386453 0.078693 -0.164759
C20   C     C_R   0.715593 0.613546 0.921307 -0.164759
C21   C     C_R   0.153073 0.349939 0.028487 -0.198681
C22   C     C_R   0.846927 0.650061 0.971512 -0.198681
H1    H     H_    0.009989 0.282846 0.057900 0.157480
H2    H     H_    0.990011 0.717154 0.942100 0.157480
H3    H     H_    0.420112 0.419120 0.219172 0.192174
H4    H     H_    0.579888 0.580880 0.780828 0.192174
H5    H     H_    0.924115 0.292735 0.922864 0.176232
H6    H     H_    0.075884 0.707265 0.077136 0.176232
H7    H     H_    0.232242 0.341189 0.144159 0.171088
H8    H     H_    0.767758 0.658811 0.855841 0.171088
C23   C     C_2   0.570571 0.968121 0.503876 -0.336401
C24   C     C_2   0.429429 0.031878 0.496124 -0.336401
H9    H     H_    0.706543 0.039620 0.511220 0.189857
H10   H     H_    0.293457 0.960380 0.488780 0.189857
N1    N     N_2   0.945180 0.542040 0.524240 -0.177663
N2    N     N_2   0.054820 0.457960 0.475760 -0.177663
H11   H     H_    0.005471 0.617968 0.567166 0.244663
H12   H     H_    0.994529 0.382032 0.432834 0.244663
N3    N     N_R   0.026888 0.652462 0.243742 0.129029
O9    O     O_R   0.083177 0.543986 0.275954 -0.387448
O10   O     O_R   0.131369 0.795471 0.236858 -0.364631
N4    N     N_R   0.973112 0.347538 0.756258 0.129029
O11   O     O_R   0.916822 0.456014 0.724046 -0.387448
O12   O     O_R   0.868631 0.204529 0.763141 -0.364631

loop_
_geom_bond_atom_site_label_1
_geom_bond_atom_site_label_2
_geom_bond_distance
_ccdc_geom_bond_type
C15   C21   1.389686 A    
O5    Cu1   1.938739 S    
O5    C3    1.300931 A    
O7    Cu2   1.912029 S    
C21   H1    1.084634 S    
C16   C22   1.389686 A    
C10   N3    1.433212 S    
C13   C17   1.431044 A    
C23   H9    1.087687 S    
C23   C24   1.328612 D    
C8    C16   1.401030 A    
C6    C10   1.413939 A    
O6    C4    1.300932 A    
C7    C15   1.401029 A    
C19   H7    1.074654 S    
C13   C15   1.415156 A    
C8    H6    1.084783 S    
O3    C1    1.285697 A    
C20   H8    1.074655 S    
C19   C21   1.385100 A    
C11   H4    1.073424 S    
C7    H5    1.084784 S    
N1    N2    1.280660 D    
C17   C20   1.415937 A    
C20   C22   1.385100 A    
C12   H3    1.073424 S    
O7    C3    1.301441 A    
O2    C2    1.290994 A    
O3    Cu2   1.952317 S    
C24   H10   1.087687 S    
O1    C1    1.290993 A    
O8    C4    1.301441 A    
C18   C19   1.415937 A    
C7    C9    1.397299 A    
N4    O12   1.301087 A    
C5    C9    1.413939 A    
Cu2   N1    2.018711 S    
C8    C10   1.397299 A    
N1    H11   1.028937 S    
C11   C13   1.408150 A    
Cu1   N2    2.018710 S    
O2    Cu2   1.955734 S    
C12   C14   1.408150 A    
O1    Cu1   1.955733 S    
N2    H12   1.028938 S    
C14   C18   1.431044 A    
C5    C11   1.403277 A    
N4    O11   1.300462 A    
O4    C2    1.285696 A    
N3    O9    1.300462 A    
C2    C24   1.428181 S    
O4    Cu1   1.952318 S    
C1    C23   1.428181 S    
C6    C12   1.403277 A    
O6    Cu2   1.938736 S    
N3    O10   1.301087 A    
Cu1   Cu2   2.686615 S    
C3    C5    1.481065 S    
C9    N4    1.433212 S    
C4    C6    1.481065 S    
C14   C16   1.415156 A    
C17   C18   1.428528 A    
O8    Cu1   1.912028 S    
C22   H2    1.084634 S    
