data_mof_unit_42263.cif
_audit_creation_date              2012-12-10T19:16:23-0500
_audit_creation_method            fapswitch 2.2
_symmetry_space_group_name_H-M    P1
_symmetry_Int_Tables_number       1
_space_group_crystal_system       triclinic
_cell_length_a                    10.782903
_cell_length_b                    9.953241
_cell_length_c                    26.954715
_cell_angle_alpha                 90.543928
_cell_angle_beta                  87.97104
_cell_angle_gamma                 88.809107
_cell_volume                      2890.32062626

loop_
_atom_site_label
_atom_site_type_symbol
_atom_type_description
_atom_site_fract_x
_atom_site_fract_y
_atom_site_fract_z
_atom_type_partial_charge
C1    C     C_R   0.258722 0.501057 0.500183 0.856072
C2    C     C_R   0.553971 0.602985 0.270887 0.088553
C3    C     C_R   0.534587 0.480057 0.246255 0.213480
C4    C     C_R   0.601487 0.510630 0.092829 -0.051761
C5    C     C_R   0.491852 0.565678 0.115363 -0.026462
C6    C     C_R   0.413825 0.648057 0.088006 -0.134763
C7    C     C_R   0.681541 0.430810 0.120965 -0.027898
C8    C     C_R   0.508647 0.496713 0.350408 -0.095392
C9    C     C_R   0.550689 0.504196 0.644233 -0.052024
C10   C     C_R   0.590016 0.658272 0.966312 0.042959
C11   C     C_R   0.753884 0.481714 0.966318 0.042423
C12   C     C_R   0.501381 0.499443 0.405354 0.903355
C13   C     C_R   0.681807 0.577717 0.940706 0.075232
C14   C     C_R   0.532492 0.764617 0.940828 -0.216934
C15   C     C_R   0.552234 0.779190 0.890029 -0.130302
C16   C     C_R   0.628024 0.686647 0.863235 -0.030168
C17   C     C_R   0.696451 0.588631 0.888560 -0.052802
C18   C     C_R   0.773791 0.496683 0.861402 -0.027873
C19   C     C_R   0.767424 0.492435 0.809454 0.520507
C20   C     C_R   0.629287 0.682755 0.811423 0.513184
C21   C     C_R   0.523415 0.510229 0.733464 -0.136708
C22   C     C_R   0.473696 0.491455 0.687012 -0.041371
C23   C     C_R   0.741960 0.498799 0.497601 0.844288
C24   C     C_R   0.676598 0.534713 0.648933 -0.224568
C25   C     C_R   0.724992 0.556041 0.695558 -0.075537
C26   C     C_R   0.647540 0.546179 0.737891 0.280331
C27   C     C_R   0.556226 0.627474 0.015924 0.043862
C28   C     C_R   0.631139 0.535930 0.042260 0.074806
C29   C     C_R   0.734846 0.469055 0.018447 0.042062
C30   C     C_R   0.446308 0.680354 0.039366 -0.213956
C31   C     C_R   0.788060 0.372080 0.098078 -0.125694
C32   C     C_R   0.838498 0.397906 0.938391 -0.211842
C33   C     C_R   0.846879 0.404236 0.886778 -0.129378
C34   C     C_R   0.504178 0.500704 0.594078 0.866002
C35   C     C_R   0.813615 0.389327 0.047580 -0.212806
C36   C     C_3   0.064508 0.629889 0.524624 -0.178180
C37   C     C_3   0.067550 0.371651 0.523017 -0.170520
C38   C     C_3   0.924747 0.635094 0.515796 -0.446278
C39   C     C_3   0.927334 0.390757 0.531661 -0.448092
C40   C     C_3   0.081535 0.503314 0.441049 -0.108986
C41   C     C_3   0.122232 0.501720 0.497654 -0.028721
C42   C     C_3   0.879258 0.497262 0.495152 0.034233
C43   C     C_3   0.937683 0.467689 0.440518 -0.077147
C44   C     C_3   0.373397 0.084219 0.490386 -0.008930
C45   C     C_3   0.371064 0.924017 0.498290 -0.018594
C46   C     C_3   0.588520 0.077436 0.460439 -0.122513
C47   C     C_3   0.566078 0.920111 0.454236 -0.126537
C48   C     C_3   0.537794 0.082783 0.547899 -0.159106
C49   C     C_3   0.558091 0.922848 0.544374 -0.171857
C50   C     C_R   0.464781 0.540382 0.165466 0.498633
C51   C     C_R   0.655153 0.416354 0.171957 0.515847
C52   C     C_R   0.502198 0.365959 0.273637 0.032787
C53   C     C_R   0.491354 0.374301 0.325308 -0.283302
C54   C     C_R   0.537597 0.612420 0.322570 0.115943
H1    H     H_    0.851978 0.311667 0.119072 0.193660
H2    H     H_    0.893877 0.320381 0.955114 0.145642
H3    H     H_    0.736294 0.546926 0.616212 0.128287
H4    H     H_    0.908013 0.333225 0.866750 0.191488
H5    H     H_    0.820899 0.584160 0.698638 0.163140
H6    H     H_    0.897895 0.342102 0.032610 0.146195
H7    H     H_    0.104620 0.722340 0.508814 0.161392
H8    H     H_    0.085161 0.284473 0.497430 0.155600
H9    H     H_    0.871722 0.664779 0.550611 0.178445
H10   H     H_    0.903439 0.424261 0.570504 0.182378
H11   H     H_    0.907199 0.715692 0.489027 0.207307
H12   H     H_    0.883145 0.293270 0.527766 0.209430
H13   H     H_    0.306745 0.129344 0.518582 0.145812
H14   H     H_    0.325170 0.907834 0.535415 0.134918
H15   H     H_    0.577225 0.128186 0.424317 0.139839
H16   H     H_    0.510925 0.907487 0.420953 0.116183
H17   H     H_    0.626743 0.127615 0.558465 0.147656
H18   H     H_    0.659694 0.900679 0.541764 0.132390
H19   H     H_    0.328414 0.690511 0.104418 0.192614
H20   H     H_    0.464217 0.502921 0.766678 0.141239
H21   H     H_    0.502209 0.858607 0.871511 0.192209
H22   H     H_    0.471342 0.837727 0.959417 0.147455
H23   H     H_    0.380950 0.742917 0.020226 0.147371
H24   H     H_    0.468729 0.284534 0.345930 0.180057
N1    N     N_R   0.549364 0.473442 0.193199 -0.348802
N2    N     N_R   0.689794 0.579772 0.786102 -0.349122
N3    N     N_3   0.499750 0.138610 0.498940 -0.088664
N4    N     N_3   0.499750 0.861390 0.498940 -0.081914
O1    O     O_R   0.314910 0.616040 0.499990 -0.601256
O2    O     O_R   0.314910 0.383960 0.499990 -0.612409
O3    O     O_R   0.500140 0.616020 0.428740 -0.587253
O4    O     O_R   0.500140 0.383980 0.428740 -0.613352
O5    O     O_R   0.685320 0.616040 0.499970 -0.626767
O6    O     O_R   0.685320 0.383960 0.499970 -0.625899
O7    O     O_R   0.500090 0.616050 0.571230 -0.607656
O8    O     O_R   0.500090 0.383950 0.571230 -0.612311
O9    O     O_2   0.356995 0.586593 0.186961 -0.554230
O10   O     O_2   0.564030 0.775782 0.786467 -0.541844
O11   O     O_2   0.735671 0.348858 0.200289 -0.548571
O12   O     O_2   0.832405 0.397550 0.782888 -0.548352
Zn1   Zn    Zn3+2 0.500150 0.654960 0.499980 0.964581
Zn2   Zn    Zn3+2 0.500150 0.345040 0.499980 0.956324
N5    N     N_3   0.551677 0.739991 0.346468 -0.440370
H25   H     H_    0.639948 0.775463 0.337123 0.220470
H26   H     H_    0.485971 0.807365 0.332672 0.191616
C55   C     C_1   0.480319 0.239498 0.249188 0.236889
N6    N     N_1   0.462832 0.138048 0.229582 -0.186092
C56   C     C_1   0.089099 0.637305 0.578127 0.185393
N7    N     N_1   0.107771 0.644750 0.620039 -0.178242
C57   C     C_1   0.121270 0.331274 0.570133 0.193043
N8    N     N_1   0.160909 0.296691 0.607214 -0.156332
N9    N     N_3   0.594075 0.719121 0.244006 -0.461125
H27   H     H_    0.523962 0.750979 0.220841 0.224941
H28   H     H_    0.673257 0.692982 0.222247 0.201329
C58   C     C_1   0.102950 0.636006 0.417854 0.186227
N10   N     N_1   0.117012 0.738011 0.398443 -0.197868
C59   C     C_1   0.159694 0.410460 0.409005 0.166158
N11   N     N_1   0.219546 0.339649 0.383179 -0.184952
C60   C     C_1   0.871754 0.537458 0.400667 0.178108
N12   N     N_1   0.821950 0.585646 0.367690 -0.173131
C61   C     C_1   0.923311 0.326466 0.424263 0.174530
N13   N     N_1   0.916642 0.219009 0.407994 -0.174188
N14   N     N_3   0.328266 0.129471 0.442417 -0.399816
H29   H     H_    0.233160 0.112186 0.440975 0.180286
H30   H     H_    0.372745 0.079056 0.412532 0.166479
N15   N     N_3   0.292422 0.855690 0.463270 -0.395243
H31   H     H_    0.202598 0.896651 0.467622 0.163666
H32   H     H_    0.321029 0.868065 0.426357 0.196159
C62   C     C_1   0.452042 0.126860 0.589688 0.210027
N16   N     N_1   0.387174 0.158844 0.622999 -0.166986
C63   C     C_1   0.517296 0.864884 0.592376 0.236679
N17   N     N_1   0.485429 0.826073 0.631069 -0.153515
C64   C     C_1   0.719093 0.096590 0.474163 0.203093
N18   N     N_1   0.820004 0.098516 0.487057 -0.241089
C65   C     C_1   0.681132 0.848038 0.439594 0.255545
N19   N     N_1   0.775142 0.800742 0.426658 -0.209738
C66   C     C_1   0.342472 0.469966 0.685282 0.196262
N20   N     N_1   0.236619 0.453941 0.685595 -0.138988

loop_
_geom_bond_atom_site_label_1
_geom_bond_atom_site_label_2
_ccdc_geom_bond_type
C10   C27   A    
C15   H21   S    
C21   C26   A    
O6    Zn2   S    
C33   H4    S    
C22   C66   S    
C11   C13   A    
C59   N11   T    
C3    N1    S    
C50   N1    A    
C48   C62   S    
C37   H8    S    
C62   N16   T    
N15   H31   S    
C1    O2    A    
C39   H10   S    
C20   O10   S    
C23   C42   S    
C12   O3    A    
C47   C65   S    
C28   C29   A    
C38   C42   S    
N14   H30   S    
C5    C6    A    
C9    C22   A    
N9    H27   S    
C61   N13   T    
C48   N3    S    
C36   C56   S    
C18   C19   A    
O2    Zn2   S    
C47   N4    S    
C46   H15   S    
C43   C61   S    
C60   N12   T    
C30   H23   S    
C40   C43   S    
C45   N4    S    
C16   C17   A    
C49   H18   S    
O5    Zn1   S    
C54   N5    S    
C39   C42   S    
C16   C20   A    
C23   O5    A    
C21   C22   A    
C27   C30   A    
C36   C41   S    
C56   N7    T    
C4    C7    A    
C57   N8    T    
C4    C28   A    
N15   H32   S    
N5    H25   S    
C40   C59   S    
C7    C31   A    
C15   C16   A    
C20   N2    A    
C46   C64   S    
C24   C25   A    
C44   N3    S    
C10   C14   A    
C8    C54   A    
N3    Zn2   S    
C24   H3    S    
C25   C26   A    
C21   H20   S    
C2    N9    S    
C26   N2    S    
C35   H6    S    
C14   H22   S    
C49   N4    S    
O7    Zn1   S    
C34   O8    A    
C47   H16   S    
C46   N3    S    
C38   H11   S    
C8    C12   S    
O1    Zn1   S    
C45   H14   S    
C17   C18   A    
C19   O12   S    
O4    Zn2   S    
C51   O11   S    
C45   N15   S    
C1    C41   S    
C48   C49   S    
C6    C30   A    
C11   C32   A    
C23   O6    A    
C2    C54   A    
C9    C34   S    
C39   H12   S    
C31   C35   A    
C5    C50   A    
C42   C43   S    
C48   H17   S    
C64   N18   T    
C52   C53   A    
C6    H19   S    
C38   H9    S    
C46   C47   S    
C40   C41   S    
N5    H26   S    
N4    Zn1   S    
C44   C45   S    
C4    C5    A    
C10   C13   A    
C8    C53   A    
C37   C57   S    
C3    C52   A    
C9    C24   A    
O8    Zn2   S    
C40   C58   S    
C12   O4    A    
C1    O1    A    
C49   C63   S    
C29   C35   A    
C13   C17   A    
C32   C33   A    
C36   C38   S    
C53   H24   S    
C65   N19   T    
C34   O7    A    
C7    C51   A    
C37   C39   S    
C58   N10   T    
C43   C60   S    
O3    Zn1   S    
C63   N17   T    
N9    H28   S    
C44   N14   S    
C55   N6    T    
C52   C55   S    
C2    C3    A    
C36   H7    S    
C37   C41   S    
C19   N2    A    
C18   C33   A    
C51   N1    A    
C50   O9    S    
C11   C29   A    
C27   C28   A    
C14   C15   A    
C44   H13   S    
C25   H5    S    
C31   H1    S    
N14   H29   S    
C32   H2    S    
C66   N20   T    
