data_mof_unit_24632.cif
_audit_creation_date              2012-12-11T15:59:41-0500
_audit_creation_method            fapswitch 2.2
_symmetry_space_group_name_H-M    P1
_symmetry_Int_Tables_number       1
_space_group_crystal_system       triclinic
_cell_length_a                    10.796818
_cell_length_b                    10.788642
_cell_length_c                    17.006492
_cell_angle_alpha                 99.218405
_cell_angle_beta                  99.554237
_cell_angle_gamma                 60.773557
_cell_volume                      1697.57709668

loop_
_atom_site_label
_atom_site_type_symbol
_atom_type_description
_atom_site_fract_x
_atom_site_fract_y
_atom_site_fract_z
_atom_type_partial_charge
C1    C     C_R   0.355617 0.770327 0.398210 0.532649
C2    C     C_R   0.846411 0.208008 0.195321 0.033864
C3    C     C_R   0.858550 0.216400 0.279571 0.019948
C4    C     C_R   0.772915 0.472009 0.282600 -0.150607
C5    C     C_R   0.779731 0.460179 0.202002 -0.158316
C6    C     C_R   0.860146 0.079331 0.151724 -0.053171
C7    C     C_R   0.907198 0.957490 0.190524 -0.127569
C8    C     C_R   0.935556 0.962643 0.273436 -0.119008
C9    C     C_R   0.910656 0.090893 0.317979 -0.080287
C10   C     C_R   0.815683 0.351056 0.322697 0.001830
C11   C     C_R   0.352638 0.813867 0.156006 0.002829
C12   C     C_R   0.366618 0.343562 0.358769 0.546985
C13   C     C_R   0.451748 0.837894 0.213085 0.016191
C14   C     C_R   0.435826 0.850279 0.294971 -0.002979
C15   C     C_R   0.269102 0.754597 0.258338 -0.133251
C16   C     C_R   0.271964 0.759707 0.178803 -0.138421
C17   C     C_R   0.570916 0.840384 0.191334 -0.111428
C18   C     C_R   0.672520 0.851204 0.250228 -0.127820
C19   C     C_R   0.648388 0.878445 0.330955 0.017238
C20   C     C_R   0.522612 0.891502 0.351740 -0.090393
C21   C     C_R   0.343598 0.807100 0.317619 0.006225
C22   C     C_R   0.283081 0.261295 0.793052 -0.002434
C23   C     C_R   0.773623 0.378792 0.402766 0.532766
C24   C     C_R   0.380837 0.145606 0.743461 -0.024189
C25   C     C_R   0.381071 0.166491 0.663595 0.016703
C26   C     C_R   0.207634 0.414771 0.686302 -0.154437
C27   C     C_R   0.190488 0.391232 0.760701 -0.152294
C28   C     C_R   0.481322 0.010669 0.769942 -0.111122
C29   C     C_R   0.575936 0.902700 0.719638 0.268329
C30   C     C_R   0.566578 0.923224 0.639857 -0.071013
C31   C     C_R   0.463415 0.049869 0.610892 -0.146198
C32   C     C_R   0.308735 0.305637 0.639831 0.013523
C33   C     C_1   0.845853 0.328974 0.705334 -0.029462
C34   C     C_R   0.359068 0.766043 0.627827 0.567135
C35   C     C_1   0.892621 0.294428 0.772133 -0.043760
C36   C     C_1   0.339536 0.806016 0.709907 -0.014260
C37   C     C_1   0.313840 0.835112 0.778121 -0.043318
C38   C     C_R   0.890023 0.309004 0.086276 0.549999
C39   C     C_R   0.291899 0.261485 0.122357 0.580375
C40   C     C_R   0.298178 0.885995 0.083092 0.547427
C41   C     C_R   0.942389 0.274143 0.854623 0.541480
C42   C     C_R   0.277012 0.249599 0.877594 0.541977
C43   C     C_R   0.279166 0.884375 0.857667 0.540576
C44   C     C_R   0.364569 0.343224 0.579723 0.540982
C45   C     C_R   0.777350 0.378561 0.628879 0.558883
C46   C     C_1   0.325613 0.317513 0.277035 -0.038248
C47   C     C_1   0.306099 0.292770 0.206422 -0.036099
C48   C     C_R   0.824204 0.328077 0.158373 0.001108
Cr1   Cr    Cr6+3 0.608100 0.610860 0.522250 1.018485
Cr2   Cr    Cr6+3 0.288890 0.599990 0.488420 0.982600
Cr3   Cr    Cr6+3 0.603040 0.289190 0.489390 0.996207
Cr4   Cr    Cr6+3 0.053960 0.052250 0.967380 0.983896
Cr5   Cr    Cr6+3 0.059890 0.373160 0.992710 0.999538
Cr6   Cr    Cr6+3 0.373370 0.061690 0.991710 0.991277
H1    H     H_    0.730882 0.578089 0.313220 0.161577
H2    H     H_    0.772699 0.830530 0.232958 0.108422
H3    H     H_    0.502971 0.917090 0.414036 0.109647
H4    H     H_    0.150654 0.520989 0.667318 0.124128
H5    H     H_    0.492720 0.982356 0.828838 0.183263
H6    H     H_    0.112526 0.478726 0.795787 0.137209
H7    H     H_    0.635124 0.838050 0.599144 0.142975
H8    H     H_    0.451673 0.057503 0.547162 0.113834
H9    H     H_    0.831670 0.071706 0.087829 0.139393
H10   H     H_    0.757397 0.553497 0.174352 0.138138
H11   H     H_    0.922069 0.858616 0.156006 0.094510
H12   H     H_    0.973911 0.867690 0.303579 0.124039
H13   H     H_    0.933859 0.090467 0.382355 0.130135
H14   H     H_    0.208735 0.706916 0.272865 0.143976
H15   H     H_    0.595946 0.815989 0.129911 0.133836
H16   H     H_    0.203206 0.730007 0.135285 0.141566
O1    O     O_R   0.749810 0.499790 0.438040 -0.527953
O2    O     O_R   0.298970 0.468800 0.557390 -0.527938
O3    O     O_R   0.489400 0.255930 0.561910 -0.539353
O4    O     O_R   0.723890 0.306050 0.584610 -0.506855
O5    O     O_3   0.500010 0.500010 0.500020 -0.240360
O6    O     O_R   0.171100 0.914680 0.053100 -0.514543
O7    O     O_R   0.941680 0.184840 0.050710 -0.505876
O8    O     O_R   0.922080 0.403420 0.072610 -0.524108
O9    O     O_R   0.196880 0.369150 0.083850 -0.492613
O10   O     O_R   0.411730 0.181020 0.091530 -0.494077
O11   O     O_R   0.365010 0.944360 0.063320 -0.521810
O12   O     O_R   0.477660 0.726260 0.439290 -0.513632
O13   O     O_R   0.159380 0.906670 0.876210 -0.536133
O14   O     O_R   0.930820 0.177420 0.886730 -0.491899
O15   O     O_R   0.910360 0.395420 0.895720 -0.509088
O16   O     O_R   0.186010 0.361730 0.919870 -0.505221
O17   O     O_R   0.400000 0.173010 0.914630 -0.519390
O18   O     O_R   0.354140 0.936940 0.899340 -0.531516
O19   O     O_3   0.162410 0.162370 0.983930 -0.304482
O20   O     O_R   0.260150 0.743000 0.412270 -0.523134
O21   O     O_R   0.297740 0.466550 0.394720 -0.521400
O22   O     O_R   0.488080 0.253500 0.386430 -0.523122
O23   O     O_R   0.722670 0.303800 0.421940 -0.501043
O24   O     O_R   0.751130 0.502220 0.613520 -0.484850
O25   O     O_R   0.478890 0.728510 0.601960 -0.475654
O26   O     O_R   0.261470 0.745430 0.587750 -0.540018
C49   C     C_R   0.764920 0.857716 0.395227 0.007301
C50   C     C_R   0.740181 0.953564 0.464400 -0.108365
C51   C     C_R   0.837802 0.918211 0.532617 -0.152987
C52   C     C_R   0.957906 0.784054 0.533303 -0.106092
C53   C     C_R   0.984110 0.688511 0.464614 -0.073436
C54   C     C_R   0.890502 0.726405 0.395115 -0.117524
H17   H     H_    0.641967 0.051915 0.466868 0.171170
H18   H     H_    0.816603 0.991909 0.586108 0.127496
H19   H     H_    0.028420 0.752739 0.587613 0.136171
H20   H     H_    0.073537 0.582806 0.465826 0.155679
H21   H     H_    0.911359 0.649192 0.343212 0.098503
O27   O     O_3   0.666546 0.770085 0.746345 -0.545146
C55   C     C_3   0.789204 0.772501 0.788681 0.012419
H22   H     H_    0.842324 0.682695 0.827281 0.163417
H23   H     H_    0.763640 0.871836 0.829795 0.115479
C56   C     C_3   0.892231 0.750616 0.729845 -0.299477
H24   H     H_    0.932241 0.641216 0.699949 0.172191
H25   H     H_    0.837651 0.825439 0.683004 0.152241
C57   C     C_3   0.011799 0.779227 0.771891 -0.462653
H26   H     H_    0.964920 0.895065 0.791140 0.194864
H27   H     H_    0.092022 0.751652 0.730146 0.149437
H28   H     H_    0.064562 0.717022 0.824722 0.167793

loop_
_geom_bond_atom_site_label_1
_geom_bond_atom_site_label_2
_ccdc_geom_bond_type
C25   C31   A    
C1    C21   S    
C1    O20   A    
C43   O13   A    
C12   O21   A    
C19   C20   A    
Cr3   O4    S    
C56   H25   S    
C49   C50   A    
C19   C49   S    
C7    C8    A    
C22   C42   S    
C17   H15   S    
C52   H19   S    
C53   C54   A    
C43   O18   A    
C14   C21   A    
C36   C37   T    
Cr5   O9    S    
Cr3   O5    S    
C27   H6    S    
C55   H23   S    
C30   C31   A    
Cr1   O12   S    
C15   C16   A    
C33   C45   S    
O27   C55   S    
C18   C19   A    
Cr4   O14   S    
Cr2   O2    S    
Cr3   O3    S    
Cr2   O20   S    
C8    C9    A    
C57   H27   S    
Cr1   O5    S    
C29   O27   S    
Cr5   O16   S    
C42   O16   A    
Cr1   O24   S    
C38   C48   S    
C49   C54   A    
C18   H2    S    
C25   C32   A    
C51   H18   S    
C13   C14   A    
C31   H8    S    
Cr4   O19   S    
C2    C6    A    
C45   O24   A    
C56   H24   S    
Cr6   O10   S    
C32   C44   S    
C5    C48   A    
C14   C20   A    
C16   H16   S    
C24   C25   A    
Cr6   O19   S    
C12   C46   S    
C55   C56   S    
C26   C32   A    
C38   O8    A    
C2    C48   A    
C1    O12   A    
C41   O14   A    
C8    H12   S    
Cr1   O25   S    
C23   O23   A    
C5    H10   S    
C45   O4    A    
C39   O9    A    
C6    H9    S    
C37   C43   S    
Cr4   O13   S    
C9    H13   S    
C29   C30   A    
C3    C9    A    
C23   O1    A    
Cr3   O22   S    
C7    H11   S    
C11   C16   A    
C51   C52   A    
C57   H28   S    
C17   C18   A    
C26   C27   A    
C54   H21   S    
C34   O25   A    
C26   H4    S    
Cr3   O23   S    
C22   C27   A    
C4    H1    S    
Cr5   O19   S    
C22   C24   A    
C4    C10   A    
Cr4   O7    S    
C39   C47   S    
C28   H5    S    
C53   H20   S    
C46   C47   T    
C28   C29   A    
C40   O11   A    
C12   O22   A    
C24   C28   A    
C34   O26   A    
C4    C5    A    
Cr4   O6    S    
C6    C7    A    
C38   O7    A    
C10   C23   S    
C41   O15   A    
C13   C17   A    
C39   O10   A    
C2    C3    A    
C3    C10   A    
C55   H22   S    
Cr6   O18   S    
C11   C13   A    
Cr2   O26   S    
C57   H26   S    
Cr6   O17   S    
C15   H14   S    
C52   C53   A    
C33   C35   T    
C44   O2    A    
C34   C36   S    
C56   C57   S    
C11   C40   S    
C35   C41   S    
Cr5   O8    S    
C40   O6    A    
Cr2   O21   S    
C15   C21   A    
C50   C51   A    
Cr1   O1    S    
C30   H7    S    
Cr5   O15   S    
C42   O17   A    
C20   H3    S    
Cr2   O5    S    
Cr6   O11   S    
C50   H17   S    
C44   O3    A    
