data_mof_unit_36087.cif
_audit_creation_date              2012-12-11T15:11:46-0500
_audit_creation_method            fapswitch 2.2
_symmetry_space_group_name_H-M    P1
_symmetry_Int_Tables_number       1
_space_group_crystal_system       triclinic
_cell_length_a                    20.036391
_cell_length_b                    7.116035
_cell_length_c                    13.792594
_cell_angle_alpha                 90.009259
_cell_angle_beta                  103.80716
_cell_angle_gamma                 89.933803
_cell_volume                      1909.71774547

loop_
_atom_site_label
_atom_site_type_symbol
_atom_type_description
_atom_site_fract_x
_atom_site_fract_y
_atom_site_fract_z
_atom_type_partial_charge
O1    O     O_R   0.449830 0.506740 0.599960 -0.546963
O2    O     O_R   0.550170 0.006740 0.400040 -0.545469
O3    O     O_R   0.588980 0.179860 0.596720 -0.505467
O4    O     O_R   0.411020 0.679860 0.403280 -0.512380
C1    C     C_R   0.617291 0.344075 0.616405 0.674238
C2    C     C_R   0.383084 0.844594 0.382751 0.705393
O5    O     O_R   0.452740 0.177340 0.612040 -0.539179
O6    O     O_R   0.547260 0.677340 0.387960 -0.531228
O7    O     O_R   0.412960 0.002070 0.415460 -0.559283
O8    O     O_R   0.587040 0.502070 0.584540 -0.551392
C3    C     C_R   0.436117 0.346015 0.637013 0.710339
C4    C     C_R   0.564683 0.845785 0.364388 0.739371
O9    O     O_3   0.487110 0.337570 0.435490 -0.372507
O10   O     O_3   0.512890 0.837570 0.564510 -0.370335
V1    V     V_3+5 0.502390 0.064650 0.511970 1.498879
V2    V     V_3+5 0.497610 0.564650 0.488030 1.505702
C5    C     C_R   0.605799 0.896626 0.117455 0.698871
C6    C     C_R   0.394755 0.398516 0.885447 0.722554
H1    H     H_    0.514530 0.918189 0.171453 0.164379
H2    H     H_    0.486240 0.417700 0.831364 0.155541
C7    C     C_R   0.603588 0.855899 0.288929 -0.137254
C8    C     C_R   0.397385 0.356089 0.713508 -0.128580
C9    C     C_R   0.932454 0.870277 0.313138 -0.171261
C10   C     C_R   0.067990 0.359898 0.686833 -0.169051
C11   C     C_R   0.898226 0.869746 0.389611 -0.126895
C12   C     C_R   0.102677 0.355416 0.610943 -0.128682
C13   C     C_R   0.826749 0.860708 0.368010 -0.156012
C14   C     C_R   0.174241 0.351429 0.633416 -0.154623
C15   C     C_R   0.787332 0.849495 0.268138 0.113983
C16   C     C_R   0.213410 0.350346 0.733725 0.114385
C17   C     C_R   0.822769 0.847289 0.190030 0.078682
C18   C     C_R   0.177504 0.355564 0.811164 0.055905
C19   C     C_R   0.713913 0.848673 0.243300 0.001093
C20   C     C_R   0.286869 0.350629 0.759389 -0.006468
C21   C     C_R   0.677356 0.858449 0.141421 -0.084570
C22   C     C_R   0.323090 0.362795 0.861644 -0.091560
C23   C     C_R   0.712919 0.831143 0.066297 -0.036302
C24   C     C_R   0.286754 0.342769 0.936937 -0.008436
C25   C     C_R   0.784826 0.831361 0.090430 -0.212997
C26   C     C_R   0.214883 0.351327 0.911295 -0.194993
C27   C     C_R   0.675069 0.839048 0.316123 -0.226707
C28   C     C_R   0.325951 0.339198 0.686710 -0.220037
C29   C     C_R   0.569500 0.893019 0.190996 -0.173862
C30   C     C_R   0.431286 0.392931 0.811760 -0.199008
C31   C     C_R   0.895658 0.859384 0.213582 -0.046696
C32   C     C_R   0.104488 0.359941 0.786666 -0.050343
H3    H     H_    0.698484 0.816037 0.394118 0.109587
H4    H     H_    0.302761 0.316065 0.608727 0.104138
H5    H     H_    0.988038 0.880195 0.331621 0.094902
H6    H     H_    0.012298 0.363938 0.667665 0.095868
H7    H     H_    0.803935 0.867578 0.431170 0.103594
H8    H     H_    0.197113 0.352444 0.570275 0.100159
H9    H     H_    0.927301 0.879328 0.466446 0.119227
H10   H     H_    0.073853 0.356524 0.533793 0.118644
H11   H     H_    0.810990 0.816196 0.030617 0.120188
H12   H     H_    0.187961 0.345626 0.970623 0.145421
C33   C     C_3   0.242022 0.777597 0.135519 -0.192977
C34   C     C_3   0.764589 0.219068 0.850243 -0.178896
H13   H     H_    0.230256 0.625952 0.122478 0.166250
H14   H     H_    0.789001 0.077511 0.856463 0.167461
C35   C     C_3   0.315539 0.795401 0.205471 0.518978
C36   C     C_3   0.694008 0.204189 0.771651 0.516768
H15   H     H_    0.345418 0.904746 0.176961 0.055191
H16   H     H_    0.649608 0.223822 0.805769 0.112951
H17   H     H_    0.169929 0.585432 0.255044 0.153350
H18   H     H_    0.837488 0.147074 0.708707 0.155418
H19   H     H_    0.280520 0.568965 0.349127 0.182608
H20   H     H_    0.734437 0.164851 0.590778 0.176414
C37   C     C_3   0.188008 0.729096 0.280375 -0.373343
C38   C     C_3   0.817265 0.293260 0.705174 -0.351801
C39   C     C_3   0.209633 0.057339 0.232190 -0.316988
C40   C     C_3   0.778598 0.555664 0.799863 -0.289440
C41   C     C_3   0.187094 0.858235 0.189162 -0.028465
C42   C     C_3   0.812840 0.358151 0.811342 -0.066815
H21   H     H_    0.171120 0.114184 0.270883 0.144587
H22   H     H_    0.809565 0.655409 0.766382 0.170818
H23   H     H_    0.210987 0.155732 0.170524 0.209504
H24   H     H_    0.777498 0.611320 0.874529 0.168752
C43   C     C_3   0.311925 0.851689 0.312818 -0.020514
C44   C     C_3   0.688743 0.349776 0.686080 -0.069701
C45   C     C_3   0.261754 0.716272 0.348934 -0.306891
C46   C     C_3   0.745449 0.301683 0.630375 -0.278153
C47   C     C_3   0.280595 0.052151 0.306973 -0.435467
C48   C     C_3   0.704977 0.547271 0.732761 -0.347619
H25   H     H_    0.315276 0.155408 0.283454 0.201061
H26   H     H_    0.667171 0.580401 0.776930 0.180312
H27   H     H_    0.275013 0.096058 0.382120 0.161160
H28   H     H_    0.699704 0.655788 0.673306 0.217432
H29   H     H_    0.152103 0.785000 0.323773 0.141636
H30   H     H_    0.853884 0.384068 0.677365 0.129251
H31   H     H_    0.260138 0.751265 0.426976 0.126613
H32   H     H_    0.746006 0.410301 0.572525 0.125666
O11   O     O_R   0.912980 0.203550 0.915410 -0.533439
O12   O     O_R   0.087020 0.703550 0.084590 -0.549611
O13   O     O_R   0.047270 0.535570 0.887960 -0.543116
O14   O     O_R   0.952730 0.035570 0.112040 -0.525391
C49   C     C_R   0.064928 0.368233 0.863536 0.679415
C50   C     C_R   0.934711 0.868218 0.136070 0.687671
O15   O     O_R   0.911030 0.532970 0.903270 -0.552171
O16   O     O_R   0.088970 0.032970 0.096730 -0.537315
O17   O     O_R   0.949820 0.708150 0.099970 -0.541308
O18   O     O_R   0.050180 0.208150 0.900030 -0.525264
C51   C     C_R   0.884270 0.364912 0.880947 0.726406
C52   C     C_R   0.115470 0.864500 0.119803 0.730326
O19   O     O_3   0.012900 0.375230 0.064480 -0.377548
O20   O     O_3   0.987100 0.875230 0.935520 -0.378915
V3    V     V_3+5 0.997610 0.648190 0.988040 1.438117
V4    V     V_3+5 0.002390 0.148190 0.011960 1.486151
C53   C     C_2   0.240904 0.857312 0.033145 0.689138
O21   O     O_2   0.198844 0.975854 0.994532 -0.579616
O22   O     O_R   0.288318 0.790310 0.981671 -0.620802
H33   H     H_    0.282939 0.851992 0.913972 0.307438
C54   C     C_2   0.757175 0.268008 0.954963 0.687096
O23   O     O_2   0.807581 0.261081 0.025270 -0.558186
O24   O     O_R   0.693455 0.316346 0.972568 -0.645525
H34   H     H_    0.696046 0.342309 0.045668 0.322942
F1    F     F_    0.351170 0.628468 0.206704 -0.638444
F2    F     F_    0.688038 0.025262 0.730406 -0.673312
C55   C     C_2   0.675513 0.786018 0.963372 0.872708
O25   O     O_2   0.693454 0.856418 0.893534 -0.555935
O26   O     O_R   0.619223 0.663752 0.946310 -0.612128
H35   H     H_    0.594116 0.655726 0.873417 0.305043
C56   C     C_2   0.321829 0.290289 0.040962 0.936342
O27   O     O_2   0.296475 0.333476 0.109814 -0.569910
O28   O     O_R   0.381665 0.181128 0.059907 -0.617468
H36   H     H_    0.402496 0.163619 0.133881 0.300375
F3    F     F_    0.571024 0.948299 0.024283 -0.636025
F4    F     F_    0.429175 0.453288 0.978189 -0.615350

loop_
_geom_bond_atom_site_label_1
_geom_bond_atom_site_label_2
_ccdc_geom_bond_type
O17   V3    S    
C47   H27   S    
C34   C36   S    
C9    C31   A    
C13   C15   A    
O15   C51   A    
O22   H33   S    
O1    C3    A    
C44   C48   S    
O2    C4    A    
O11   C51   A    
C2    O7    A    
C56   O27   D    
H18   C38   S    
O5    C3    A    
O19   V3    S    
C36   C44   S    
C21   C23   A    
C11   H9    S    
C31   C50   S    
C53   O22   S    
O11   V4    S    
C33   H13   S    
O20   V3    S    
C34   H14   S    
O24   H34   S    
C15   C19   A    
O16   C52   A    
C46   H32   S    
C33   C41   S    
C35   H15   S    
C36   H16   S    
C6    F4    S    
C7    C29   A    
C41   C52   S    
C33   C53   S    
C13   H7    S    
C20   C28   A    
C26   H12   S    
O14   C50   A    
C38   C42   S    
C34   C54   S    
C40   H24   S    
O18   V4    S    
C16   C18   A    
C24   C56   S    
C40   H22   S    
O5    V1    S    
O14   V4    S    
O12   C52   A    
O6    V2    S    
C24   C26   A    
C38   H30   S    
C37   H29   S    
C12   H10   S    
H2    C30   S    
H1    C29   S    
C39   C47   S    
C55   O26   S    
C10   H6    S    
O19   V4    S    
C25   H11   S    
O12   V3    S    
O16   V4    S    
C16   C20   A    
C35   F1    S    
C48   H28   S    
C37   C45   S    
C44   C46   S    
C43   C45   S    
C5    F3    S    
C4    C7    S    
C45   H31   S    
O4    V2    S    
C5    C29   A    
C6    C30   A    
C23   C55   S    
O6    C4    A    
C27   H3    S    
O1    V2    S    
C28   H4    S    
C1    C44   S    
C37   C41   S    
O2    V1    S    
O26   H35   S    
C40   C48   S    
O13   V3    S    
C7    C27   A    
C40   C42   S    
C47   H25   S    
C32   C49   S    
H19   C45   S    
O28   H36   S    
O4    C2    A    
C39   H23   S    
O3    V1    S    
C34   C42   S    
C39   C41   S    
C54   O23   D    
C8    C30   A    
C18   C32   A    
C49   O18   A    
C48   H26   S    
O3    C1    A    
C55   O25   D    
O13   C49   A    
C33   C35   S    
C11   C13   A    
C50   O17   A    
O15   V3    S    
C3    C8    S    
C12   C14   A    
H20   C46   S    
C22   C24   A    
O7    V1    S    
C19   C27   A    
C1    O8    A    
C23   C25   A    
O8    V2    S    
C53   O21   D    
C39   H21   S    
C14   H8    S    
C10   C12   A    
C2    C43   S    
C8    C28   A    
O20   V4    S    
C35   C43   S    
H17   C37   S    
C14   C16   A    
C19   C21   A    
C17   C25   A    
C20   C22   A    
C18   C26   A    
C38   C46   S    
C36   F2    S    
C56   O28   S    
C43   C47   S    
C9    C11   A    
C9    H5    S    
C15   C17   A    
C17   C31   A    
O9    V2    S    
O10   V1    S    
C42   C51   S    
C5    C21   A    
C6    C22   A    
C10   C32   A    
C54   O24   S    
