data_mof_unit_39565.cif
_audit_creation_date              2012-10-26T19:20:39-0400
_audit_creation_method            fapswitch 2.2
_symmetry_space_group_name_H-M    P1
_symmetry_Int_Tables_number       1
_space_group_crystal_system       triclinic
_cell_length_a                    10.786993
_cell_length_b                    11.034398
_cell_length_c                    9.895247
_cell_angle_alpha                 112.279133
_cell_angle_beta                  98.604425
_cell_angle_gamma                 90.275195
_cell_volume                      1075.1791062

loop_
_atom_site_label
_atom_site_type_symbol
_atom_type_description
_atom_site_fract_x
_atom_site_fract_y
_atom_site_fract_z
_atom_type_partial_charge
C1    C     C_R   0.493655 0.253825 0.439338 0.523345
C2    C     C_R   0.736937 0.499775 0.499093 0.529999
C3    C     C_R   0.151500 0.737246 0.658965 -0.103789
C4    C     C_R   0.848500 0.262754 0.341035 -0.103789
C5    C     C_R   0.097544 0.852815 0.734988 -0.127173
C6    C     C_R   0.902456 0.147184 0.265012 -0.127173
C7    C     C_R   0.968490 0.853009 0.732495 -0.132362
C8    C     C_R   0.031510 0.146991 0.267505 -0.132362
C9    C     C_R   0.892887 0.737553 0.654310 -0.111325
C10   C     C_R   0.107113 0.262447 0.345690 -0.111325
C11   C     C_R   0.945806 0.618221 0.578037 0.008999
C12   C     C_R   0.506345 0.746175 0.560662 0.523345
C13   C     C_R   0.054194 0.381779 0.421963 0.008999
C14   C     C_R   0.076677 0.618075 0.580368 0.006900
C15   C     C_R   0.923323 0.381925 0.419632 0.006900
C16   C     C_R   0.870574 0.500147 0.497786 -0.020712
C17   C     C_R   0.129426 0.499853 0.502214 -0.020712
C18   C     C_3   0.336622 0.886805 0.413379 -0.259520
C19   C     C_3   0.236467 0.980239 0.476252 -0.448466
C20   C     C_3   0.663378 0.113195 0.586620 -0.259520
C21   C     C_3   0.763533 0.019761 0.523748 -0.448466
C22   C     C_3   0.642948 0.665036 0.957122 -0.112957
C23   C     C_2   0.477115 0.114072 0.404618 -0.123544
C24   C     C_3   0.574648 0.787516 0.033954 -0.423040
C25   C     C_3   0.357052 0.334964 0.042877 -0.112957
C26   C     C_3   0.425352 0.212484 0.966046 -0.423040
C27   C     C_2   0.522885 0.885928 0.595382 -0.123544
C28   C     C_2   0.531909 0.059660 0.497644 0.018373
C29   C     C_2   0.468091 0.940340 0.502355 0.018373
C30   C     C_2   0.508589 0.510763 0.081644 0.017727
C31   C     C_2   0.491411 0.489237 0.918356 0.017727
C32   C     C_R   0.263063 0.500225 0.500907 0.529999
Cu1   Cu    Cu3+1 0.521920 0.521810 0.644910 0.899212
Cu2   Cu    Cu3+1 0.478080 0.478190 0.355090 0.899212
H1    H     H_    0.073415 0.056869 0.209413 0.107224
H2    H     H_    0.401477 0.062745 0.314955 0.078772
H3    H     H_    0.422867 0.414001 0.840400 0.141898
H4    H     H_    0.577133 0.585999 0.159600 0.141897
H5    H     H_    0.238708 0.997025 0.594559 0.149472
H6    H     H_    0.250738 0.076373 0.467751 0.151706
H7    H     H_    0.141985 0.936116 0.414296 0.143172
H8    H     H_    0.334503 0.867059 0.294415 0.131955
H9    H     H_    0.306857 0.792034 0.417181 0.171643
H10   H     H_    0.749262 0.923627 0.532249 0.151706
H11   H     H_    0.761291 0.002974 0.405441 0.149472
H12   H     H_    0.926585 0.943130 0.790587 0.107224
H13   H     H_    0.858014 0.063884 0.585704 0.143172
H14   H     H_    0.693142 0.207966 0.582819 0.171643
H15   H     H_    0.665497 0.132940 0.705585 0.131955
H16   H     H_    0.512900 0.814415 0.950831 0.171770
H17   H     H_    0.516360 0.771595 0.109790 0.136606
H18   H     H_    0.644665 0.870901 0.099809 0.104491
H19   H     H_    0.708775 0.639432 0.038346 0.096328
H20   H     H_    0.702393 0.688986 0.887171 0.175456
H21   H     H_    0.483640 0.228405 0.890210 0.136606
H22   H     H_    0.487100 0.185584 0.049169 0.171770
H23   H     H_    0.252055 0.742910 0.662300 0.128231
H24   H     H_    0.355335 0.129098 0.900191 0.104491
H25   H     H_    0.297607 0.311014 0.112829 0.175456
H26   H     H_    0.291224 0.360568 0.961654 0.096328
H27   H     H_    0.747945 0.257090 0.337700 0.128231
H28   H     H_    0.156061 0.942753 0.795362 0.099060
H29   H     H_    0.843939 0.057247 0.204638 0.099060
H30   H     H_    0.792817 0.743471 0.653775 0.120740
H31   H     H_    0.207183 0.256529 0.346226 0.120740
H32   H     H_    0.598523 0.937255 0.685045 0.078772
N1    N     N_2   0.445130 0.445420 0.137360 -0.233285
N2    N     N_2   0.554870 0.554580 0.862640 -0.233285
O1    O     O_R   0.511700 0.332340 0.577400 -0.496666
O2    O     O_R   0.488300 0.667660 0.422600 -0.496666
O3    O     O_R   0.474680 0.295500 0.332650 -0.512509
O4    O     O_R   0.525320 0.704500 0.667350 -0.512509
O5    O     O_R   0.338170 0.518410 0.622370 -0.499373
O6    O     O_R   0.661830 0.481590 0.377630 -0.499373
O7    O     O_R   0.301150 0.481570 0.377630 -0.508358
O8    O     O_R   0.698850 0.518430 0.622370 -0.508357

loop_
_geom_bond_atom_site_label_1
_geom_bond_atom_site_label_2
_ccdc_geom_bond_type
C6    H29   S    
C24   H18   S    
C5    C7    A    
C20   H15   S    
C25   H26   S    
C13   C17   A    
C27   C29   D    
C21   H10   S    
C2    C16   S    
C11   C16   A    
Cu2   O2    S    
Cu1   O8    S    
C20   C28   S    
C30   N1    D    
C25   N1    S    
Cu2   O3    S    
Cu1   O1    S    
Cu2   O7    S    
C9    C11   A    
C26   H21   S    
C24   H17   S    
C13   C15   A    
Cu1   Cu2   S    
C12   O4    A    
C22   H20   S    
C18   C29   S    
C20   H14   S    
C23   C28   D    
C26   H24   S    
C14   C17   A    
C22   N2    S    
C2    O6    A    
C1    O3    A    
Cu2   N1    S    
C19   H5    S    
C3    C14   A    
C3    H23   S    
Cu1   O5    S    
C28   C29   S    
C32   O7    A    
C5    H28   S    
C1    C23   S    
C22   H19   S    
C21   H11   S    
C18   H8    S    
C4    C15   A    
C24   H16   S    
C30   C31   S    
C11   C14   A    
C22   C24   S    
C4    C6    A    
C19   H6    S    
C12   C27   S    
C15   C16   A    
C9    H30   S    
C7    H12   S    
C19   H7    S    
C27   H32   S    
C2    O8    A    
C20   C21   S    
C30   H4    S    
C7    C9    A    
C23   H2    S    
C10   H31   S    
C32   O5    A    
Cu2   O6    S    
C17   C32   S    
C12   O2    A    
C18   C19   S    
C6    C8    A    
C25   H25   S    
Cu1   O4    S    
C21   H13   S    
C25   C26   S    
C18   H9    S    
C4    H27   S    
C10   C13   A    
C8    C10   A    
C1    O1    A    
C31   H3    S    
Cu1   N2    S    
C31   N2    D    
C3    C5    A    
C8    H1    S    
C26   H22   S    
