data_mof_unit_68608.cif
_audit_creation_date              2012-12-10T17:22:58-0500
_audit_creation_method            fapswitch 2.2
_symmetry_space_group_name_H-M    P1
_symmetry_Int_Tables_number       1
_space_group_crystal_system       triclinic
_cell_length_a                    10.343236
_cell_length_b                    10.536838
_cell_length_c                    11.134846
_cell_angle_alpha                 93.963666
_cell_angle_beta                  93.653348
_cell_angle_gamma                 84.065862
_cell_volume                      1202.18255347

loop_
_atom_site_label
_atom_site_type_symbol
_atom_type_description
_atom_site_fract_x
_atom_site_fract_y
_atom_site_fract_z
_atom_type_partial_charge
C1    C     C_R   0.447321 0.517100 0.270638 0.857297
C2    C     C_3   0.498675 0.122481 0.503653 -0.012201
C3    C     C_3   0.622096 0.945390 0.492219 -0.197681
C4    C     C_3   0.377130 0.052534 0.510811 -0.172928
C5    C     C_2   0.421355 0.541076 0.143791 0.131543
C6    C     C_2   0.576727 0.528629 0.855842 0.141738
C7    C     C_2   0.520048 0.535385 0.068964 -0.070013
C8    C     C_2   0.497352 0.496633 0.939333 -0.054202
C9    C     C_2   0.073066 0.485221 0.488780 -0.046847
C10   C     C_2   0.929572 0.524961 0.489219 -0.034615
C11   C     C_R   0.614596 0.060074 0.291496 0.114781
C12   C     C_R   0.552597 0.494681 0.730009 0.873258
C13   C     C_R   0.565722 0.027922 0.174300 -0.174577
C14   C     C_R   0.637812 0.045172 0.075596 -0.142768
C15   C     C_R   0.755568 0.099361 0.092310 -0.132881
C16   C     C_R   0.803678 0.133430 0.208438 -0.165616
C17   C     C_R   0.735510 0.110911 0.307791 -0.122880
C18   C     C_R   0.395659 0.924654 0.711408 0.112752
C19   C     C_R   0.476481 0.883956 0.809566 -0.141482
C20   C     C_R   0.422832 0.844072 0.911258 -0.108145
C21   C     C_R   0.288296 0.844954 0.915202 -0.132898
C22   C     C_R   0.207292 0.881327 0.816197 -0.174629
C23   C     C_R   0.498738 0.258129 0.501644 0.876560
C24   C     C_R   0.260445 0.920361 0.714179 -0.117057
C25   C     C_R   0.399234 0.402381 0.907882 0.120430
C26   C     C_R   0.426123 0.278084 0.945105 -0.209907
C27   C     C_R   0.333317 0.190505 0.925315 -0.129120
C28   C     C_R   0.213104 0.225701 0.866091 -0.151206
C29   C     C_R   0.184198 0.350002 0.829657 -0.174283
C30   C     C_R   0.275619 0.438715 0.852433 0.054928
C31   C     C_R   0.653153 0.563233 0.115905 0.206562
C32   C     C_R   0.762503 0.477339 0.090254 -0.080995
C33   C     C_R   0.886822 0.518038 0.108160 -0.095982
C34   C     C_R   0.501299 0.741402 0.498953 0.875649
C35   C     C_R   0.903058 0.641307 0.158001 -0.112445
C36   C     C_R   0.795288 0.723281 0.192758 -0.119371
C37   C     C_R   0.670566 0.684484 0.172255 -0.048562
C38   C     C_R   0.894444 0.660038 0.530557 0.172318
C39   C     C_R   0.855755 0.688222 0.648092 -0.070177
C40   C     C_R   0.859290 0.811651 0.702981 -0.154096
C41   C     C_R   0.908024 0.906697 0.642628 -0.186460
C42   C     C_R   0.953280 0.878391 0.527493 -0.183525
C43   C     C_R   0.945084 0.756458 0.471164 -0.197459
C44   C     C_R   0.115697 0.377683 0.403234 0.218837
C45   C     C_3   0.546026 0.029944 0.399828 0.039730
C46   C     C_R   0.110653 0.250971 0.432068 -0.210447
C47   C     C_R   0.133351 0.150275 0.344327 -0.178116
C48   C     C_R   0.163527 0.175340 0.228510 -0.139561
C49   C     C_R   0.161997 0.301501 0.198056 -0.162000
C50   C     C_R   0.132728 0.401616 0.283975 -0.085202
C51   C     C_3   0.453939 0.967580 0.602438 0.046403
C52   C     C_3   0.424207 0.958346 0.405306 -0.234513
C53   C     C_3   0.575415 0.039625 0.597414 -0.229979
C54   C     C_3   0.501186 0.876269 0.498665 -0.026300
Cl1   Cl    Cl    0.687160 0.645818 0.881330 -0.750215
Cl2   Cl    Cl    0.259462 0.588834 0.094754 -0.780511
H1    H     H_    0.362628 0.921165 0.328163 0.139088
H2    H     H_    0.894145 0.176367 0.221366 0.150913
H3    H     H_    0.778095 0.131564 0.397438 0.141729
H4    H     H_    0.580724 0.885183 0.807662 0.162002
H5    H     H_    0.485112 0.815339 0.988252 0.177672
H6    H     H_    0.246427 0.819851 0.995564 0.192246
H7    H     H_    0.103285 0.881127 0.819845 0.148730
H8    H     H_    0.195918 0.947839 0.638227 0.123050
H9    H     H_    0.518135 0.251379 0.992104 0.144773
H10   H     H_    0.353556 0.096557 0.958613 0.150783
H11   H     H_    0.141099 0.157907 0.851307 0.131670
H12   H     H_    0.636242 0.075652 0.675650 0.132651
H13   H     H_    0.090036 0.378478 0.786224 0.129762
H14   H     H_    0.249260 0.536459 0.828910 0.163205
H15   H     H_    0.750649 0.383726 0.046920 0.108287
H16   H     H_    0.969694 0.455833 0.078343 0.147108
H17   H     H_    0.998905 0.674145 0.168916 0.169857
H18   H     H_    0.808046 0.818397 0.231840 0.141294
H19   H     H_    0.587227 0.751047 0.194092 0.091265
H20   H     H_    0.834861 0.611214 0.699801 0.203889
H21   H     H_    0.830537 0.832510 0.794467 0.183509
H22   H     H_    0.913173 0.001363 0.685947 0.127009
H23   H     H_    0.715793 0.892681 0.473272 0.189873
H24   H     H_    0.993649 0.950977 0.481728 0.129495
H25   H     H_    0.988063 0.734357 0.385384 0.138112
H26   H     H_    0.085428 0.230675 0.521263 0.112986
H27   H     H_    0.128467 0.052587 0.366095 0.131235
H28   H     H_    0.183519 0.097468 0.161541 0.129850
H29   H     H_    0.179555 0.322108 0.107242 0.191935
H30   H     H_    0.122865 0.498925 0.258625 0.182763
H31   H     H_    0.281238 0.098901 0.533417 0.149390
H32   H     H_    0.875045 0.356157 0.419868 0.164244
H33   H     H_    0.124510 0.622905 0.613439 0.177891
H34   H     H_    0.473638 0.987517 0.159237 0.114112
H35   H     H_    0.601107 0.020343 0.985426 0.130654
H36   H     H_    0.809190 0.115309 0.015255 0.117354
N1    N     N_2   0.157310 0.552180 0.551120 -0.227379
N2    N     N_2   0.842690 0.447820 0.448880 -0.220421
O1    O     O_R   0.568940 0.489500 0.307530 -0.631629
O2    O     O_R   0.431060 0.510500 0.692470 -0.634417
O3    O     O_R   0.348880 0.522990 0.340350 -0.582583
O4    O     O_R   0.651120 0.477010 0.659650 -0.606442
O5    O     O_R   0.610000 0.297210 0.483560 -0.633853
O6    O     O_R   0.390000 0.702790 0.516440 -0.608993
O7    O     O_R   0.389940 0.330700 0.516390 -0.604059
O8    O     O_R   0.610060 0.669300 0.483610 -0.616543
Zn1   Zn    Zn3+2 0.646930 0.477640 0.478080 0.948395
Zn2   Zn    Zn3+2 0.353070 0.522360 0.521920 0.966608

loop_
_geom_bond_atom_site_label_1
_geom_bond_atom_site_label_2
_ccdc_geom_bond_type
C23   O5    A    
C42   H24   S    
C13   H34   S    
C3    C53   S    
C41   C42   A    
C5    Cl2   S    
O5    Zn1   S    
C35   C36   A    
C6    Cl1   S    
C3    H23   S    
C7    C8    S    
C4    H31   S    
C26   C27   A    
C34   O8    A    
C4    C52   S    
C1    C5    S    
C28   C29   A    
C6    C12   S    
C38   C39   A    
C3    C54   S    
C10   N2    D    
O4    Zn1   S    
O6    Zn2   S    
C18   C19   A    
C20   H5    S    
C53   H12   S    
C33   H16   S    
C15   H36   S    
C46   H26   S    
C11   C17   A    
C22   H7    S    
C44   C46   A    
C16   C17   A    
C34   O6    A    
C18   C24   A    
C47   H27   S    
C9    C10   S    
C12   O4    A    
C52   C54   S    
C37   H19   S    
C24   H8    S    
C13   C14   A    
C8    C25   S    
N1    Zn2   S    
C30   H14   S    
O1    Zn1   S    
C18   C51   S    
C32   H15   S    
C29   H13   S    
C2    C45   S    
H32   N2    S    
C7    C31   S    
C4    C51   S    
C49   H29   S    
C28   H11   S    
C1    O3    A    
C41   H22   S    
C5    C7    D    
C6    C8    D    
C45   C52   S    
C25   C26   A    
C3    C45   S    
C48   H28   S    
C51   C53   S    
C2    C4    S    
C29   C30   A    
C47   C48   A    
C1    O1    A    
C16   H2    S    
C39   H20   S    
C21   H6    S    
C36   H18   S    
C17   H3    S    
C48   C49   A    
N2    Zn1   S    
C34   C54   S    
O7    Zn2   S    
O2    Zn2   S    
C43   H25   S    
C22   C24   A    
C11   C45   S    
C42   C43   A    
C9    N1    D    
C39   C40   A    
C44   C50   A    
C25   C30   A    
C46   C47   A    
C35   H17   S    
C9    C44   S    
C14   C15   A    
C26   H9    S    
C31   C32   A    
C2    C53   S    
C19   H4    S    
C10   C38   S    
C51   C54   S    
C32   C33   A    
C19   C20   A    
C38   C43   A    
C27   H10   S    
C11   C13   A    
C23   O7    A    
C33   C35   A    
H33   N1    S    
O8    Zn1   S    
C14   H35   S    
O3    Zn2   S    
C52   H1    S    
C50   H30   S    
C31   C37   A    
C20   C21   A    
C36   C37   A    
C49   C50   A    
C2    C23   S    
C40   H21   S    
C12   O2    A    
C40   C41   A    
C21   C22   A    
C15   C16   A    
C27   C28   A    
