data_mof_unit_43063.cif
_audit_creation_date              2012-12-10T16:45:24-0500
_audit_creation_method            fapswitch 2.2
_symmetry_space_group_name_H-M    P1
_symmetry_Int_Tables_number       1
_space_group_crystal_system       triclinic
_cell_length_a                    7.417694
_cell_length_b                    8.718726
_cell_length_c                    15.840189
_cell_angle_alpha                 94.104812
_cell_angle_beta                  75.112591
_cell_angle_gamma                 102.572987
_cell_volume                      966.167750341

loop_
_atom_site_label
_atom_site_type_symbol
_atom_type_description
_atom_site_fract_x
_atom_site_fract_y
_atom_site_fract_z
_atom_type_partial_charge
C1    C     C_R   0.542334 0.799507 0.503932 0.874620
C2    C     C_R   0.615964 0.511552 0.333784 0.803683
C3    C     C_R   0.313957 0.471141 0.761207 -0.051781
C4    C     C_R   0.686044 0.528857 0.238793 -0.051780
C5    C     C_R   0.073436 0.360988 0.887884 -0.179783
C6    C     C_R   0.926567 0.639001 0.112115 -0.179783
C7    C     C_R   0.126677 0.396159 0.799403 -0.188141
C8    C     C_R   0.873325 0.603833 0.200596 -0.188141
C9    C     C_R   0.444244 0.517775 0.812953 -0.225854
C10   C     C_R   0.555756 0.482226 0.187047 -0.225855
C11   C     C_R   0.395214 0.482847 0.902317 0.082217
C12   C     C_R   0.457666 0.200493 0.496068 0.874621
C13   C     C_R   0.604788 0.517148 0.097682 0.082217
C14   C     C_R   0.206518 0.401224 0.939055 0.146106
C15   C     C_R   0.793487 0.598767 0.060944 0.146107
C16   C     C_R   0.528943 0.522590 0.955332 0.062073
C17   C     C_R   0.471061 0.477404 0.044667 0.062071
C18   C     C_R   0.281424 0.394470 0.077924 -0.216658
C19   C     C_R   0.718581 0.605520 0.922075 -0.216656
C20   C     C_R   0.152556 0.358084 0.026121 -0.217267
C21   C     C_R   0.847450 0.641904 0.973877 -0.217268
C22   C     C_2   0.549720 0.963465 0.519193 -0.080074
C23   C     C_2   0.450280 0.036535 0.480807 -0.080075
C24   C     C_R   0.384035 0.488448 0.666216 0.803683
Cu1   Cu    Cu3+1 0.322120 0.483240 0.490330 1.000436
Cu2   Cu    Cu3+1 0.677880 0.516760 0.509670 1.000436
H1    H     H_    0.008838 0.294932 0.054664 0.157296
H2    H     H_    0.774154 0.645592 0.855981 0.150337
H3    H     H_    0.004279 0.615050 0.568402 0.234562
H4    H     H_    0.995721 0.384950 0.431598 0.234562
H5    H     H_    0.991169 0.705054 0.945334 0.157297
H6    H     H_    0.414763 0.422642 0.219451 0.153257
H7    H     H_    0.585235 0.577365 0.780549 0.153255
H8    H     H_    0.976083 0.640584 0.239611 0.175291
H9    H     H_    0.023919 0.359406 0.760388 0.175292
H10   H     H_    0.928769 0.299659 0.916102 0.151674
H11   H     H_    0.071236 0.700327 0.083896 0.151674
H12   H     H_    0.225854 0.354395 0.144016 0.150338
I1    I     I_    0.689466 0.062127 0.619898 -0.343157
I2    I     I_    0.310534 0.937873 0.380102 -0.343156
N1    N     N_2   0.945180 0.542040 0.524240 -0.194560
N2    N     N_2   0.054820 0.457960 0.475760 -0.194560
O1    O     O_R   0.384450 0.714270 0.493720 -0.572174
O2    O     O_R   0.615550 0.285730 0.506280 -0.572174
O3    O     O_R   0.684880 0.742590 0.510050 -0.553270
O4    O     O_R   0.315120 0.257410 0.489950 -0.553270
O5    O     O_R   0.265540 0.477900 0.617090 -0.593523
O6    O     O_R   0.734460 0.522100 0.382910 -0.593523
O7    O     O_R   0.565970 0.506210 0.633420 -0.575310
O8    O     O_R   0.434030 0.493790 0.366580 -0.575311

loop_
_geom_bond_atom_site_label_1
_geom_bond_atom_site_label_2
_ccdc_geom_bond_type
Cu1   N2    S    
C2    C4    S    
C3    C9    A    
C20   H1    S    
C10   H6    S    
C9    C11   A    
N1    N2    D    
Cu1   O5    S    
C18   C20   A    
C13   C17   A    
C4    C8    A    
C2    O6    A    
Cu1   O1    S    
C17   C18   A    
C5    C14   A    
C6    H11   S    
Cu2   O2    S    
C1    C22   S    
C12   O2    A    
Cu1   Cu2   S    
C8    H8    S    
C9    H7    S    
C19   H2    S    
C21   H5    S    
C12   C23   S    
C1    O3    A    
C3    C24   S    
C16   C19   A    
C22   I1    S    
C19   C21   A    
C3    C7    A    
C13   C15   A    
C18   H12   S    
C11   C14   A    
C4    C10   A    
C23   I2    S    
C5    H10   S    
C14   C20   A    
C15   C21   A    
Cu2   O6    S    
C12   O4    A    
C11   C16   A    
Cu2   O7    S    
C24   O7    A    
C5    C7    A    
C22   C23   D    
H4    N2    S    
C6    C8    A    
C2    O8    A    
Cu2   O3    S    
H3    N1    S    
C6    C15   A    
Cu1   O8    S    
C24   O5    A    
C7    H9    S    
Cu1   O4    S    
C1    O1    A    
Cu2   N1    S    
C16   C17   A    
C10   C13   A    
