data_mof_unit_64075.cif
_audit_creation_date              2013-03-05T16:18:19-0500
_audit_creation_method            fapswitch 2.2
_symmetry_space_group_name_H-M    P1
_symmetry_Int_Tables_number       1
_space_group_crystal_system       triclinic
_cell_length_a                    39.002912
_cell_length_b                    39.000949
_cell_length_c                    32.263646
_cell_angle_alpha                 90.005874
_cell_angle_beta                  90.009083
_cell_angle_gamma                 90.003353
_cell_volume                      49077.862924

loop_
_atom_site_label
_atom_site_type_symbol
_atom_site_description
_atom_site_fract_x
_atom_site_fract_y
_atom_site_fract_z
_atom_type_partial_charge
O1    O     O_R   0.028910 0.549920 0.999960 -0.552769
O2    O     O_R   0.549920 0.971090 0.999960 -0.551260
O3    O     O_R   0.971090 0.450080 0.999960 -0.551517
O4    O     O_R   0.450080 0.028910 0.999960 -0.552477
O5    O     O_R   0.028910 0.450080 0.000040 -0.555777
O6    O     O_R   0.549920 0.028910 0.000040 -0.555896
O7    O     O_R   0.971090 0.549920 0.000040 -0.552530
O8    O     O_R   0.450080 0.971090 0.000040 -0.552582
O9    O     O_R   0.528910 0.049920 0.499960 -0.552544
O10   O     O_R   0.049920 0.471090 0.499960 -0.551392
O11   O     O_R   0.471090 0.950080 0.499960 -0.552497
O12   O     O_R   0.950080 0.528910 0.499960 -0.554653
O13   O     O_R   0.528910 0.950080 0.500040 -0.552528
O14   O     O_R   0.049920 0.528910 0.500040 -0.555585
O15   O     O_R   0.471090 0.049920 0.500040 -0.552579
O16   O     O_R   0.950080 0.471090 0.500040 -0.554294
C1    C     C_R   0.000001 0.566184 0.999991 0.908251
C2    C     C_R   0.566186 0.000001 0.000005 0.908902
C3    C     C_R   0.999999 0.433815 0.000005 0.909126
C4    C     C_R   0.433814 0.999998 0.000006 0.907860
C5    C     C_R   0.500000 0.066185 0.499999 0.907937
C6    C     C_R   0.066188 0.500001 0.499995 0.908709
C7    C     C_R   0.500000 0.933813 0.499998 0.907791
C8    C     C_R   0.933814 0.499999 0.499995 0.910449
O17   O     O_R   0.028910 0.500000 0.940120 -0.568712
O18   O     O_R   0.500000 0.971090 0.940120 -0.568533
O19   O     O_R   0.971090 0.500000 0.940120 -0.568920
O20   O     O_R   0.500000 0.028910 0.940120 -0.568917
O21   O     O_R   0.028910 0.500000 0.059880 -0.569456
O22   O     O_R   0.500000 0.028910 0.059880 -0.569191
O23   O     O_R   0.971090 0.500000 0.059880 -0.569251
O24   O     O_R   0.500000 0.971090 0.059880 -0.568914
O25   O     O_R   0.528910 0.000000 0.440120 -0.569276
O26   O     O_R   1.000000 0.471090 0.440120 -0.569081
O27   O     O_R   0.471090 0.000000 0.440120 -0.569298
O28   O     O_R   0.000000 0.528910 0.440120 -0.569250
O29   O     O_R   0.528910 0.000000 0.559880 -0.569468
O30   O     O_R   0.000000 0.528910 0.559880 -0.570365
O31   O     O_R   0.471090 0.000000 0.559880 -0.569469
O32   O     O_R   0.000000 0.471090 0.559880 -0.568888
C9    C     C_R   0.999995 0.499981 0.920563 0.867502
C10   C     C_R   0.500003 0.999998 0.920561 0.868322
C11   C     C_R   0.000002 0.500010 0.079437 0.868767
C12   C     C_R   0.499990 0.000001 0.079439 0.871022
C13   C     C_R   0.499998 1.000000 0.420563 0.866702
C14   C     C_R   0.000010 0.499998 0.420561 0.869752
C15   C     C_R   0.500002 1.000000 0.579438 0.866710
C16   C     C_R   0.000013 0.500005 0.579439 0.870835
Cu1   Cu    Cu3+1 0.034230 0.500000 0.000000 1.105833
Cu2   Cu    Cu3+1 0.500000 0.965770 0.000000 1.110227
Cu3   Cu    Cu3+1 0.965770 0.500000 0.000000 1.109192
Cu4   Cu    Cu3+1 0.500000 0.034230 0.000000 1.106901
Cu5   Cu    Cu3+1 0.534230 0.000000 0.500000 1.107682
Cu6   Cu    Cu3+1 1.000000 0.465770 0.500000 1.107217
Cu7   Cu    Cu3+1 0.465770 0.000000 0.500000 1.107665
Cu8   Cu    Cu3+1 1.000000 0.534230 0.500000 1.103868
C17   C     C_R   0.018857 0.525566 0.728373 0.128810
C18   C     C_R   0.524111 0.979692 0.727919 0.114008
C19   C     C_R   0.981651 0.474562 0.727638 0.111874
C20   C     C_R   0.475905 0.020300 0.727915 0.113985
C21   C     C_R   0.021838 0.477127 0.271914 0.124201
C22   C     C_R   0.478160 0.977269 0.272080 0.112231
C23   C     C_R   0.978172 0.522861 0.271918 0.123957
C24   C     C_R   0.521817 0.022739 0.272094 0.112170
C25   C     C_R   0.521963 0.022739 0.228090 0.123804
C26   C     C_R   0.978319 0.522867 0.227915 0.112074
C27   C     C_R   0.478015 0.977268 0.228076 0.124084
C28   C     C_R   0.021692 0.477131 0.227910 0.111806
C29   C     C_R   0.475775 0.020303 0.771917 0.123147
C30   C     C_R   0.981438 0.474168 0.771636 0.126299
C31   C     C_R   0.524239 0.979687 0.771921 0.123182
C32   C     C_R   0.018492 0.525285 0.772372 0.106967
C33   C     C_R   0.000339 0.500177 0.706315 0.050460
C34   C     C_R   0.500008 0.999997 0.706329 0.042296
C35   C     C_R   0.000006 0.499993 0.293709 0.057884
C36   C     C_R   0.499989 0.000004 0.293673 0.042123
C37   C     C_R   0.499989 0.000004 0.206290 0.057806
C38   C     C_R   0.000007 0.500002 0.206326 0.042019
C39   C     C_R   0.500006 0.999994 0.793712 0.057410
C40   C     C_R   0.999875 0.499617 0.793693 0.049494
C41   C     C_1   0.000260 0.500141 0.661300 -0.006314
C42   C     C_1   0.500009 0.999998 0.661288 -0.004953
C43   C     C_1   0.000009 0.499992 0.338691 -0.009108
C44   C     C_1   0.499990 0.000003 0.338713 -0.005879
C45   C     C_1   0.499988 0.000004 0.161308 -0.008891
C46   C     C_1   0.000007 0.500007 0.161286 -0.006014
C47   C     C_1   0.500006 0.999994 0.838693 -0.009891
C48   C     C_1   0.999894 0.499697 0.838706 -0.008845
C49   C     C_1   0.999966 0.499851 0.876096 -0.085612
C50   C     C_1   0.500005 0.999995 0.876092 -0.091514
C51   C     C_1   0.000006 0.500010 0.123904 -0.079509
C52   C     C_1   0.499988 0.000004 0.123909 -0.090316
C53   C     C_1   0.499993 0.000001 0.376095 -0.080220
C54   C     C_1   0.000011 0.499994 0.376091 -0.092176
C55   C     C_1   0.500007 0.999999 0.623905 -0.080248
C56   C     C_1   0.000127 0.500040 0.623909 -0.085576
C57   C     C_R   0.980111 0.877649 0.029475 0.303341
C58   C     C_R   0.877532 0.019782 0.029262 0.312775
C59   C     C_R   0.019741 0.122407 0.029429 0.303815
C60   C     C_R   0.122377 0.980149 0.029399 0.303609
C61   C     C_R   0.980149 0.122371 0.970613 0.303503
C62   C     C_R   0.877665 0.980078 0.970503 0.303212
C63   C     C_R   0.019779 0.877530 0.970695 0.312849
C64   C     C_R   0.122411 0.019735 0.970590 0.303985
C65   C     C_R   0.480270 0.377516 0.529306 0.312508
C66   C     C_R   0.377519 0.519828 0.529158 0.312538
C67   C     C_R   0.519877 0.622477 0.529165 0.312711
C68   C     C_R   0.622400 0.480285 0.529463 0.303243
C69   C     C_R   0.479899 0.622314 0.470679 0.303614
C70   C     C_R   0.377702 0.479869 0.470652 0.303353
C71   C     C_R   0.519910 0.377664 0.470498 0.303749
C72   C     C_R   0.622374 0.519805 0.470587 0.303610
C73   C     C_R   0.979852 0.841499 0.029552 0.040559
C74   C     C_R   0.841353 0.019972 0.029067 0.045241
C75   C     C_R   0.019858 0.158558 0.029514 0.038859
C76   C     C_R   0.158529 0.980024 0.029538 0.038801
C77   C     C_R   0.980026 0.158523 0.970481 0.038801
C78   C     C_R   0.841518 0.979808 0.970411 0.040554
C79   C     C_R   0.019975 0.841349 0.970870 0.044759
C80   C     C_R   0.158563 0.019852 0.970515 0.038711
C81   C     C_R   0.480077 0.341336 0.529102 0.044630
C82   C     C_R   0.341341 0.520015 0.528920 0.045148
C83   C     C_R   0.520069 0.658658 0.528958 0.044683
C84   C     C_R   0.658549 0.480159 0.529546 0.038697
C85   C     C_R   0.479634 0.658464 0.470572 0.040771
C86   C     C_R   0.341554 0.479595 0.470519 0.040725
C87   C     C_R   0.520176 0.341515 0.470398 0.040641
C88   C     C_R   0.658524 0.519929 0.470463 0.038916
C89   C     C_R   0.999814 0.823446 0.000149 -0.019177
C90   C     C_R   0.823459 0.999784 0.999794 -0.018300
C91   C     C_R   0.999945 0.176585 0.999981 -0.008611
C92   C     C_R   0.176592 0.999943 0.000048 -0.009440
C93   C     C_R   0.500226 0.323447 0.499796 -0.019173
C94   C     C_R   0.323470 0.499708 0.499744 -0.018344
C95   C     C_R   0.499756 0.676540 0.499806 -0.019268
C96   C     C_R   0.676579 0.500037 0.499989 -0.007602
C97   C     C_R   0.999944 0.895698 0.000032 -0.285785
C98   C     C_R   0.895705 0.999932 0.999945 -0.285890
C99   C     C_R   0.999965 0.104285 0.000014 -0.285063
C100  C     C_R   0.104288 0.999964 0.999999 -0.285035
C101  C     C_R   0.500078 0.395699 0.499957 -0.285701
C102  C     C_R   0.395713 0.499882 0.499959 -0.286071
C103  C     C_R   0.499907 0.604292 0.499972 -0.286165
C104  C     C_R   0.604283 0.500029 0.500018 -0.284768
C105  C     C_R   0.976547 0.767680 0.975201 -0.173060
C106  C     C_R   0.767699 0.023319 0.975177 -0.173799
C107  C     C_R   0.023318 0.232309 0.975179 -0.170937
C108  C     C_R   0.232307 0.976580 0.975206 -0.169167
C109  C     C_R   0.976555 0.232277 0.024849 -0.171033
C110  C     C_R   0.767722 0.976546 0.024825 -0.174906
C111  C     C_R   0.023409 0.767702 0.024730 -0.172100
C112  C     C_R   0.232304 0.023299 0.024947 -0.169198
C113  C     C_R   0.476668 0.267706 0.475134 -0.172065
C114  C     C_R   0.267723 0.523137 0.474932 -0.173751
C115  C     C_R   0.523225 0.732277 0.475021 -0.172069
C116  C     C_R   0.732267 0.476695 0.475056 -0.172779
C117  C     C_R   0.476613 0.732315 0.524876 -0.172962
C118  C     C_R   0.267719 0.476582 0.524877 -0.174849
C119  C     C_R   0.523464 0.267682 0.524755 -0.172984
C120  C     C_R   0.732294 0.523367 0.524877 -0.172660
H1    H     H_    0.958329 0.781400 0.956045 0.160267
H2    H     H_    0.781418 0.041429 0.955877 0.160049
H3    H     H_    0.041459 0.218590 0.955918 0.162644
H4    H     H_    0.218581 0.958457 0.955920 0.162294
H5    H     H_    0.958423 0.218535 0.044095 0.162901
H6    H     H_    0.781460 0.958371 0.044021 0.161005
H7    H     H_    0.041550 0.781438 0.043981 0.159563
H8    H     H_    0.218574 0.041419 0.044226 0.162272
H9    H     H_    0.458554 0.281443 0.455854 0.159618
H10   H     H_    0.281454 0.541160 0.455525 0.160064
H11   H     H_    0.541268 0.718535 0.455652 0.159555
H12   H     H_    0.718526 0.458598 0.455751 0.163371
H13   H     H_    0.458490 0.718602 0.544165 0.160367
H14   H     H_    0.281445 0.458489 0.544197 0.161037
H15   H     H_    0.541656 0.281401 0.543954 0.160322
H16   H     H_    0.718573 0.541468 0.544191 0.163437
C121  C     C_R   0.976540 0.731911 0.975230 -0.180377
C122  C     C_R   0.731930 0.023431 0.975354 -0.176629
C123  C     C_R   0.023395 0.268078 0.975324 -0.178714
C124  C     C_R   0.268076 0.976542 0.975281 -0.182058
C125  C     C_R   0.976535 0.268045 0.024852 -0.179514
C126  C     C_R   0.731956 0.976559 0.024864 -0.177468
C127  C     C_R   0.023500 0.731931 0.024614 -0.180014
C128  C     C_R   0.268072 0.023355 0.024874 -0.181993
C129  C     C_R   0.476574 0.231936 0.475239 -0.180027
C130  C     C_R   0.231954 0.523264 0.475098 -0.176578
C131  C     C_R   0.523325 0.768048 0.475125 -0.180005
C132  C     C_R   0.768034 0.476637 0.475117 -0.175748
C133  C     C_R   0.476613 0.768084 0.524834 -0.180224
C134  C     C_R   0.231952 0.476609 0.524907 -0.177418
C135  C     C_R   0.523466 0.231913 0.524718 -0.180212
C136  C     C_R   0.768061 0.523407 0.524803 -0.175732
H17   H     H_    0.958330 0.718175 0.956074 0.153993
H18   H     H_    0.718192 0.041634 0.956199 0.156002
H19   H     H_    0.041593 0.281822 0.956171 0.156553
H20   H     H_    0.281806 0.958394 0.956040 0.154683
H21   H     H_    0.958400 0.281763 0.044120 0.157262
H22   H     H_    0.718238 0.958417 0.044123 0.157030
H23   H     H_    0.041712 0.718211 0.043777 0.153814
H24   H     H_    0.281799 0.041513 0.044112 0.154712
H25   H     H_    0.458384 0.218216 0.456038 0.153841
H26   H     H_    0.218226 0.541392 0.455828 0.156030
H27   H     H_    0.541446 0.781761 0.455835 0.153827
H28   H     H_    0.781755 0.458504 0.455848 0.159452
H29   H     H_    0.458504 0.781826 0.544114 0.154140
H30   H     H_    0.218224 0.458559 0.544280 0.157012
H31   H     H_    0.541645 0.218177 0.543909 0.154135
H32   H     H_    0.781802 0.541532 0.544071 0.159411
C137  C     C_R   0.000036 0.713964 0.999906 0.153554
C138  C     C_R   0.713992 0.000006 0.000137 0.142533
C139  C     C_R   0.999964 0.286011 0.000105 0.141762
C140  C     C_R   0.286031 0.999955 0.000075 0.152212
C141  C     C_R   0.500000 0.213968 0.499991 0.153407
C142  C     C_R   0.214002 0.499957 0.500029 0.142443
C143  C     C_R   0.499991 0.786024 0.499992 0.153411
C144  C     C_R   0.785990 0.500017 0.499959 0.130812
C145  C     C_R   0.999972 0.785644 0.999967 0.139945
C146  C     C_R   0.785661 0.999920 0.999975 0.138829
C147  C     C_R   0.999926 0.214349 0.999983 0.128724
C148  C     C_R   0.214359 0.999936 0.000074 0.129530
C149  C     C_R   0.500073 0.285646 0.499951 0.139853
C150  C     C_R   0.285672 0.499842 0.499886 0.138751
C151  C     C_R   0.499911 0.714343 0.499956 0.139864
C152  C     C_R   0.714339 0.500035 0.499971 0.127595
C153  C     C_R   0.978805 0.658235 0.028068 0.045847
C154  C     C_R   0.658127 0.021822 0.027899 0.039013
C155  C     C_R   0.021756 0.341874 0.027927 0.039086
C156  C     C_R   0.341792 0.978661 0.028080 0.045855
C157  C     C_R   0.978530 0.341704 0.972485 0.044141
C158  C     C_R   0.658300 0.978528 0.972538 0.044288
C159  C     C_R   0.021237 0.658200 0.971800 0.045321
C160  C     C_R   0.341757 0.021294 0.972031 0.045840
C161  C     C_R   0.478690 0.158225 0.528025 0.045227
C162  C     C_R   0.158156 0.521902 0.527701 0.038972
C163  C     C_R   0.521341 0.841773 0.527992 0.045222
C164  C     C_R   0.841792 0.477995 0.527246 0.037514
C165  C     C_R   0.478674 0.841770 0.471970 0.045880
C166  C     C_R   0.158289 0.478420 0.472557 0.044305
C167  C     C_R   0.521287 0.158221 0.471941 0.045888
C168  C     C_R   0.841802 0.522006 0.472679 0.037598
C169  C     C_R   0.978579 0.622057 0.027676 0.301917
C170  C     C_R   0.621975 0.021779 0.027525 0.294363
C171  C     C_R   0.021724 0.378028 0.027560 0.293506
C172  C     C_R   0.377969 0.978459 0.027652 0.302508
C173  C     C_R   0.978367 0.377883 0.972713 0.302460
C174  C     C_R   0.622122 0.978353 0.972759 0.302700
C175  C     C_R   0.021439 0.622022 0.972229 0.301718
C176  C     C_R   0.377934 0.021516 0.972423 0.302676
C177  C     C_R   0.478480 0.122047 0.527620 0.301969
C178  C     C_R   0.122003 0.521865 0.527357 0.294043
C179  C     C_R   0.521550 0.877951 0.527589 0.301986
C180  C     C_R   0.877945 0.478065 0.527069 0.293606
C181  C     C_R   0.478462 0.877948 0.472384 0.301972
C182  C     C_R   0.122111 0.478258 0.472802 0.302716
C183  C     C_R   0.521504 0.122043 0.472357 0.301951
C184  C     C_R   0.877955 0.521927 0.472876 0.294141
C185  C     C_R   0.000006 0.604019 0.999966 -0.321526
C186  C     C_R   0.604024 0.000028 0.000108 -0.320458
C187  C     C_R   0.000016 0.395979 0.000103 -0.320655
C188  C     C_R   0.395975 0.999993 0.000028 -0.321397
C189  C     C_R   0.499998 0.104023 0.499995 -0.321697
C190  C     C_R   0.104030 0.500025 0.500064 -0.320786
C191  C     C_R   0.500002 0.895974 0.499993 -0.321702
C192  C     C_R   0.895977 0.499997 0.499981 -0.319813
C193  C     C_R   0.000029 0.676134 0.999926 -0.031172
C194  C     C_R   0.676195 0.000118 0.000341 -0.022148
C195  C     C_R   0.000080 0.323808 0.000323 -0.021209
C196  C     C_R   0.323859 0.999972 0.000064 -0.030374
C197  C     C_R   0.499988 0.176139 0.499982 -0.031194
C198  C     C_R   0.176204 0.500096 0.500241 -0.022140
C199  C     C_R   0.500006 0.823854 0.499982 -0.031178
C200  C     C_R   0.823751 0.500004 0.499959 -0.011958
O33   O     O_R   0.950050 0.000070 0.965410 -0.544450
O34   O     O_R   0.000070 0.049950 0.965410 -0.544068
O35   O     O_R   0.049950 0.999930 0.965410 -0.544222
O36   O     O_R   0.999930 0.950050 0.965410 -0.541260
O37   O     O_R   0.950050 0.999930 0.034590 -0.541271
O38   O     O_R   0.000070 0.950050 0.034590 -0.544406
O39   O     O_R   0.049950 0.000070 0.034590 -0.544058
O40   O     O_R   0.999930 0.049950 0.034590 -0.544241
O41   O     O_R   0.450050 0.500070 0.465410 -0.544671
O42   O     O_R   0.500070 0.549950 0.465410 -0.544781
O43   O     O_R   0.549950 0.499930 0.465410 -0.543967
O44   O     O_R   0.499930 0.450050 0.465410 -0.544465
O45   O     O_R   0.450050 0.499930 0.534590 -0.541615
O46   O     O_R   0.500070 0.450050 0.534590 -0.541232
O47   O     O_R   0.549950 0.500070 0.534590 -0.544073
O48   O     O_R   0.499930 0.549950 0.534590 -0.541706
C201  C     C_R   0.933633 0.999990 0.999994 0.923135
C202  C     C_R   0.999992 0.066363 0.000004 0.922888
C203  C     C_R   0.066365 0.999993 0.000000 0.922841
C204  C     C_R   0.999993 0.933631 0.000000 0.923068
C205  C     C_R   0.433636 0.499980 0.499998 0.922244
C206  C     C_R   0.499985 0.566365 0.500002 0.922113
C207  C     C_R   0.566363 0.500007 0.500005 0.922915
C208  C     C_R   0.500011 0.433631 0.499997 0.923049
Cu9   Cu    Cu3+1 1.000000 0.000000 0.958960 1.217302
Cu10  Cu    Cu3+1 0.000000 0.000000 0.041040 1.217342
Cu11  Cu    Cu3+1 0.500000 0.500000 0.458960 1.214711
Cu12  Cu    Cu3+1 0.500000 0.500000 0.541040 1.221454
C209  C     C_3   0.037717 0.552034 0.797637 -0.747430
H33   H     H_    0.051614 0.571375 0.779076 0.233510
H34   H     H_    0.019347 0.566187 0.817620 0.250838
H35   H     H_    0.056954 0.539133 0.817665 0.245749
C210  C     C_3   0.550287 0.957989 0.795153 -0.760412
H36   H     H_    0.576630 0.966251 0.786749 0.238065
H37   H     H_    0.548447 0.959767 0.829314 0.258315
H38   H     H_    0.546694 0.930548 0.787069 0.235989
C211  C     C_3   0.961541 0.446595 0.794610 -0.761310
H39   H     H_    0.971655 0.420920 0.786138 0.237128
H40   H     H_    0.963098 0.448493 0.828787 0.259046
H41   H     H_    0.933943 0.448283 0.786402 0.236783
C212  C     C_3   0.449726 0.042000 0.795144 -0.760124
H42   H     H_    0.423382 0.033738 0.786727 0.238159
H43   H     H_    0.451565 0.040221 0.829305 0.258555
H44   H     H_    0.453319 0.069442 0.787069 0.235799
C213  C     C_3   0.044365 0.453078 0.202904 -0.750995
H45   H     H_    0.060620 0.435807 0.221650 0.234002
H46   H     H_    0.028096 0.436570 0.182895 0.252952
H47   H     H_    0.061801 0.468344 0.182907 0.242693
C214  C     C_3   0.454360 0.952980 0.204841 -0.761087
H48   H     H_    0.427309 0.958407 0.213312 0.239437
H49   H     H_    0.455946 0.954995 0.170679 0.256734
H50   H     H_    0.460830 0.926060 0.212846 0.234728
C215  C     C_3   0.955646 0.546925 0.202913 -0.751607
H51   H     H_    0.939391 0.564191 0.221662 0.234026
H52   H     H_    0.971914 0.563437 0.182921 0.253107
H53   H     H_    0.938211 0.531662 0.182900 0.242649
C216  C     C_3   0.545620 0.047024 0.204869 -0.760588
H54   H     H_    0.539151 0.073945 0.212873 0.234743
H55   H     H_    0.572671 0.041597 0.213354 0.239342
H56   H     H_    0.544039 0.045005 0.170706 0.256831
C217  C     C_3   0.544640 0.046656 0.297105 -0.751739
H57   H     H_    0.561002 0.063824 0.278363 0.234028
H58   H     H_    0.528475 0.063265 0.317103 0.253180
H59   H     H_    0.561979 0.031286 0.317111 0.242549
C218  C     C_3   0.954661 0.547284 0.295149 -0.761301
H60   H     H_    0.961298 0.574168 0.287159 0.234730
H61   H     H_    0.927578 0.542022 0.286654 0.239384
H62   H     H_    0.956225 0.545247 0.329311 0.256550
C219  C     C_3   0.455337 0.953352 0.297077 -0.751857
H63   H     H_    0.438973 0.936187 0.278324 0.234009
H64   H     H_    0.471502 0.936742 0.317075 0.253133
H65   H     H_    0.438000 0.968723 0.317081 0.242538
C220  C     C_3   0.045344 0.452695 0.295140 -0.761894
H66   H     H_    0.038706 0.425814 0.287128 0.234682
H67   H     H_    0.072428 0.457957 0.286664 0.239513
H68   H     H_    0.043775 0.454720 0.329302 0.256393
C221  C     C_3   0.450673 0.041656 0.702909 -0.755036
H69   H     H_    0.432568 0.056975 0.721656 0.234406
H70   H     H_    0.464985 0.059899 0.682921 0.254544
H71   H     H_    0.435069 0.024527 0.682889 0.240580
C222  C     C_3   0.962190 0.447985 0.702374 -0.756839
H72   H     H_    0.948128 0.428765 0.720935 0.234894
H73   H     H_    0.943040 0.461056 0.682381 0.255071
H74   H     H_    0.980430 0.433699 0.682360 0.239771
C223  C     C_3   0.549343 0.958337 0.702918 -0.755038
H75   H     H_    0.567447 0.943017 0.721667 0.234422
H76   H     H_    0.535032 0.940096 0.682917 0.254549
H77   H     H_    0.564949 0.975467 0.682910 0.240550
C224  C     C_3   0.039020 0.552945 0.705399 -0.763942
H78   H     H_    0.066531 0.551276 0.714031 0.240843
H79   H     H_    0.037837 0.550776 0.671222 0.253806
H80   H     H_    0.028862 0.578694 0.713453 0.233484
N1    N     N_R   0.958797 0.896044 0.058181 0.140436
O49   O     O_R   0.964559 0.894066 0.097822 -0.315990
O50   O     O_R   0.934030 0.915385 0.044656 -0.333768
N2    N     N_R   0.895910 0.040392 0.058647 0.132034
O51   O     O_R   0.895663 0.032273 0.097757 -0.312241
O52   O     O_R   0.914473 0.066076 0.046067 -0.334175
N3    N     N_R   0.041081 0.104081 0.058177 0.140062
O53   O     O_R   0.035218 0.105978 0.097799 -0.316624
O54   O     O_R   0.065915 0.084807 0.044694 -0.334986
N4    N     N_R   0.104012 0.958725 0.058014 0.139956
O55   O     O_R   0.105892 0.964441 0.097671 -0.316557
O56   O     O_R   0.084703 0.933971 0.044368 -0.336282
N5    N     N_R   0.958723 0.104004 0.941989 0.139980
O57   O     O_R   0.964440 0.105877 0.902334 -0.316624
O58   O     O_R   0.933969 0.084699 0.955625 -0.336232
N6    N     N_R   0.896068 0.958751 0.941816 0.140440
O59   O     O_R   0.894084 0.964483 0.902171 -0.316066
O60   O     O_R   0.915419 0.934000 0.955363 -0.333874
N7    N     N_R   0.040371 0.895917 0.941312 0.131997
O61   O     O_R   0.032225 0.895688 0.902208 -0.312395
O62   O     O_R   0.066066 0.914472 0.953892 -0.334199
N8    N     N_R   0.104086 0.041073 0.941840 0.140058
O63   O     O_R   0.105987 0.035207 0.902216 -0.316686
O64   O     O_R   0.084812 0.065909 0.955320 -0.334977
N9    N     N_R   0.459716 0.395885 0.558747 0.132242
O65   O     O_R   0.467906 0.395623 0.597838 -0.311430
O66   O     O_R   0.433996 0.414434 0.546241 -0.332506
N10   N     N_R   0.395875 0.540496 0.558506 0.132243
O67   O     O_R   0.395545 0.532488 0.597648 -0.311581
O68   O     O_R   0.414479 0.566133 0.545876 -0.332524
N11   N     N_R   0.540588 0.604106 0.558447 0.131963
O69   O     O_R   0.532628 0.604395 0.597603 -0.312214
O70   O     O_R   0.566196 0.585500 0.545735 -0.334213
N12   N     N_R   0.604072 0.458981 0.558243 0.140314
O71   O     O_R   0.605977 0.464889 0.597857 -0.315510
O72   O     O_R   0.584802 0.434123 0.544797 -0.333765
N13   N     N_R   0.458395 0.603885 0.442200 0.140079
O73   O     O_R   0.463840 0.605884 0.402498 -0.317035
O74   O     O_R   0.433792 0.584465 0.455995 -0.336014
N14   N     N_R   0.396142 0.458351 0.442209 0.140083
O75   O     O_R   0.394150 0.463765 0.402499 -0.316878
O76   O     O_R   0.415561 0.433762 0.456046 -0.336459
N15   N     N_R   0.541228 0.396074 0.441813 0.140208
O77   O     O_R   0.535484 0.394101 0.402168 -0.316713
O78   O     O_R   0.565986 0.415420 0.455364 -0.335172
N16   N     N_R   0.604016 0.541187 0.441914 0.140009
O79   O     O_R   0.605896 0.535407 0.402271 -0.316603
O80   O     O_R   0.584724 0.565975 0.455491 -0.335874
C225  C     C_3   0.957403 0.822913 0.060660 -0.710367
H81   H     H_    0.930609 0.832312 0.058140 0.251140
H82   H     H_    0.956611 0.794768 0.056229 0.217715
H83   H     H_    0.967015 0.827751 0.092496 0.259903
C226  C     C_3   0.821398 0.042207 0.059147 -0.714037
H84   H     H_    0.837840 0.058523 0.078981 0.271186
H85   H     H_    0.804249 0.059756 0.041702 0.220332
H86   H     H_    0.805624 0.025729 0.079726 0.229622
C227  C     C_3   0.042185 0.177165 0.060771 -0.711190
H87   H     H_    0.069002 0.167808 0.058377 0.251240
H88   H     H_    0.042979 0.205315 0.056417 0.216785
H89   H     H_    0.032477 0.172283 0.092549 0.260054
C228  C     C_3   0.177100 0.957672 0.060791 -0.710799
H90   H     H_    0.167745 0.930854 0.058343 0.251322
H91   H     H_    0.205253 0.956884 0.056481 0.217937
H92   H     H_    0.172185 0.967355 0.092576 0.259927
C229  C     C_3   0.957676 0.177096 0.939226 -0.710792
H93   H     H_    0.930858 0.167749 0.941671 0.251293
H94   H     H_    0.956901 0.205251 0.943534 0.218043
H95   H     H_    0.967353 0.172170 0.907442 0.259869
C230  C     C_3   0.822940 0.957328 0.939314 -0.710196
H96   H     H_    0.832351 0.930538 0.941854 0.251101
H97   H     H_    0.794798 0.956525 0.943743 0.217854
H98   H     H_    0.827770 0.966921 0.907473 0.259840
C231  C     C_3   0.042190 0.821402 0.940762 -0.712884
H99   H     H_    0.058475 0.837850 0.920909 0.270922
H100  H     H_    0.059765 0.804265 0.958187 0.220545
H101  H     H_    0.025700 0.805613 0.920203 0.229630
C232  C     C_3   0.177168 0.042181 0.939271 -0.711246
H102  H     H_    0.167808 0.068998 0.941667 0.251185
H103  H     H_    0.205316 0.042978 0.943639 0.217995
H104  H     H_    0.172289 0.032470 0.907489 0.259947
C233  C     C_3   0.457877 0.321373 0.559210 -0.712341
H105  H     H_    0.441586 0.337811 0.579069 0.270993
H106  H     H_    0.440308 0.304225 0.541784 0.220530
H107  H     H_    0.474378 0.305595 0.579762 0.229711
C234  C     C_3   0.321363 0.542369 0.558849 -0.713696
H108  H     H_    0.337790 0.558777 0.578589 0.271228
H109  H     H_    0.304214 0.559836 0.541285 0.220309
H110  H     H_    0.305587 0.525971 0.579520 0.229675
C235  C     C_3   0.542435 0.678627 0.558892 -0.712547
H111  H     H_    0.558829 0.662192 0.578633 0.270939
H112  H     H_    0.559913 0.695764 0.541331 0.220496
H113  H     H_    0.526048 0.694415 0.579563 0.229742
C236  C     C_3   0.677151 0.457851 0.560820 -0.710518
H114  H     H_    0.667774 0.431036 0.558463 0.251266
H115  H     H_    0.705297 0.457033 0.556448 0.216899
H116  H     H_    0.672289 0.467595 0.592589 0.260100
C237  C     C_3   0.457009 0.677028 0.439625 -0.710299
H117  H     H_    0.430231 0.667621 0.442358 0.251211
H118  H     H_    0.456234 0.705174 0.444044 0.217666
H119  H     H_    0.466446 0.672180 0.407719 0.259829
C238  C     C_3   0.323001 0.456963 0.439563 -0.710004
H120  H     H_    0.332411 0.430186 0.442305 0.251182
H121  H     H_    0.294855 0.456181 0.443967 0.217803
H122  H     H_    0.327853 0.466402 0.407660 0.259790
C239  C     C_3   0.542626 0.322943 0.439274 -0.710512
H123  H     H_    0.569417 0.332356 0.441789 0.251095
H124  H     H_    0.543432 0.294799 0.443696 0.217714
H125  H     H_    0.533004 0.327780 0.407444 0.259885
C240  C     C_3   0.677101 0.542251 0.439189 -0.710581
H126  H     H_    0.667739 0.569068 0.441584 0.251369
H127  H     H_    0.705252 0.543055 0.443525 0.216847
H128  H     H_    0.672198 0.532530 0.407416 0.259986
C241  C     C_3   0.957286 0.678167 0.058888 -0.723806
H129  H     H_    0.943373 0.661688 0.081189 0.270220
H130  H     H_    0.974028 0.695328 0.077446 0.219631
H131  H     H_    0.938112 0.693935 0.042050 0.230156
C242  C     C_3   0.676702 0.044559 0.058718 -0.716410
H132  H     H_    0.672053 0.071887 0.050996 0.258438
H133  H     H_    0.667147 0.039307 0.090510 0.248553
H134  H     H_    0.704820 0.040655 0.059313 0.218721
C243  C     C_3   0.044451 0.323297 0.058781 -0.717037
H135  H     H_    0.071788 0.327947 0.051113 0.258659
H136  H     H_    0.039160 0.332851 0.090568 0.248086
H137  H     H_    0.040545 0.295177 0.059357 0.217673
C244  C     C_3   0.321898 0.957022 0.058809 -0.722667
H138  H     H_    0.338401 0.943040 0.081026 0.270296
H139  H     H_    0.304744 0.973690 0.077466 0.219775
H140  H     H_    0.306126 0.937896 0.041889 0.229982
C245  C     C_3   0.956622 0.321764 0.942041 -0.723769
H141  H     H_    0.942491 0.338223 0.919916 0.270282
H142  H     H_    0.973117 0.304543 0.923250 0.219783
H143  H     H_    0.937597 0.306064 0.959209 0.230157
C246  C     C_3   0.678241 0.956592 0.942133 -0.723577
H144  H     H_    0.661783 0.942440 0.920021 0.270350
H145  H     H_    0.695464 0.973071 0.923327 0.219803
H146  H     H_    0.693936 0.937582 0.959335 0.230086
C247  C     C_3   0.042764 0.678095 0.940956 -0.722807
H147  H     H_    0.056668 0.661590 0.918672 0.269866
H148  H     H_    0.026028 0.695245 0.922381 0.219747
H149  H     H_    0.061946 0.693872 0.957775 0.230346
C248  C     C_3   0.321824 0.042920 0.941318 -0.723211
H150  H     H_    0.338301 0.056913 0.919087 0.270222
H151  H     H_    0.304665 0.026240 0.922675 0.219706
H152  H     H_    0.306055 0.062034 0.958251 0.230062
C249  C     C_3   0.457076 0.178143 0.558762 -0.721777
H153  H     H_    0.443110 0.161654 0.581005 0.269987
H154  H     H_    0.473760 0.195310 0.577390 0.219989
H155  H     H_    0.437941 0.193904 0.541850 0.230114
C250  C     C_3   0.176753 0.544745 0.558386 -0.715947
H156  H     H_    0.172096 0.572046 0.550535 0.258379
H157  H     H_    0.167223 0.539599 0.590216 0.248872
H158  H     H_    0.204872 0.540847 0.558969 0.218688
C251  C     C_3   0.542998 0.821859 0.558691 -0.721808
H159  H     H_    0.557013 0.838350 0.580895 0.270003
H160  H     H_    0.526339 0.804708 0.577362 0.219980
H161  H     H_    0.562096 0.806081 0.541743 0.230112
C252  C     C_3   0.823194 0.454912 0.557679 -0.716697
H162  H     H_    0.827886 0.427673 0.549542 0.258588
H163  H     H_    0.832707 0.459837 0.589572 0.248697
H164  H     H_    0.795070 0.458756 0.558319 0.217902
C253  C     C_3   0.457019 0.821854 0.441263 -0.723893
H165  H     H_    0.443012 0.838343 0.419056 0.270226
H166  H     H_    0.473679 0.804701 0.422594 0.219665
H167  H     H_    0.437916 0.806077 0.458202 0.230117
C254  C     C_3   0.178210 0.456371 0.442253 -0.723272
H168  H     H_    0.161738 0.442142 0.420228 0.270440
H169  H     H_    0.195427 0.472779 0.423348 0.219915
H170  H     H_    0.193910 0.437419 0.459543 0.229936
C255  C     C_3   0.542894 0.178133 0.441195 -0.723864
H171  H     H_    0.556858 0.161639 0.418952 0.270221
H172  H     H_    0.526208 0.195292 0.422567 0.219668
H173  H     H_    0.562032 0.193902 0.458098 0.230109
C256  C     C_3   0.823215 0.545089 0.442231 -0.716881
H174  H     H_    0.827915 0.572328 0.450367 0.258541
H175  H     H_    0.832731 0.540159 0.410345 0.248734
H176  H     H_    0.795091 0.541250 0.441575 0.217865
N17   N     N_R   0.957293 0.603493 0.056172 0.130445
O81   O     O_R   0.924108 0.604235 0.052177 -0.330951
O82   O     O_R   0.971095 0.584102 0.084425 -0.391148
N18   N     N_R   0.603424 0.042575 0.056652 0.138236
O83   O     O_R   0.605887 0.075821 0.055398 -0.334921
O84   O     O_R   0.583375 0.028295 0.083867 -0.390125
N19   N     N_R   0.042487 0.396581 0.056730 0.138273
O85   O     O_R   0.075732 0.394112 0.055539 -0.334589
O86   O     O_R   0.028179 0.416637 0.083920 -0.391896
N20   N     N_R   0.396563 0.957090 0.056032 0.130485
O87   O     O_R   0.395845 0.923917 0.051871 -0.331268
O88   O     O_R   0.415951 0.970813 0.084350 -0.389360
N21   N     N_R   0.956850 0.396392 0.944414 0.130714
O89   O     O_R   0.923709 0.395813 0.948936 -0.330618
O90   O     O_R   0.970430 0.415654 0.915881 -0.392468
N22   N     N_R   0.603616 0.956793 0.944496 0.130598
O91   O     O_R   0.604208 0.923656 0.949076 -0.330594
O92   O     O_R   0.584352 0.970332 0.915931 -0.390926
N23   N     N_R   0.042700 0.603422 0.943737 0.130517
O93   O     O_R   0.075887 0.604138 0.947718 -0.331061
O94   O     O_R   0.028870 0.584032 0.915496 -0.391421
N24   N     N_R   0.396493 0.042888 0.944018 0.130649
O95   O     O_R   0.395766 0.076062 0.948167 -0.331102
O96   O     O_R   0.415866 0.029167 0.915692 -0.390986
N25   N     N_R   0.457119 0.103471 0.556022 0.130512
O97   O     O_R   0.423945 0.104203 0.551888 -0.331357
O98   O     O_R   0.470847 0.084082 0.584329 -0.389736
N26   N     N_R   0.103476 0.542768 0.556396 0.138348
O99   O     O_R   0.105936 0.576009 0.554956 -0.335124
O100  O     O_R   0.083444 0.528590 0.583706 -0.387471
N27   N     N_R   0.542942 0.896530 0.555967 0.130540
O101  O     O_R   0.576110 0.895814 0.551777 -0.331336
O102  O     O_R   0.529245 0.915911 0.584303 -0.389651
N28   N     N_R   0.896415 0.457022 0.556016 0.138272
O103  O     O_R   0.894047 0.423785 0.554238 -0.334363
O104  O     O_R   0.916370 0.471072 0.583517 -0.389394
N29   N     N_R   0.457077 0.896524 0.444002 0.130572
O105  O     O_R   0.423908 0.895808 0.448181 -0.331162
O106  O     O_R   0.470783 0.915898 0.415667 -0.390628
N30   N     N_R   0.103589 0.456612 0.444650 0.130568
O107  O     O_R   0.104158 0.423491 0.449401 -0.331309
O108  O     O_R   0.084337 0.470064 0.416011 -0.388589
N31   N     N_R   0.542861 0.103463 0.443952 0.130551
O109  O     O_R   0.576035 0.104199 0.448077 -0.331142
O110  O     O_R   0.529127 0.084073 0.415642 -0.390730
N32   N     N_R   0.896435 0.542957 0.443929 0.138274
O111  O     O_R   0.894081 0.576195 0.445692 -0.334827
O112  O     O_R   0.916378 0.528892 0.416435 -0.389562

loop_
_geom_bond_atom_site_label_1
_geom_bond_atom_site_label_2
_geom_bond_distance
_ccdc_geom_bond_type
C223  H75   1.105212 S    
O25   C13   1.292109 A    
C228  H90   1.110496 S    
C181  N29   1.434934 S    
N21   O90   1.301022 A    
C162  C178  1.410103 A    
C39   C47   1.451232 S    
C218  H60   1.110320 S    
C123  H19   1.083102 S    
C239  H123  1.110488 S    
C240  H128  1.109499 S    
C20   C34   1.412797 A    
C156  C244  1.515810 S    
O39   Cu10  1.959309 S    
C121  H17   1.083106 S    
C166  C182  1.411116 A    
C155  C243  1.516383 S    
O18   Cu2   1.943081 S    
C3    C187  1.475663 S    
C217  H59   1.110525 S    
C60   N4    1.436616 S    
C163  C199  1.413180 A    
C249  H153  1.106999 S    
C164  C200  1.416679 A    
C238  H122  1.109490 S    
C57   N1    1.436583 S    
N26   O99   1.300802 A    
C114  H10   1.083104 S    
C177  N25   1.434942 S    
C236  H114  1.110497 S    
C57   C97   1.413012 A    
C166  C198  1.414308 A    
C176  N24   1.434905 S    
C11   C51   1.434671 S    
C175  N23   1.434934 S    
C156  C196  1.413184 A    
C134  H30   1.083106 S    
N30   O107  1.301024 A    
Cu1   Cu3   2.670143 S    
Cu2   Cu4   2.670009 S    
O3    C3    1.293753 A    
C155  C171  1.410065 A    
O48   C206  1.286607 A    
C19   C33   1.415190 A    
C124  H20   1.083106 S    
C85   C95   1.414966 A    
N25   O98   1.301046 A    
C225  H82   1.107349 S    
C40   C48   1.452283 S    
C170  C186  1.411332 A    
O5    Cu1   1.957946 S    
O33   C201  1.286576 A    
C68   C84   1.409939 A    
C33   C41   1.452358 S    
N2    O51   1.301015 A    
C175  C185  1.411709 A    
N22   O92   1.301034 A    
C66   C102  1.412913 A    
C131  C143  1.401307 A    
C67   N11   1.434703 S    
C224  H80   1.110426 S    
C4    C188  1.475820 S    
C25   C37   1.419510 A    
O47   Cu12  1.959309 S    
C167  C197  1.413207 A    
N10   O68   1.300941 A    
O17   C9    1.292201 A    
C251  H160  1.110240 S    
C232  H104  1.109498 S    
C169  N17   1.434943 S    
C217  H57   1.105170 S    
C88   C240  1.517040 S    
O45   C205  1.286556 A    
C64   C100  1.412374 A    
C256  H176  1.107303 S    
C114  C150  1.401329 A    
C235  H113  1.110197 S    
N8    O64   1.301009 A    
C230  H96   1.110485 S    
N28   O103  1.300804 A    
C173  N21   1.434908 S    
C249  H155  1.110207 S    
C106  H2    1.083103 S    
C156  C172  1.411069 A    
C7    C191  1.475796 S    
C243  H136  1.110491 S    
C230  H98   1.109491 S    
N24   O95   1.301010 A    
O48   Cu12  1.959200 S    
O46   C208  1.286687 A    
C211  H39   1.110452 S    
C220  H68   1.106720 S    
C254  H169  1.110251 S    
C120  C152  1.401361 A    
C153  C241  1.515813 S    
O26   Cu6   1.943081 S    
C239  H124  1.107356 S    
C255  H172  1.110244 S    
C59   N3    1.436604 S    
N9    O65   1.301015 A    
C236  H116  1.109499 S    
C67   C103  1.412910 A    
N7    O61   1.301011 A    
O27   C13   1.292123 A    
O8    Cu2   1.958066 S    
C68   C104  1.412379 A    
C218  H62   1.106721 S    
O31   C15   1.292117 A    
C209  H35   1.110680 S    
O32   C16   1.292203 A    
C16   C56   1.434758 S    
C135  H31   1.083106 S    
C159  C175  1.411060 A    
C95   C151  1.474345 S    
O44   Cu11  1.959204 S    
C161  C249  1.515802 S    
C73   C225  1.516521 S    
N18   O83   1.300802 A    
C63   C97   1.413011 A    
C256  H174  1.109495 S    
C163  C251  1.515802 S    
C64   N8    1.436603 S    
N1    O49   1.300790 A    
C100  C203  1.479139 S    
C155  C195  1.415594 A    
O38   Cu10  1.959162 S    
C105  H1    1.083105 S    
C6    C190  1.475930 S    
C111  H7    1.083107 S    
O11   C7    1.293816 A    
C132  H28   1.083104 S    
C44   C53   1.206089 T    
C171  N19   1.436901 S    
C233  H105  1.106980 S    
O16   Cu6   1.958066 S    
C58   C74   1.411096 A    
C106  C146  1.401327 A    
C247  H148  1.110240 S    
C107  C123  1.395055 A    
C48   C49   1.206348 T    
C140  C196  1.475410 S    
C241  H130  1.110239 S    
C214  H48   1.110318 S    
C115  C131  1.395096 A    
C160  C176  1.411078 A    
C236  H115  1.107280 S    
O35   Cu9   1.959244 S    
C179  C191  1.411776 A    
N6    O59   1.300791 A    
C106  C122  1.395091 A    
C116  C132  1.395024 A    
C9    C49   1.434683 S    
C227  H87   1.110497 S    
C97   C204  1.479401 S    
C115  C151  1.401290 A    
C27   C37   1.419512 A    
C154  C242  1.516380 S    
C13   C53   1.434684 S    
C254  H170  1.110179 S    
C31   C39   1.419513 A    
N13   O73   1.300792 A    
C61   C99   1.412322 A    
O21   Cu1   1.943091 S    
N25   O97   1.301014 A    
C114  C130  1.395112 A    
C130  H26   1.083099 S    
N17   O81   1.301011 A    
N32   O112  1.301122 A    
C98   C201  1.479309 S    
C168  C256  1.516925 S    
C118  C134  1.394999 A    
C164  C252  1.516927 S    
C19   C222  1.521325 S    
C154  C170  1.410088 A    
O37   C201  1.286720 A    
C82   C234  1.516511 S    
C129  H25   1.083104 S    
C110  H6    1.083108 S    
C126  C138  1.401296 A    
C31   C210  1.519895 S    
C122  C138  1.401334 A    
C213  H46   1.110663 S    
C109  C147  1.401313 A    
C17   C33   1.417124 A    
C215  H52   1.110656 S    
N21   O89   1.301015 A    
N4    O55   1.300796 A    
C82   C94   1.413753 A    
O2    Cu2   1.958038 S    
O41   C205  1.286631 A    
C183  C189  1.411733 A    
O43   C207  1.286623 A    
C128  H24   1.083107 S    
C96   C152  1.472766 S    
C246  H145  1.110252 S    
C111  C145  1.401283 A    
O28   C14   1.292103 A    
O26   C14   1.292090 A    
O29   C15   1.292131 A    
C30   C211  1.519337 S    
O30   C16   1.291993 A    
C47   C50   1.206647 T    
C157  C173  1.411056 A    
C181  C191  1.411752 A    
C79   C231  1.516499 S    
C37   C45   1.451283 S    
C158  C246  1.516328 S    
C27   C214  1.519900 S    
C247  H147  1.107005 S    
C216  H55   1.110320 S    
C59   C99   1.412339 A    
C164  C180  1.410118 A    
C153  C193  1.413243 A    
C226  H85   1.110240 S    
C45   C52   1.206657 T    
O19   Cu3   1.943094 S    
O42   Cu11  1.959158 S    
C242  H132  1.109486 S    
C217  H58   1.110612 S    
O17   Cu1   1.943028 S    
C219  H64   1.110610 S    
C110  C146  1.401300 A    
O31   Cu7   1.943025 S    
C248  H151  1.110239 S    
C72   C88   1.409969 A    
C118  C150  1.401301 A    
C108  H4    1.083107 S    
C78   C230  1.516520 S    
C29   C212  1.519897 S    
C109  H5    1.083110 S    
N14   O75   1.300790 A    
O34   Cu9   1.959158 S    
C101  C208  1.479387 S    
C165  C253  1.515814 S    
C234  H109  1.110239 S    
C130  C142  1.401342 A    
C116  H12   1.083108 S    
C83   C95   1.413749 A    
C10   C50   1.434735 S    
O15   Cu7   1.957941 S    
C233  H107  1.110194 S    
C17   C224  1.519297 S    
C243  H135  1.109486 S    
O43   Cu11  1.959244 S    
C244  H139  1.110242 S    
C93   C149  1.474288 S    
C76   C92   1.416121 A    
C214  H50   1.110282 S    
C66   C82   1.411094 A    
C139  C195  1.474134 S    
C254  H168  1.106964 S    
C184  N32   1.436920 S    
O34   C202  1.286618 A    
C86   C94   1.414932 A    
N16   O79   1.300797 A    
C23   C218  1.519899 S    
C70   C86   1.409919 A    
C221  H71   1.110704 S    
O32   Cu6   1.943036 S    
O45   Cu12  1.959248 S    
N12   O72   1.301003 A    
C29   C39   1.419517 A    
C26   C215  1.520907 S    
C218  H61   1.110359 S    
C1    C185  1.475605 S    
C25   C216  1.519903 S    
O18   C10   1.292090 A    
C158  C194  1.414330 A    
C229  H95   1.109498 S    
C69   C85   1.409931 A    
O22   Cu4   1.943078 S    
C42   C55   1.206115 T    
O23   Cu3   1.943025 S    
C12   C52   1.434761 S    
C158  C174  1.411106 A    
C111  C127  1.395077 A    
C119  C149  1.401277 A    
C240  H127  1.107279 S    
C166  C254  1.516333 S    
O38   C204  1.286612 A    
O12   C8    1.293749 A    
O1    C1    1.293733 A    
C116  C152  1.401360 A    
O6    Cu4   1.958062 S    
C20   C221  1.520881 S    
O14   C6    1.293785 A    
C253  H166  1.110239 S    
C32   C40   1.415194 A    
C107  H3    1.083107 S    
C81   C233  1.516507 S    
C23   C35   1.419514 A    
C20   C29   1.419688 A    
O47   C207  1.286504 A    
C238  H121  1.107358 S    
N26   O100  1.301112 A    
N15   O78   1.301003 A    
C179  N27   1.434935 S    
O40   Cu10  1.959200 S    
C77   C91   1.416081 A    
C22   C219  1.520904 S    
O33   Cu9   1.959313 S    
N5    O58   1.301050 A    
C180  C192  1.410815 A    
O37   Cu10  1.959248 S    
O30   Cu8   1.943078 S    
C182  C190  1.411305 A    
N30   O108  1.301049 A    
C234  H108  1.106983 S    
C247  H149  1.110204 S    
C117  C151  1.401288 A    
C255  H171  1.107004 S    
C81   C93   1.413695 A    
C231  H99   1.106969 S    
C225  H81   1.110486 S    
C74   C90   1.413719 A    
N19   O85   1.300797 A    
C60   C76   1.410068 A    
C67   C83   1.411137 A    
C172  N20   1.434920 S    
C36   C44   1.453158 S    
N2    O52   1.300966 A    
C222  H72   1.105207 S    
C157  C195  1.414295 A    
C161  C177  1.411055 A    
C110  C126  1.394999 A    
C18   C223  1.520879 S    
O10   C6    1.293798 A    
C137  C193  1.475379 S    
C224  H79   1.106879 S    
C18   C34   1.412794 A    
C221  H69   1.105212 S    
C165  C181  1.411071 A    
C243  H137  1.107386 S    
C46   C51   1.206089 T    
C88   C96   1.416067 A    
C59   C75   1.409952 A    
C251  H159  1.106998 S    
C18   C31   1.419689 A    
C232  H103  1.107265 S    
O2    C2    1.293770 A    
O44   C208  1.286649 A    
C153  C169  1.411055 A    
C14   C54   1.434768 S    
C131  H27   1.083099 S    
C242  H134  1.107382 S    
Cu9   Cu10  2.648203 S    
C77   C229  1.517018 S    
C235  H112  1.110238 S    
C89   C145  1.474323 S    
C133  C143  1.401285 A    
C222  H73   1.110778 S    
C176  C188  1.411745 A    
C69   N13   1.436619 S    
C133  H29   1.083105 S    
C230  H97   1.107357 S    
C172  C188  1.411771 A    
N24   O96   1.301029 A    
O36   Cu9   1.959204 S    
C65   N9    1.434689 S    
C220  H67   1.110355 S    
C231  H100  1.110238 S    
C23   C26   1.419716 A    
C125  H21   1.083105 S    
N27   O101  1.301013 A    
C223  H76   1.110791 S    
C245  H141  1.106966 S    
O21   C11   1.292134 A    
C109  C125  1.394998 A    
C228  H91   1.107270 S    
O22   C12   1.292107 A    
C34   C42   1.453187 S    
C167  C255  1.515814 S    
C85   C237  1.516509 S    
C112  H8    1.083108 S    
C210  H37   1.106648 S    
C76   C228  1.517014 S    
O13   Cu5   1.957946 S    
C209  H34   1.110757 S    
C28   C38   1.412794 A    
C26   C38   1.412796 A    
C250  H157  1.110485 S    
C84   C96   1.416058 A    
C30   C40   1.417116 A    
C119  C135  1.395021 A    
C120  C136  1.395013 A    
C124  C140  1.401338 A    
N31   O110  1.301043 A    
C41   C56   1.206386 T    
O3    Cu3   1.957969 S    
O42   C206  1.286599 A    
C118  H14   1.083111 S    
C229  H93   1.110494 S    
C43   C54   1.206664 T    
N28   O104  1.301124 A    
O40   C202  1.286498 A    
C183  N31   1.434939 S    
C58   C98   1.412976 A    
N18   O84   1.301102 A    
C162  C250  1.516386 S    
Cu11  Cu12  2.648203 S    
C113  C149  1.401279 A    
C241  H129  1.106999 S    
O28   Cu8   1.943039 S    
C24   C217  1.520900 S    
N3    O54   1.301010 A    
C234  H110  1.110189 S    
C170  N18   1.436887 S    
C68   N12   1.436608 S    
C69   C103  1.412891 A    
C184  C192  1.410814 A    
C171  C187  1.411279 A    
C108  C148  1.401316 A    
O23   C11   1.292099 A    
C21   C220  1.519893 S    
C28   C213  1.520913 S    
C225  H83   1.109491 S    
C122  H18   1.083102 S    
C159  C193  1.413197 A    
C256  H175  1.110498 S    
C222  H74   1.110685 S    
O11   Cu7   1.957969 S    
N22   O91   1.301021 A    
N6    O60   1.300996 A    
C138  C194  1.474227 S    
C209  H33   1.105206 S    
C87   C93   1.414904 A    
N10   O67   1.301013 A    
C83   C235  1.516486 S    
N3    O53   1.300793 A    
C251  H161  1.110209 S    
N11   O69   1.301012 A    
O5    C3    1.293766 A    
C223  H77   1.110702 S    
C75   C227  1.517053 S    
C63   N7    1.434687 S    
C237  H118  1.107350 S    
C61   C77   1.410005 A    
C24   C25   1.419729 A    
C250  H158  1.107382 S    
C178  N26   1.436889 S    
N8    O63   1.300795 A    
O7    Cu3   1.957941 S    
O35   C203  1.286516 A    
C135  C141  1.401274 A    
N20   O88   1.301033 A    
C35   C43   1.451280 S    
C212  H42   1.110466 S    
C159  C247  1.515791 S    
C70   N14   1.436619 S    
C66   N10   1.434718 S    
C17   C32   1.419676 A    
C215  H51   1.105183 S    
C173  C187  1.411214 A    
N4    O56   1.301053 A    
C2    C186  1.475788 S    
C212  H43   1.106646 S    
C19   C30   1.419656 A    
C160  C196  1.413199 A    
C174  N22   1.434921 S    
C105  C145  1.401289 A    
N17   O82   1.301044 A    
C210  H36   1.110468 S    
C245  H143  1.110180 S    
C113  H9    1.083104 S    
N9    O66   1.300956 A    
C87   C239  1.516522 S    
C74   C226  1.516513 S    
C99   C202  1.478971 S    
C117  H13   1.083107 S    
C64   C80   1.410027 A    
O14   Cu8   1.958062 S    
C213  H47   1.110576 S    
N29   O106  1.301043 A    
O20   Cu4   1.943039 S    
C216  H54   1.110277 S    
O16   C8    1.293750 A    
C126  H22   1.083106 S    
C163  C179  1.411076 A    
O41   Cu11  1.959313 S    
C226  H84   1.106976 S    
N23   O94   1.301042 A    
C75   C91   1.416093 A    
C219  H63   1.105167 S    
C21   C35   1.419519 A    
C102  C205  1.479120 S    
O13   C7    1.293769 A    
C248  H150  1.107000 S    
O8    C4    1.293742 A    
C73   C89   1.414922 A    
C22   C27   1.419727 A    
O4    Cu4   1.958042 S    
C78   C90   1.414889 A    
C91   C147  1.472820 S    
N19   O86   1.301114 A    
N14   O76   1.301040 A    
C246  H144  1.106966 S    
C241  H131  1.110204 S    
N1    O50   1.300998 A    
C65   C101  1.413030 A    
C104  C207  1.478983 S    
C157  C245  1.516329 S    
C123  C139  1.401352 A    
C90   C146  1.474251 S    
C250  H156  1.109485 S    
C62   C98   1.413017 A    
C168  C184  1.410109 A    
C121  C137  1.401283 A    
C70   C102  1.412897 A    
C162  C198  1.415568 A    
C60   C100  1.412331 A    
C79   C89   1.413703 A    
C178  C190  1.411384 A    
C129  C141  1.401299 A    
C214  H49   1.106730 S    
C86   C238  1.516499 S    
C94   C150  1.474273 S    
C92   C148  1.473008 S    
N15   O77   1.300791 A    
C180  N28   1.436930 S    
C112  C128  1.395091 A    
C252  H162  1.109496 S    
N16   O80   1.301045 A    
C237  H119  1.109488 S    
C227  H89   1.109495 S    
C84   C236  1.517046 S    
C38   C46   1.453151 S    
C221  H70   1.110789 S    
C119  H15   1.083108 S    
C120  H16   1.083109 S    
O46   Cu12  1.959162 S    
C213  H45   1.105181 S    
N13   O74   1.301020 A    
C142  C198  1.474252 S    
C128  C140  1.401340 A    
Cu5   Cu7   2.670143 S    
O25   Cu5   1.943028 S    
O6    C2    1.293736 A    
C161  C197  1.413173 A    
Cu6   Cu8   2.670009 S    
N27   O102  1.301044 A    
N32   O111  1.300805 A    
C229  H94   1.107272 S    
O27   Cu7   1.943094 S    
C182  N30   1.434930 S    
C107  C147  1.401337 A    
C249  H154  1.110245 S    
C71   C101  1.413017 A    
C212  H44   1.110416 S    
C160  C248  1.515814 S    
O7    C1    1.293754 A    
C240  H126  1.110494 S    
C169  C185  1.411675 A    
C127  H23   1.083102 S    
C71   N15   1.436584 S    
C215  H53   1.110575 S    
N7    O62   1.300964 A    
C237  H117  1.110486 S    
C174  C186  1.411231 A    
O19   C9    1.292038 A    
N23   O93   1.301013 A    
C210  H38   1.110415 S    
C80   C232  1.517033 S    
C8    C192  1.475745 S    
C141  C197  1.475347 S    
C238  H120  1.110484 S    
C24   C36   1.412804 A    
C65   C81   1.411116 A    
C165  C199  1.413215 A    
C72   C104  1.412344 A    
C134  C142  1.401295 A    
O24   Cu2   1.943036 S    
N5    O57   1.300796 A    
O12   Cu8   1.958042 S    
C154  C194  1.415571 A    
C5    C189  1.475698 S    
C136  H32   1.083105 S    
O39   C203  1.286685 A    
C132  C144  1.401373 A    
C71   C87   1.409884 A    
C216  H56   1.106735 S    
C253  H167  1.110206 S    
C57   C73   1.409903 A    
O9    C5    1.293795 A    
C226  H86   1.110190 S    
C244  H138  1.106999 S    
C211  H41   1.110390 S    
C248  H152  1.110205 S    
C22   C36   1.412796 A    
C80   C92   1.416110 A    
C63   C79   1.411130 A    
C62   C78   1.409880 A    
C108  C124  1.395078 A    
C103  C206  1.479169 S    
N20   O87   1.301017 A    
O4    C4    1.293776 A    
C127  C137  1.401305 A    
C252  H164  1.107305 S    
C233  H106  1.110241 S    
C224  H78   1.110429 S    
C125  C139  1.401339 A    
C246  H146  1.110178 S    
C177  C189  1.411761 A    
C168  C200  1.416668 A    
C245  H142  1.110252 S    
O29   Cu5   1.943091 S    
N31   O109  1.301011 A    
C252  H163  1.110496 S    
C72   N16   1.436617 S    
C32   C209  1.521407 S    
C167  C183  1.411044 A    
N11   O70   1.300961 A    
C21   C28   1.419721 A    
C232  H102  1.110496 S    
C255  H173  1.110202 S    
C211  H40   1.106793 S    
C113  C129  1.395073 A    
C62   N6    1.436586 S    
C112  C148  1.401315 A    
O20   C10   1.292090 A    
C228  H92   1.109498 S    
C231  H101  1.110198 S    
C136  C144  1.401365 A    
C235  H111  1.106975 S    
O10   Cu6   1.958038 S    
C244  H140  1.110204 S    
C117  C133  1.395045 A    
C239  H125  1.109491 S    
C58   N2    1.434691 S    
C242  H133  1.110487 S    
O36   C204  1.286728 A    
C115  H11   1.083104 S    
O15   C5    1.293741 A    
O9    Cu5   1.957966 S    
O24   C12   1.292079 A    
C227  H88   1.107270 S    
N29   O105  1.301013 A    
C105  C121  1.395045 A    
C15   C55   1.434690 S    
N12   O71   1.300794 A    
C219  H65   1.110525 S    
C143  C199  1.475414 S    
C220  H66   1.110325 S    
C253  H165  1.106997 S    
O1    Cu1   1.957966 S    
C144  C200  1.472789 S    
C61   N5    1.436618 S    
