data_mof_unit_11653.cif
_audit_creation_date              2012-12-11T14:44:20-0500
_audit_creation_method            fapswitch 2.2
_symmetry_space_group_name_H-M    P1
_symmetry_Int_Tables_number       1
_space_group_crystal_system       triclinic
_cell_length_a                    24.849503
_cell_length_b                    16.748278
_cell_length_c                    15.593302
_cell_angle_alpha                 90.096999
_cell_angle_beta                  50.185151
_cell_angle_gamma                 90.015047
_cell_volume                      4984.8581711

loop_
_atom_site_label
_atom_site_type_symbol
_atom_type_description
_atom_site_fract_x
_atom_site_fract_y
_atom_site_fract_z
_atom_type_partial_charge
C1    C     C_R   0.357492 0.151400 0.744485 -0.045830
C2    C     C_3   0.755128 0.794091 0.604818 -0.151741
C3    C     C_3   0.783295 0.173985 0.573843 -0.128793
C4    C     C_3   0.216466 0.826220 0.426504 -0.128592
C5    C     C_3   0.800258 0.796196 0.395369 -0.144558
C6    C     C_3   0.199924 0.204159 0.604527 -0.144350
C7    C     C_3   0.227344 0.763895 0.573660 -0.126669
C8    C     C_3   0.772888 0.235958 0.425998 -0.126804
C9    C     C_2   0.625921 0.274372 0.179168 -0.192108
C10   C     C_2   0.374080 0.725626 0.820825 -0.192119
C11   C     C_2   0.374486 0.274976 0.820074 -0.190880
C12   C     C_R   0.642506 0.848599 0.255521 -0.045852
C13   C     C_2   0.625511 0.725021 0.179934 -0.190886
C14   C     C_2   0.197283 0.647680 0.016928 -0.293838
C15   C     C_2   0.802716 0.352322 0.983073 -0.293854
C16   C     C_2   0.802600 0.647629 0.983412 -0.294077
C17   C     C_2   0.197399 0.352371 0.016589 -0.294088
C18   C     C_2   0.685445 0.307730 0.145901 0.360388
C19   C     C_2   0.314555 0.692269 0.854097 0.360405
C20   C     C_2   0.314923 0.308334 0.853480 0.358244
C21   C     C_2   0.685075 0.691664 0.146524 0.358244
C22   C     C_2   0.254702 0.691144 0.974935 0.354294
C23   C     C_R   0.642514 0.151287 0.255619 -0.045791
C24   C     C_2   0.745300 0.308856 0.025063 0.354295
C25   C     C_2   0.745028 0.690955 0.025729 0.353528
C26   C     C_2   0.254969 0.309041 0.974274 0.353533
C27   C     C_R   0.614428 0.108782 0.592809 -0.134205
C28   C     C_R   0.385568 0.891246 0.407186 -0.134099
C29   C     C_R   0.384696 0.107941 0.408183 -0.149573
C30   C     C_R   0.615315 0.892090 0.591813 -0.149647
C31   C     C_R   0.086596 0.649161 0.593408 -0.111118
C32   C     C_R   0.913413 0.350827 0.406600 -0.111220
C33   C     C_R   0.913233 0.649720 0.407797 -0.130005
C34   C     C_R   0.357487 0.848712 0.744375 -0.045808
C35   C     C_R   0.086752 0.350272 0.592205 -0.129880
C36   C     C_R   0.689455 0.106923 0.407249 -0.121147
C37   C     C_R   0.310539 0.893104 0.592745 -0.121216
C38   C     C_R   0.310598 0.107586 0.593762 -0.101361
C39   C     C_R   0.689413 0.892454 0.406236 -0.101229
C40   C     C_R   0.161516 0.648653 0.407193 -0.131482
C41   C     C_R   0.838493 0.351342 0.592810 -0.131427
C42   C     C_R   0.837334 0.647813 0.594037 -0.117751
C43   C     C_R   0.162649 0.352174 0.405969 -0.117877
C44   C     C_R   0.553417 0.147737 0.254217 -0.114244
C45   C     C_R   0.834450 0.612955 0.800624 -0.055557
C46   C     C_R   0.446585 0.852262 0.745778 -0.114254
C47   C     C_R   0.446524 0.147829 0.745944 -0.113583
C48   C     C_R   0.553474 0.852170 0.254061 -0.113592
C49   C     C_R   0.077469 0.608777 0.197032 -0.172550
C50   C     C_R   0.922531 0.391226 0.802969 -0.172578
C51   C     C_R   0.922473 0.608839 0.803110 -0.173850
C52   C     C_R   0.077526 0.391161 0.196890 -0.173860
C53   C     C_R   0.393724 0.196095 0.767666 0.169849
C54   C     C_R   0.606274 0.803902 0.232341 0.169850
C55   C     C_R   0.606319 0.195913 0.232358 0.170004
C56   C     C_R   0.165550 0.387045 0.199375 -0.055575
C57   C     C_R   0.393683 0.804084 0.767636 0.170000
C58   C     C_R   0.853617 0.632802 0.863465 0.213483
C59   C     C_R   0.146383 0.367198 0.136536 0.213488
C60   C     C_R   0.146312 0.632689 0.136764 0.212219
C61   C     C_R   0.853688 0.367314 0.863238 0.212240
C62   C     C_R   0.681451 0.126262 0.500198 0.053176
C63   C     C_R   0.318539 0.873790 0.499792 0.053079
C64   C     C_R   0.317838 0.126063 0.501530 0.053571
C65   C     C_R   0.682182 0.874006 0.498463 0.053471
C66   C     C_R   0.135990 0.693864 0.500516 0.045874
C67   C     C_R   0.165517 0.612868 0.199505 -0.056653
C68   C     C_R   0.864030 0.306115 0.499495 0.045881
C69   C     C_R   0.862779 0.693580 0.501720 0.049109
C70   C     C_R   0.137187 0.306396 0.498287 0.049091
C71   C     C_3   0.286162 0.237742 0.430412 -0.142551
C72   C     C_3   0.713899 0.762120 0.569198 -0.142291
C73   C     C_3   0.715274 0.206929 0.602758 -0.153429
C74   C     C_3   0.284648 0.793382 0.397122 -0.153378
C75   C     C_3   0.842085 0.827966 0.430501 -0.162649
C76   C     C_3   0.157862 0.172253 0.569894 -0.162903
C77   C     C_3   0.159268 0.796895 0.603549 -0.165771
C78   C     C_R   0.834482 0.387134 0.800496 -0.056665
C79   C     C_3   0.840809 0.202855 0.396572 -0.165905
C80   C     C_3   0.775159 0.870197 0.533591 -0.142871
C81   C     C_3   0.224624 0.129742 0.466897 -0.142864
C82   C     C_3   0.199123 0.871080 0.529119 -0.156992
C83   C     C_3   0.800713 0.128869 0.471333 -0.156804
C84   C     C_3   0.220671 0.279025 0.532775 -0.109664
C85   C     C_3   0.779549 0.721118 0.466742 -0.109731
C86   C     C_3   0.754743 0.279831 0.527888 -0.128486
C87   C     C_3   0.245418 0.720278 0.471666 -0.128767
C88   C     C_3   0.734634 0.836895 0.498050 0.157468
C89   C     C_3   0.244692 0.205639 0.395288 -0.151626
C90   C     C_3   0.265387 0.163176 0.501941 0.157506
C91   C     C_3   0.266372 0.836721 0.499357 0.153505
C92   C     C_3   0.733622 0.163332 0.500629 0.153578
C93   C     C_3   0.179272 0.246835 0.497978 0.154736
C94   C     C_3   0.820710 0.753173 0.502038 0.154759
C95   C     C_3   0.822263 0.246629 0.498842 0.159617
C96   C     C_3   0.177740 0.753375 0.501177 0.159688
Cl1   Cl    Cl    0.302792 0.670836 0.755787 -0.673926
Cl2   Cl    Cl    0.697205 0.329164 0.244214 -0.673855
Cl3   Cl    Cl    0.696860 0.670453 0.244782 -0.662709
Cl4   Cl    Cl    0.303142 0.329545 0.755219 -0.662745
Cl5   Cl    Cl    0.743226 0.243217 0.936827 -0.703292
Cl6   Cl    Cl    0.256780 0.756780 0.063170 -0.703246
Cl7   Cl    Cl    0.257254 0.243292 0.061969 -0.704991
Cl8   Cl    Cl    0.742738 0.756700 0.938036 -0.704947
H1    H     H_    0.311893 0.168492 0.754648 0.147032
H2    H     H_    0.406283 0.892478 0.321514 0.092762
H3    H     H_    0.404906 0.106998 0.322753 0.101188
H4    H     H_    0.595103 0.893029 0.677244 0.101234
H5    H     H_    0.059285 0.664146 0.679833 0.103067
H6    H     H_    0.940720 0.335834 0.320179 0.103133
H7    H     H_    0.940572 0.665563 0.321676 0.110522
H8    H     H_    0.059415 0.334432 0.678326 0.110507
H9    H     H_    0.737695 0.105562 0.321631 0.100876
H10   H     H_    0.262299 0.894464 0.678362 0.100947
H11   H     H_    0.262697 0.106108 0.679647 0.091754
H12   H     H_    0.688103 0.831506 0.245365 0.147057
H13   H     H_    0.737310 0.893939 0.320347 0.091731
H14   H     H_    0.204017 0.663820 0.321134 0.135000
H15   H     H_    0.795989 0.336179 0.678869 0.134975
H16   H     H_    0.794552 0.662039 0.680393 0.125502
H17   H     H_    0.205436 0.337944 0.319617 0.125580
H18   H     H_    0.515833 0.164048 0.243913 0.105857
H19   H     H_    0.484171 0.835950 0.756076 0.105865
H20   H     H_    0.483990 0.164210 0.756466 0.106134
H21   H     H_    0.516006 0.835787 0.243543 0.106148
H22   H     H_    0.050144 0.602354 0.164525 0.105420
H23   H     H_    0.688121 0.168256 0.245540 0.146575
H24   H     H_    0.949855 0.397649 0.835476 0.105422
H25   H     H_    0.949739 0.602322 0.835690 0.105127
H26   H     H_    0.050260 0.397678 0.164311 0.105130
H27   H     H_    0.771607 0.932615 0.560858 0.120128
H28   H     H_    0.228002 0.067242 0.440025 0.120077
H29   H     H_    0.181948 0.934171 0.552697 0.116979
H30   H     H_    0.817753 0.065711 0.448125 0.116981
H31   H     H_    0.218707 0.341193 0.559646 0.139905
H32   H     H_    0.781685 0.659036 0.439465 0.139938
H33   H     H_    0.736353 0.342670 0.551023 0.133363
H34   H     H_    0.311883 0.831743 0.754450 0.146588
H35   H     H_    0.263945 0.657506 0.448161 0.133304
H36   H     H_    0.339481 0.264135 0.373751 0.130817
H37   H     H_    0.660628 0.735579 0.625531 0.130930
H38   H     H_    0.663095 0.208667 0.687376 0.124280
H39   H     H_    0.336763 0.791878 0.312395 0.124289
H40   H     H_    0.895658 0.853628 0.374433 0.130047
H41   H     H_    0.104240 0.146739 0.626291 0.130040
H42   H     H_    0.106864 0.797785 0.687872 0.124228
H43   H     H_    0.893279 0.201747 0.312362 0.124288
H44   H     H_    0.261872 0.206758 0.309757 0.152731
H45   H     H_    0.781353 0.606850 0.831440 0.118114
H46   H     H_    0.737792 0.792731 0.690442 0.152608
H47   H     H_    0.789149 0.149932 0.633766 0.148860
H48   H     H_    0.210421 0.850414 0.366861 0.148723
H49   H     H_    0.817996 0.797152 0.309487 0.132527
H50   H     H_    0.182333 0.203463 0.690322 0.132756
H51   H     H_    0.232926 0.738854 0.633519 0.167469
H52   H     H_    0.767495 0.260858 0.365860 0.167282
H53   H     H_    0.388989 0.717461 0.872327 0.140762
H54   H     H_    0.611014 0.282535 0.127664 0.140759
H55   H     H_    0.610531 0.716535 0.128549 0.140243
H56   H     H_    0.218647 0.393148 0.168561 0.118120
H57   H     H_    0.389464 0.283460 0.871463 0.140239
H58   H     H_    0.808544 0.384728 0.037044 0.174265
H59   H     H_    0.191452 0.615277 0.962958 0.174269
H60   H     H_    0.191507 0.384884 0.962866 0.173979
H61   H     H_    0.808494 0.615119 0.037134 0.173980
H62   H     H_    0.218610 0.606855 0.168764 0.119114
H63   H     H_    0.781390 0.393148 0.831238 0.119110
H64   H     H_    0.593720 0.107553 0.678477 0.092803
N1    N     N_R   0.389620 0.081040 0.705440 -0.062072
N2    N     N_R   0.417680 0.920160 0.443370 -0.038042
N3    N     N_R   0.417680 0.079840 0.443370 -0.037668
N4    N     N_R   0.582320 0.920160 0.556630 -0.037667
N5    N     N_R   0.082320 0.579840 0.556630 -0.041832
N6    N     N_R   0.917680 0.420160 0.443370 -0.041835
N7    N     N_R   0.917680 0.579840 0.443370 -0.041259
N8    N     N_R   0.082320 0.420160 0.556630 -0.041273
N9    N     N_R   0.627920 0.078930 0.443400 -0.041775
N10   N     N_R   0.372080 0.921070 0.556600 -0.041775
N11   N     N_R   0.372080 0.078930 0.556600 -0.042972
N12   N     N_R   0.610380 0.918960 0.294560 -0.062074
N13   N     N_R   0.627920 0.921070 0.443400 -0.042987
N14   N     N_R   0.127920 0.578930 0.443400 -0.047580
N15   N     N_R   0.872080 0.421070 0.556600 -0.047585
N16   N     N_R   0.872080 0.578930 0.556600 -0.047342
N17   N     N_R   0.127920 0.421070 0.443400 -0.047344
N18   N     N_R   0.555090 0.077730 0.294590 -0.048682
N19   N     N_R   0.444910 0.922270 0.705410 -0.048680
N20   N     N_R   0.444910 0.077730 0.705410 -0.049032
N21   N     N_R   0.555090 0.922270 0.294590 -0.049034
N22   N     N_R   0.055090 0.577730 0.294590 -0.042646
N23   N     N_R   0.610380 0.081040 0.294560 -0.061754
N24   N     N_R   0.944910 0.422270 0.705410 -0.042646
N25   N     N_R   0.944910 0.577730 0.705410 -0.043136
N26   N     N_R   0.055090 0.422270 0.294590 -0.043130
N27   N     N_R   0.389620 0.918960 0.705440 -0.061751
N28   N     N_R   0.889620 0.581040 0.705440 -0.058630
N29   N     N_R   0.110380 0.418960 0.294560 -0.058623
N30   N     N_R   0.110380 0.581040 0.294560 -0.058387
N31   N     N_R   0.889620 0.418960 0.705440 -0.058385
N32   N     N_R   0.582320 0.079840 0.556630 -0.038031
Ni1   Ni    Ni4+2 0.382970 0.000000 0.629840 0.228359
Ni2   Ni    Ni4+2 0.617030 0.000000 0.370160 0.228355
Ni3   Ni    Ni4+2 0.882970 0.500000 0.629840 0.213374
Ni4   Ni    Ni4+2 0.117030 0.500000 0.370160 0.213369
Ni5   Ni    Ni4+2 0.514540 0.000000 0.629840 0.225553
Ni6   Ni    Ni4+2 0.485460 0.000000 0.370160 0.225553
Ni7   Ni    Ni4+2 0.014540 0.500000 0.629840 0.216347
Ni8   Ni    Ni4+2 0.985460 0.500000 0.370160 0.216341

loop_
_geom_bond_atom_site_label_1
_geom_bond_atom_site_label_2
_ccdc_geom_bond_type
C34   N27   A    
C2    H46   S    
C89   H44   S    
C40   H14   S    
C74   H39   S    
C84   H31   S    
N32   Ni5   S    
N25   Ni7   S    
C31   C66   A    
C15   H58   S    
N13   Ni2   S    
C64   C90   S    
C67   N30   A    
C8    C86   S    
C23   N23   A    
C72   C85   S    
C51   H25   S    
C4    C82   S    
N8    N17   A    
C32   C68   A    
C33   N7    A    
C48   C54   A    
C49   H22   S    
C78   H63   S    
C49   C60   A    
C32   H6    S    
N2    N10   A    
N14   Ni4   S    
C35   N8    A    
C9    H54   S    
N8    Ni7   S    
C23   H23   S    
N4    Ni5   S    
C52   C59   A    
N2    Ni6   S    
N12   Ni2   S    
N12   N21   A    
C21   Cl3   S    
C36   C62   A    
N26   N29   A    
C43   N17   A    
C26   Cl7   S    
C11   H57   S    
N29   Ni4   S    
C24   Cl5   S    
N24   N31   A    
C44   H18   S    
C14   H59   S    
C1    C53   A    
C83   H30   S    
C8    C92   S    
C86   H33   S    
C72   C88   S    
C48   H21   S    
C4    C96   S    
C5    C88   S    
N4    N13   A    
C7    C87   S    
N11   Ni1   S    
C60   C67   A    
C28   H2    S    
C79   C83   S    
N9    N32   A    
C62   C92   S    
C8    C79   S    
C19   C22   S    
C33   H7    S    
N23   Ni2   S    
C74   C87   S    
C50   N24   A    
C75   C80   S    
C43   H17   S    
C40   N14   A    
C11   C53   S    
C33   C69   A    
C27   H64   S    
C47   C53   A    
C81   C89   S    
C45   N28   A    
C29   C64   A    
N16   Ni3   S    
C40   C66   A    
N31   Ni3   S    
C39   C65   A    
N3    N11   A    
N7    Ni8   S    
C2    C72   S    
C36   H9    S    
C37   C63   A    
C1    H1    S    
C41   C68   A    
C38   C64   A    
C73   H38   S    
N21   Ni6   S    
C19   Cl1   S    
C72   H37   S    
C4    H48   S    
N20   Ni5   S    
C68   C95   S    
C6    C84   S    
N18   Ni6   S    
C30   C65   A    
C2    C94   S    
C70   C93   S    
C52   N26   A    
C35   C70   A    
N18   N23   A    
C69   C94   S    
C51   N25   A    
C81   H28   S    
C79   H43   S    
C37   H10   S    
C16   H61   S    
C42   N16   A    
C39   H13   S    
C32   N6    A    
C11   C20   D    
C34   H34   S    
C42   C69   A    
C41   H15   S    
C82   C91   S    
C49   N22   A    
N28   Ni3   S    
C74   C91   S    
C5    C75   S    
C79   C95   S    
C10   C57   S    
C83   C92   S    
C17   H60   S    
C76   C93   S    
C34   C57   A    
C85   C94   S    
C20   Cl4   S    
C10   C19   D    
N25   N28   A    
C7    C91   S    
C87   C96   S    
N19   Ni5   S    
C31   H5    S    
C13   C21   D    
N5    Ni7   S    
C51   C58   A    
C16   C58   S    
C29   N3    A    
N3    Ni6   S    
C6    C76   S    
C73   C92   S    
C10   H53   S    
C37   N10   A    
C48   N21   A    
C39   N13   A    
C71   C89   S    
C17   C59   S    
C9    C55   S    
C81   C90   S    
C67   H62   S    
C28   N2    A    
C15   C24   D    
C12   N12   A    
N5    N14   A    
C43   C70   A    
C46   C57   A    
C3    C83   S    
C46   N19   A    
N24   Ni7   S    
C18   C24   S    
C46   H19   S    
C50   H24   S    
C78   N31   A    
C17   C26   D    
C45   C58   A    
N26   Ni8   S    
N22   N30   A    
C65   C88   S    
C66   C96   S    
C56   N29   A    
C31   N5    A    
N22   Ni8   S    
C16   C25   D    
C50   C61   A    
C21   C25   S    
C71   C84   S    
N19   N27   A    
C4    C74   S    
C29   H3    S    
C27   N32   A    
N1    N20   A    
C87   H35   S    
C76   C81   S    
C76   H41   S    
C25   Cl8   S    
C23   C55   A    
C71   H36   S    
N27   Ni1   S    
C27   C62   A    
C14   C60   S    
C13   C54   S    
C77   C96   S    
C3    H47   S    
C22   Cl6   S    
C56   C59   A    
C7    C77   S    
C30   N4    A    
C52   H26   S    
C14   C22   D    
C82   H29   S    
C5    C85   S    
C56   H56   S    
C6    C90   S    
N30   Ni4   S    
C38   H11   S    
C6    H50   S    
C44   C55   A    
C42   H16   S    
C47   H20   S    
C71   C90   S    
C20   C26   S    
C77   C82   S    
C5    H49   S    
C38   N11   A    
C1    N1    A    
C45   H45   S    
C84   C93   S    
C89   C93   S    
N17   Ni4   S    
C8    H52   S    
C73   C86   S    
C61   C78   A    
C2    C80   S    
C75   H40   S    
C36   N9    A    
C85   H32   S    
N1    Ni1   S    
N6    Ni8   S    
C28   C63   A    
C9    C18   D    
C7    H51   S    
C80   C88   S    
N10   Ni1   S    
C63   C91   S    
C80   H27   S    
C15   C61   S    
N9    Ni2   S    
C41   N15   A    
C3    C95   S    
N15   Ni3   S    
C18   Cl2   S    
C3    C73   S    
C86   C95   S    
C47   N20   A    
N6    N15   A    
C30   H4    S    
C77   H42   S    
C13   H55   S    
C12   C54   A    
C35   H8    S    
C75   C94   S    
C44   N18   A    
N7    N16   A    
C12   H12   S    
