data_mof_unit_9815.cif
_audit_creation_date              2012-10-26T17:13:04-0400
_audit_creation_method            fapswitch 2.2
_symmetry_space_group_name_H-M    P1
_symmetry_Int_Tables_number       1
_space_group_crystal_system       triclinic
_cell_length_a                    16.775856
_cell_length_b                    16.870771
_cell_length_c                    16.870769
_cell_angle_alpha                 67.951337
_cell_angle_beta                  67.788346
_cell_angle_gamma                 67.788341
_cell_volume                      3939.01405574

loop_
_atom_site_label
_atom_site_type_symbol
_atom_type_description
_atom_site_fract_x
_atom_site_fract_y
_atom_site_fract_z
_atom_type_partial_charge
C1    C     C_R   0.326232 0.941648 0.454542 -0.057313
C2    C     C_R   0.326232 0.454541 0.941648 -0.057314
C3    C     C_R   0.547896 0.417337 0.972727 0.026145
C4    C     C_R   0.938986 0.478793 0.606933 0.026420
C5    C     C_R   0.932135 0.558396 0.430144 0.026215
C6    C     C_R   0.970129 0.699934 0.569508 -0.055940
C7    C     C_R   0.936898 0.326122 0.456868 -0.057027
C8    C     C_R   0.463428 0.956564 0.460653 0.009500
C9    C     C_R   0.554817 0.985962 0.553253 0.009088
C10   C     C_R   0.933859 0.468263 0.468263 0.009964
C11   C     C_R   0.947994 0.565550 0.565550 0.009893
C12   C     C_R   0.463428 0.460653 0.956564 0.009500
C13   C     C_R   0.554817 0.553253 0.985962 0.009088
C14   C     C_R   0.012952 0.831754 0.569271 0.575488
C15   C     C_R   0.680924 0.026746 0.552599 -0.057060
C16   C     C_R   0.972128 0.171673 0.435309 0.571466
C17   C     C_R   0.828400 0.565139 0.026272 0.553494
C18   C     C_R   0.171911 0.435617 0.970867 0.579094
C19   C     C_R   0.568777 0.016046 0.830871 0.564882
C20   C     C_R   0.435258 0.972274 0.171416 0.581613
C21   C     C_R   0.435258 0.171416 0.972274 0.581613
C22   C     C_R   0.568777 0.830871 0.016046 0.564881
C23   C     C_R   0.972128 0.435309 0.171673 0.571466
C24   C     C_R   0.012952 0.569271 0.831754 0.575488
C25   C     C_R   0.171911 0.970867 0.435617 0.579094
C26   C     C_R   0.936898 0.456868 0.326122 -0.057027
C27   C     C_R   0.828400 0.026272 0.565139 0.553494
C28   C     C_R   0.414827 0.949078 0.412253 0.008864
C29   C     C_R   0.600141 0.001836 0.599396 0.007189
C30   C     C_R   0.936142 0.416835 0.416835 0.011032
C31   C     C_R   0.964125 0.611323 0.611323 0.007901
C32   C     C_R   0.414827 0.412253 0.949079 0.008864
C33   C     C_R   0.600141 0.599396 0.001837 0.007189
C34   C     C_R   0.271693 0.952443 0.401553 -0.011628
C35   C     C_R   0.730700 0.033452 0.601254 -0.009320
C36   C     C_R   0.954170 0.401745 0.270986 -0.012637
C37   C     C_R   0.970129 0.569508 0.699934 -0.055940
C38   C     C_R   0.000038 0.610524 0.740514 -0.006358
C39   C     C_R   0.402008 0.269960 0.955212 -0.008853
C40   C     C_R   0.608043 0.736648 0.013609 -0.007195
C41   C     C_R   0.608043 0.013609 0.736648 -0.007194
C42   C     C_R   0.402008 0.955212 0.269960 -0.008854
C43   C     C_R   0.730700 0.601254 0.033452 -0.009320
C44   C     C_R   0.271693 0.401553 0.952443 -0.011628
C45   C     C_R   0.000038 0.740514 0.610524 -0.006358
C46   C     C_R   0.954170 0.270986 0.401745 -0.012637
C47   C     C_R   0.489820 0.956094 0.736763 -0.107842
C48   C     C_R   0.455318 0.321875 0.949625 -0.055761
C49   C     C_R   0.547746 0.946134 0.287133 -0.105098
C50   C     C_R   0.943402 0.744298 0.489382 -0.108282
C51   C     C_R   0.918999 0.295005 0.551007 -0.107799
C52   C     C_R   0.710048 0.458973 0.041591 -0.111807
C53   C     C_R   0.296265 0.548514 0.923086 -0.105126
C54   C     C_R   0.296265 0.923085 0.548514 -0.105126
C55   C     C_R   0.710048 0.041590 0.458973 -0.111807
C56   C     C_R   0.547746 0.287133 0.946134 -0.105098
C57   C     C_R   0.489820 0.736763 0.956094 -0.107842
C58   C     C_R   0.918999 0.551007 0.295005 -0.107799
C59   C     C_R   0.565583 0.692277 0.990433 -0.055226
C60   C     C_R   0.943402 0.489382 0.744298 -0.108282
C61   C     C_R   0.311686 0.955467 0.311011 0.339745
C62   C     C_R   0.689970 0.034314 0.690303 0.333447
C63   C     C_R   0.962688 0.310112 0.310112 0.335584
C64   C     C_R   0.017770 0.693202 0.693202 0.332435
C65   C     C_R   0.311686 0.311011 0.955467 0.339745
C66   C     C_R   0.689970 0.690303 0.034314 0.333446
C67   C     C_R   0.670979 0.016703 0.415625 0.014507
C68   C     C_R   0.344691 0.929592 0.596529 0.018801
C69   C     C_R   0.932936 0.442099 0.697788 0.015749
C70   C     C_R   0.565583 0.990433 0.692277 -0.055226
C71   C     C_R   0.920378 0.600865 0.344600 0.017493
C72   C     C_R   0.440859 0.690383 0.948585 0.017808
C73   C     C_R   0.589817 0.329466 0.968372 0.015774
C74   C     C_R   0.589817 0.968371 0.329466 0.015774
C75   C     C_R   0.440859 0.948585 0.690383 0.017808
C76   C     C_R   0.344691 0.596529 0.929593 0.018801
C77   C     C_R   0.670979 0.415625 0.016704 0.014507
C78   C     C_R   0.920378 0.344600 0.600865 0.017493
C79   C     C_R   0.932936 0.697788 0.442099 0.015749
C80   C     C_R   0.711115 0.015326 0.326388 -0.130653
C81   C     C_R   0.455318 0.949625 0.321875 -0.055761
C82   C     C_R   0.311317 0.917571 0.688713 -0.120030
C83   C     C_R   0.916172 0.358416 0.740982 -0.120638
C84   C     C_R   0.910296 0.692843 0.309920 -0.119764
C85   C     C_R   0.359037 0.735100 0.927256 -0.121878
C86   C     C_R   0.672649 0.284698 0.987609 -0.125457
C87   C     C_R   0.672649 0.987608 0.284698 -0.125457
C88   C     C_R   0.359037 0.927255 0.735101 -0.121878
C89   C     C_R   0.311317 0.688713 0.917571 -0.120030
C90   C     C_R   0.711115 0.326388 0.015326 -0.130654
C91   C     C_R   0.910296 0.309920 0.692843 -0.119764
C92   C     C_R   0.680924 0.552599 0.026746 -0.057060
C93   C     C_R   0.916172 0.740982 0.358415 -0.120638
C94   C     C_R   0.547896 0.972727 0.417338 0.026145
C95   C     C_R   0.473987 0.962159 0.598351 0.025800
C96   C     C_R   0.932135 0.430144 0.558396 0.026215
C97   C     C_R   0.938986 0.606933 0.478793 0.026420
C98   C     C_R   0.426860 0.551621 0.950426 0.026207
C99   C     C_R   0.591358 0.462250 0.991581 0.026442
C100  C     C_R   0.591358 0.991580 0.462250 0.026442
C101  C     C_R   0.426860 0.950425 0.551621 0.026207
C102  C     C_R   0.473987 0.598351 0.962160 0.025800
Cu1   Cu    Cu3+1 0.995180 0.995180 0.424630 1.029118
Cu2   Cu    Cu3+1 0.004820 0.004820 0.575370 1.020337
Cu3   Cu    Cu3+1 0.995180 0.424630 0.995180 1.029118
Cu4   Cu    Cu3+1 0.004820 0.575370 0.004820 1.020337
Cu5   Cu    Cu3+1 0.424630 0.995180 0.995180 1.044525
Cu6   Cu    Cu3+1 0.575370 0.004820 0.004820 1.010489
F1    F     F_    0.260985 0.961795 0.261147 -0.584715
F2    F     F_    0.731630 0.054228 0.732713 -0.604485
F3    F     F_    0.983083 0.257196 0.257196 -0.587434
F4    F     F_    0.053030 0.728383 0.728383 -0.606058
F5    F     F_    0.260985 0.261147 0.961795 -0.584715
F6    F     F_    0.731630 0.732713 0.054228 -0.604485
H1    H     H_    0.330313 0.921663 0.805331 0.098876
H2    H     H_    0.330313 0.805331 0.921663 0.098876
H3    H     H_    0.899527 0.727276 0.244630 0.120035
H4    H     H_    0.909657 0.329538 0.811593 0.109746
H5    H     H_    0.468327 0.930713 0.807585 0.135883
H6    H     H_    0.590174 0.925275 0.228310 0.162577
H7    H     H_    0.927118 0.815269 0.462516 0.154784
H8    H     H_    0.901541 0.233454 0.587978 0.159405
H9    H     H_    0.761669 0.417316 0.074434 0.153751
H10   H     H_    0.236852 0.586279 0.900863 0.157933
H11   H     H_    0.236852 0.900863 0.586279 0.157933
H12   H     H_    0.705600 0.984972 0.216374 0.111069
H13   H     H_    0.761669 0.074434 0.417316 0.153752
H14   H     H_    0.590174 0.228310 0.925276 0.162577
H15   H     H_    0.468327 0.807585 0.930714 0.135883
H16   H     H_    0.901541 0.587978 0.233454 0.159405
H17   H     H_    0.927118 0.462516 0.815269 0.154784
H18   H     H_    0.909657 0.811593 0.329537 0.109746
H19   H     H_    0.899526 0.244630 0.727276 0.120036
H20   H     H_    0.773486 0.289818 0.033019 0.110246
H21   H     H_    0.247729 0.724661 0.902242 0.116851
H22   H     H_    0.247729 0.902242 0.724661 0.116851
H23   H     H_    0.773486 0.033018 0.289818 0.110246
H24   H     H_    0.705600 0.216374 0.984973 0.111069
O1    O     O_R   0.124540 0.978640 0.385460 -0.405650
O2    O     O_R   0.124540 0.385460 0.978640 -0.405650
O3    O     O_R   0.021360 0.875460 0.614540 -0.430756
O4    O     O_R   0.978640 0.124540 0.385460 -0.418762
O5    O     O_R   0.013780 0.867370 0.487190 -0.551741
O6    O     O_R   0.986220 0.132630 0.512810 -0.545833
O7    O     O_R   0.867370 0.487190 0.013780 -0.567766
O8    O     O_R   0.132630 0.512810 0.986220 -0.543196
O9    O     O_R   0.487190 0.013780 0.867370 -0.558089
O10   O     O_R   0.512810 0.986220 0.132630 -0.552612
O11   O     O_R   0.512810 0.132630 0.986220 -0.552613
O12   O     O_R   0.875460 0.021360 0.614540 -0.432606
O13   O     O_R   0.487190 0.867370 0.013780 -0.558089
O14   O     O_R   0.986220 0.512810 0.132630 -0.545833
O15   O     O_R   0.013780 0.487190 0.867370 -0.551741
O16   O     O_R   0.132630 0.986220 0.512810 -0.543196
O17   O     O_R   0.867370 0.013780 0.487190 -0.567766
O18   O     O_R   0.978640 0.385460 0.124540 -0.418762
O19   O     O_R   0.021360 0.614540 0.875460 -0.430756
O20   O     O_R   0.385460 0.124540 0.978640 -0.409862
O21   O     O_R   0.614540 0.875460 0.021360 -0.431238
O22   O     O_R   0.614540 0.021360 0.875460 -0.431238
O23   O     O_R   0.385460 0.978640 0.124540 -0.409862
O24   O     O_R   0.875460 0.614540 0.021360 -0.432606

loop_
_geom_bond_atom_site_label_1
_geom_bond_atom_site_label_2
_ccdc_geom_bond_type
Cu3   O15   S    
C23   O14   A    
C89   H21   S    
C6    C45   A    
C32   C48   A    
C21   O20   A    
C74   C94   A    
C17   O7    A    
C61   F1    S    
C50   C79   A    
C72   C85   A    
C75   C95   A    
Cu6   O21   S    
C24   O15   A    
C42   C81   A    
C19   O22   A    
C83   H4    S    
C57   H15   S    
C16   O6    A    
C79   C93   A    
C80   C87   A    
C18   C44   S    
C90   H20   S    
C52   H9    S    
C58   C71   A    
C57   C59   A    
C49   H6    S    
C54   C68   A    
C22   O21   A    
C76   C98   A    
C80   H23   S    
C2    C32   A    
Cu2   O12   S    
C56   H14   S    
C3    C12   A    
C4    C96   A    
Cu5   O23   S    
C78   C96   A    
C84   H3    S    
C91   H19   S    
C1    C28   A    
C24   C38   S    
Cu5   Cu6   S    
C20   O10   A    
C10   C96   A    
C74   C87   A    
C93   H18   S    
C8    C101  A    
C9    C95   A    
C12   C98   A    
C9    C29   A    
C25   C34   S    
Cu5   O13   S    
C47   H5    S    
C6    C31   A    
C25   O16   A    
C14   O3    A    
C11   C31   A    
C33   C59   A    
C7    C30   A    
C40   C66   A    
C23   O18   A    
C12   C32   A    
C63   F3    S    
C39   C65   A    
C44   C65   A    
C50   H7    S    
C41   C62   A    
C60   H17   S    
C15   C35   A    
C4    C69   A    
C1    C34   A    
C15   C29   A    
C14   C45   S    
C38   C64   A    
C27   O17   A    
C54   H11   S    
C77   C90   A    
Cu4   O14   S    
C7    C46   A    
C8    C94   A    
C68   C101  A    
C86   C90   A    
C33   C92   A    
C16   C46   S    
C85   C89   A    
C24   O19   A    
C27   C35   S    
C98   C102  A    
C2    C53   A    
C34   C61   A    
C19   O9    A    
C31   C37   A    
C15   C55   A    
C13   C99   A    
C16   O4    A    
C1    C54   A    
C17   C43   S    
C47   C70   A    
C13   C33   A    
C37   C38   A    
C69   C83   A    
Cu1   O1    S    
Cu5   O9    S    
C10   C30   A    
C55   C67   A    
C62   F2    S    
C94   C100  A    
C22   C40   S    
C71   C84   A    
Cu2   O6    S    
C6    C50   A    
C4    C11   A    
C18   O2    A    
C26   C58   A    
C42   C61   A    
C67   C100  A    
Cu1   O17   S    
C55   H13   S    
C26   C30   A    
C27   O12   A    
C21   O11   A    
C8    C28   A    
C52   C92   A    
C53   C76   A    
C52   C77   A    
C36   C63   A    
Cu1   O4    S    
Cu5   O20   S    
C2    C44   A    
C29   C70   A    
C26   C36   A    
C48   C56   A    
C22   O13   A    
C56   C73   A    
C66   F6    S    
C25   O1    A    
C28   C81   A    
C49   C74   A    
C65   F5    S    
C21   C39   S    
C79   C97   A    
C85   H2    S    
C67   C80   A    
C5    C97   A    
C18   O8    A    
C53   H10   S    
Cu1   O5    S    
C20   C42   S    
Cu6   O22   S    
C78   C91   A    
C9    C100  A    
Cu4   O19   S    
C83   C91   A    
Cu3   Cu4   S    
C76   C89   A    
C45   C64   A    
C95   C101  A    
C43   C92   A    
Cu4   O8    S    
C46   C63   A    
C11   C97   A    
C68   C82   A    
C88   H1    S    
C14   O5    A    
C51   C78   A    
C7    C51   A    
C5    C10   A    
C5    C71   A    
Cu3   O2    S    
C72   C102  A    
C60   C69   A    
C58   H16   S    
C43   C66   A    
C82   C88   A    
C20   O23   A    
C77   C99   A    
C35   C62   A    
C49   C81   A    
C84   C93   A    
Cu4   O24   S    
C57   C72   A    
C82   H22   S    
C3    C73   A    
C73   C86   A    
C37   C60   A    
C64   F4    S    
C17   O24   A    
C86   H24   S    
C47   C75   A    
Cu6   O11   S    
C3    C99   A    
C75   C88   A    
Cu3   O18   S    
C23   C36   S    
Cu1   Cu2   S    
C40   C59   A    
C51   H8    S    
Cu2   O3    S    
C41   C70   A    
Cu2   O16   S    
C13   C102  A    
Cu3   O7    S    
C87   H12   S    
C19   C41   S    
C39   C48   A    
Cu6   O10   S    
