data_mof_unit_55725.cif
_audit_creation_date              2012-10-26T17:13:09-0400
_audit_creation_method            fapswitch 2.2
_symmetry_space_group_name_H-M    P1
_symmetry_Int_Tables_number       1
_space_group_crystal_system       triclinic
_cell_length_a                    16.900544
_cell_length_b                    16.71707
_cell_length_c                    16.782682
_cell_angle_alpha                 68.138962
_cell_angle_beta                  67.408984
_cell_angle_gamma                 67.548876
_cell_volume                      3901.90702305

loop_
_atom_site_label
_atom_site_type_symbol
_atom_type_description
_atom_site_fract_x
_atom_site_fract_y
_atom_site_fract_z
_atom_type_partial_charge
C1    C     C_R   0.321623 0.955388 0.453426 0.017150
C2    C     C_R   0.679930 0.037614 0.547976 0.017535
C3    C     C_R   0.932563 0.457982 0.326159 0.010509
C4    C     C_R   0.967556 0.569636 0.700668 0.023570
C5    C     C_R   0.454597 0.324853 0.946480 0.014879
C6    C     C_R   0.549516 0.678856 0.039401 0.012910
C7    C     C_R   0.547464 0.042651 0.678205 0.013321
C8    C     C_R   0.453927 0.950867 0.322968 0.014886
C9    C     C_R   0.690530 0.566975 0.995476 0.010800
C10   C     C_R   0.319685 0.451969 0.961845 0.016809
C11   C     C_R   0.961280 0.703460 0.572142 0.018316
C12   C     C_R   0.933038 0.326908 0.456223 0.007918
C13   C     C_R   0.457027 0.974717 0.457319 -0.034928
C14   C     C_R   0.545781 0.014503 0.545395 -0.034020
C15   C     C_R   0.925998 0.470513 0.469382 -0.033620
C16   C     C_R   0.943005 0.567024 0.566400 -0.034738
C17   C     C_R   0.457843 0.458920 0.971575 -0.033411
C18   C     C_R   0.550539 0.552086 0.998621 -0.033214
C19   C     C_R   0.003718 0.835504 0.572109 0.843188
C20   C     C_R   0.975266 0.171283 0.434244 0.837662
C21   C     C_R   0.829771 0.568108 0.019822 0.822283
C22   C     C_R   0.171971 0.435395 0.970965 0.862670
C23   C     C_R   0.563893 0.030277 0.827959 0.826323
C24   C     C_R   0.436333 0.968907 0.172033 0.827261
C25   C     C_R   0.436586 0.172173 0.968462 0.825268
C26   C     C_R   0.563756 0.828148 0.030197 0.826845
C27   C     C_R   0.974752 0.434553 0.171263 0.848793
C28   C     C_R   0.005782 0.571636 0.834420 0.830737
C29   C     C_R   0.172161 0.969644 0.435826 0.858254
C30   C     C_R   0.827882 0.029450 0.564398 0.812799
C31   C     C_R   0.410691 0.960158 0.411112 0.069009
C32   C     C_R   0.591320 0.031497 0.590742 0.066353
C33   C     C_R   0.930190 0.418517 0.417184 0.077828
C34   C     C_R   0.958177 0.613251 0.612885 0.070153
C35   C     C_R   0.410420 0.411489 0.960408 0.068968
C36   C     C_R   0.596849 0.598755 0.012210 0.067689
C37   C     C_R   0.272147 0.950093 0.403322 -0.162998
C38   C     C_R   0.728219 0.046748 0.597047 -0.148652
C39   C     C_R   0.961057 0.400167 0.269298 -0.158220
C40   C     C_R   0.984690 0.616292 0.746359 -0.164223
C41   C     C_R   0.403955 0.272848 0.947276 -0.159282
C42   C     C_R   0.597705 0.728696 0.045732 -0.155527
C43   C     C_R   0.596473 0.049111 0.727758 -0.155069
C44   C     C_R   0.403933 0.948008 0.272397 -0.157084
C45   C     C_R   0.734216 0.607190 0.022448 -0.145219
C46   C     C_R   0.271241 0.402545 0.953452 -0.161941
C47   C     C_R   0.981513 0.747808 0.617376 -0.163722
C48   C     C_R   0.961345 0.269775 0.399193 -0.155117
C49   C     C_R   0.454794 0.049536 0.711835 -0.196600
C50   C     C_R   0.546916 0.942162 0.289638 -0.198716
C51   C     C_R   0.936288 0.748070 0.491119 -0.208695
C52   C     C_R   0.913201 0.295556 0.550677 -0.208443
C53   C     C_R   0.735814 0.494320 0.955162 -0.214347
C54   C     C_R   0.282569 0.542357 0.968031 -0.210164
C55   C     C_R   0.286759 0.953260 0.545731 -0.208872
C56   C     C_R   0.715386 0.037265 0.456206 -0.222513
C57   C     C_R   0.548957 0.295632 0.926827 -0.198805
C58   C     C_R   0.455511 0.706788 0.058970 -0.196252
C59   C     C_R   0.910723 0.553313 0.295893 -0.206760
C60   C     C_R   0.951572 0.483728 0.741765 -0.220348
C61   C     C_R   0.317917 0.935374 0.317355 0.108008
C62   C     C_R   0.681831 0.063066 0.682242 0.107510
C63   C     C_R   0.987193 0.306445 0.305817 0.080323
C64   C     C_R   0.977094 0.708756 0.708703 0.081153
C65   C     C_R   0.317385 0.317172 0.936700 0.108271
C66   C     C_R   0.684432 0.684722 0.053922 0.109819
C67   C     C_R   0.674798 0.011408 0.415179 0.093649
C68   C     C_R   0.328264 0.976778 0.587838 0.092599
C69   C     C_R   0.941087 0.436975 0.694779 0.098984
C70   C     C_R   0.910201 0.604359 0.346417 0.098487
C71   C     C_R   0.410904 0.664856 0.039102 0.095252
C72   C     C_R   0.596394 0.344603 0.933583 0.095182
C73   C     C_R   0.590392 0.963343 0.331692 0.096453
C74   C     C_R   0.412424 0.025512 0.671023 0.091699
C75   C     C_R   0.323828 0.581900 0.994284 0.088120
C76   C     C_R   0.689878 0.443928 0.948822 0.098168
C77   C     C_R   0.918624 0.343371 0.600196 0.103148
C78   C     C_R   0.924818 0.701557 0.443915 0.094952
C79   C     C_R   0.719059 0.996171 0.330004 -0.206155
C80   C     C_R   0.284482 0.990725 0.673527 -0.190803
C81   C     C_R   0.932314 0.349458 0.735959 -0.199634
C82   C     C_R   0.899519 0.697207 0.312220 -0.180327
C83   C     C_R   0.319968 0.702291 0.044441 -0.179482
C84   C     C_R   0.689708 0.314947 0.914226 -0.179671
C85   C     C_R   0.678170 0.969568 0.289768 -0.182069
C86   C     C_R   0.325180 0.017755 0.713594 -0.180338
C87   C     C_R   0.277563 0.662951 0.018671 -0.192892
C88   C     C_R   0.735936 0.364574 0.921364 -0.188127
C89   C     C_R   0.918902 0.303785 0.689781 -0.177213
C90   C     C_R   0.906502 0.745484 0.360721 -0.185561
C91   C     C_R   0.545186 0.980204 0.415949 0.028956
C92   C     C_R   0.457867 0.008234 0.587032 0.028960
C93   C     C_R   0.927982 0.430558 0.558508 0.028910
C94   C     C_R   0.930972 0.609935 0.480457 0.030823
C95   C     C_R   0.413004 0.541410 0.993664 0.033155
C96   C     C_R   0.596750 0.473054 0.970097 0.030480
C97   C     C_R   0.588925 0.001018 0.459365 0.034859
C98   C     C_R   0.414189 0.987239 0.543702 0.032100
C99   C     C_R   0.458178 0.585805 0.010991 0.028009
C100  C     C_R   0.550080 0.424693 0.959893 0.027853
C101  C     C_R   0.937968 0.478104 0.606356 0.033611
C102  C     C_R   0.922965 0.561516 0.431835 0.029971
Cu1   Cu    Cu3+1 0.995180 0.995180 0.424630 0.984869
Cu2   Cu    Cu3+1 0.004820 0.004820 0.575370 0.989178
Cu3   Cu    Cu3+1 0.995180 0.424630 0.995180 0.991100
Cu4   Cu    Cu3+1 0.004820 0.575370 0.004820 0.987560
Cu5   Cu    Cu3+1 0.424630 0.995180 0.995180 1.001380
Cu6   Cu    Cu3+1 0.575370 0.004820 0.004820 1.003237
H1    H     H_    0.289390 0.030206 0.778890 0.149343
H2    H     H_    0.714028 0.956886 0.224574 0.147179
H3    H     H_    0.899750 0.816727 0.332142 0.138932
H4    H     H_    0.912726 0.236180 0.722837 0.151171
H5    H     H_    0.807456 0.339473 0.908376 0.130226
H6    H     H_    0.208056 0.694597 0.019961 0.143302
H7    H     H_    0.217744 0.983405 0.708350 0.142905
H8    H     H_    0.786011 0.002938 0.295388 0.136534
H9    H     H_    0.726906 0.253374 0.893845 0.154740
H10   H     H_    0.282708 0.763789 0.064959 0.153981
H11   H     H_    0.888031 0.732057 0.247095 0.154719
H12   H     H_    0.938076 0.315445 0.803181 0.130841
H13   H     H_    0.412290 0.077271 0.767630 0.188972
H14   H     H_    0.588369 0.915998 0.232600 0.188338
H15   H     H_    0.920101 0.819926 0.465197 0.176292
H16   H     H_    0.895992 0.233492 0.587502 0.190577
H17   H     H_    0.806663 0.476264 0.925457 0.161008
H18   H     H_    0.224919 0.587910 0.947183 0.183047
H19   H     H_    0.229568 0.929569 0.588769 0.179142
H20   H     H_    0.771678 0.061875 0.412027 0.182150
H21   H     H_    0.587452 0.237747 0.900827 0.185907
H22   H     H_    0.415309 0.760172 0.091303 0.184467
H23   H     H_    0.895054 0.589712 0.233286 0.191222
H24   H     H_    0.940068 0.452257 0.811926 0.167287
O1    O     O_R   0.124540 0.978640 0.385460 -0.526574
O2    O     O_R   0.875460 0.021360 0.614540 -0.540787
O3    O     O_R   0.978640 0.385460 0.124540 -0.547651
O4    O     O_R   0.021360 0.614540 0.875460 -0.554004
O5    O     O_R   0.385460 0.124540 0.978640 -0.540544
O6    O     O_R   0.614540 0.875460 0.021360 -0.540908
O7    O     O_R   0.614540 0.021360 0.875460 -0.539462
O8    O     O_R   0.385460 0.978640 0.124540 -0.540829
O9    O     O_R   0.875460 0.614540 0.021360 -0.544816
O10   O     O_R   0.124540 0.385460 0.978640 -0.528797
O11   O     O_R   0.021360 0.875460 0.614540 -0.554637
O12   O     O_R   0.978640 0.124540 0.385460 -0.553872
O13   O     O_R   0.013780 0.867370 0.487190 -0.597232
O14   O     O_R   0.986220 0.132630 0.512810 -0.598330
O15   O     O_R   0.867370 0.487190 0.013780 -0.618737
O16   O     O_R   0.132630 0.512810 0.986220 -0.609900
O17   O     O_R   0.487190 0.013780 0.867370 -0.602299
O18   O     O_R   0.512810 0.986220 0.132630 -0.599349
O19   O     O_R   0.512810 0.132630 0.986220 -0.594982
O20   O     O_R   0.487190 0.867370 0.013780 -0.598727
O21   O     O_R   0.986220 0.512810 0.132630 -0.598718
O22   O     O_R   0.013780 0.487190 0.867370 -0.606759
O23   O     O_R   0.132630 0.986220 0.512810 -0.605083
O24   O     O_R   0.867370 0.013780 0.487190 -0.629387
I1    I     I_    0.268888 0.867944 0.266763 -0.335426
I2    I     I_    0.729053 0.133850 0.730909 -0.390027
I3    I     I_    0.092652 0.223157 0.222744 -0.281868
I4    I     I_    0.918679 0.796196 0.796631 -0.284146
I5    I     I_    0.268822 0.266856 0.868648 -0.330511
I6    I     I_    0.726793 0.725008 0.135546 -0.381617

loop_
_geom_bond_atom_site_label_1
_geom_bond_atom_site_label_2
_ccdc_geom_bond_type
C27   O21   A    
C83   C87   A    
C9    C45   A    
C18   C96   A    
C20   O12   A    
C11   C47   A    
C50   H14   S    
C63   I3    S    
C12   C48   A    
Cu1   O12   S    
C60   H24   S    
C55   C68   A    
C75   C95   A    
C5    C57   A    
C78   C90   A    
C54   H18   S    
C89   H4    S    
C77   C89   A    
C19   O13   A    
Cu2   O2    S    
Cu4   O9    S    
C21   O15   A    
C83   H10   S    
C23   O7    A    
C58   H22   S    
C19   C47   S    
C58   C71   A    
C28   C40   S    
Cu3   O15   S    
C5    C35   A    
C1    C31   A    
C51   H15   S    
C66   I6    S    
C2    C32   A    
C74   C92   A    
Cu5   O8    S    
C6    C58   A    
C87   H6    S    
C80   C86   A    
Cu1   Cu2   S    
C16   C34   A    
C4    C40   A    
C27   C39   S    
C84   H9    S    
C30   O2    A    
C10   C46   A    
C9    C36   A    
Cu5   Cu6   S    
C62   I2    S    
C43   C62   A    
C10   C35   A    
C17   C95   A    
C7    C43   A    
C76   C88   A    
C71   C83   A    
C1    C37   A    
Cu3   O3    S    
C81   C89   A    
C30   O24   A    
Cu3   O22   S    
C23   O17   A    
C3    C39   A    
C57   C72   A    
C79   H8    S    
C13   C91   A    
C28   O22   A    
C22   O10   A    
C82   H11   S    
C70   C82   A    
C12   C52   A    
C14   C92   A    
C21   C45   S    
C49   H13   S    
C4    C34   A    
C92   C98   A    
Cu2   O14   S    
C86   H1    S    
C67   C79   A    
C73   C91   A    
C46   C65   A    
C85   H2    S    
C50   C73   A    
C93   C101  A    
Cu3   O10   S    
C48   C63   A    
C41   C65   A    
C71   C99   A    
C24   O8    A    
Cu5   O5    S    
C25   O5    A    
C61   I1    S    
Cu6   O19   S    
C2    C38   A    
C81   H12   S    
C80   H7    S    
C24   O18   A    
Cu4   O21   S    
C59   H23   S    
C4    C60   A    
C29   O1    A    
Cu2   O11   S    
Cu1   O24   S    
C20   C48   S    
C91   C97   A    
C7    C49   A    
C72   C84   A    
C53   H17   S    
C69   C81   A    
Cu6   O18   S    
Cu5   O20   S    
C75   C87   A    
C22   C46   S    
C55   H19   S    
C24   C44   S    
C20   O14   A    
C53   C76   A    
C9    C53   A    
C18   C99   A    
C25   C41   S    
C68   C80   A    
C8    C50   A    
C47   C64   A    
Cu1   O13   S    
C14   C97   A    
C72   C100  A    
C57   H21   S    
C26   C42   S    
C5    C41   A    
C19   O11   A    
C7    C32   A    
C28   O4    A    
C8    C31   A    
C90   H3    S    
C13   C31   A    
C11   C34   A    
C15   C102  A    
C84   C88   A    
C22   O16   A    
C26   O6    A    
C40   C64   A    
C15   C93   A    
Cu6   O7    S    
C37   C61   A    
C70   C102  A    
C69   C101  A    
C44   C61   A    
C74   C86   A    
C56   C67   A    
C39   C63   A    
Cu3   Cu4   S    
C16   C94   A    
C64   I4    S    
C82   C90   A    
C29   O23   A    
C25   O19   A    
C27   O3    A    
C26   O20   A    
Cu1   O1    S    
C51   C78   A    
C21   O9    A    
C73   C85   A    
C2    C56   A    
C76   C96   A    
Cu6   O6    S    
C52   H16   S    
C65   I5    S    
C13   C98   A    
C60   C69   A    
C78   C94   A    
C96   C100  A    
C77   C93   A    
C79   C85   A    
C6    C36   A    
C95   C99   A    
C56   H20   S    
Cu2   O23   S    
C1    C55   A    
C8    C44   A    
C10   C54   A    
C17   C100  A    
C68   C98   A    
C11   C51   A    
C67   C97   A    
C59   C70   A    
C54   C75   A    
Cu5   O17   S    
C16   C101  A    
C14   C32   A    
C94   C102  A    
Cu4   O16   S    
C6    C42   A    
C29   C37   S    
C45   C66   A    
C42   C66   A    
C3    C33   A    
C49   C74   A    
C17   C35   A    
C30   C38   S    
C12   C33   A    
C23   C43   S    
C18   C36   A    
C15   C33   A    
C52   C77   A    
C88   H5    S    
Cu4   O4    S    
C38   C62   A    
C3    C59   A    
