data_mof_unit_29581.cif
_audit_creation_date              2012-12-10T16:52:43-0500
_audit_creation_method            fapswitch 2.2
_symmetry_space_group_name_H-M    P1
_symmetry_Int_Tables_number       1
_space_group_crystal_system       triclinic
_cell_length_a                    12.965208
_cell_length_b                    10.91911
_cell_length_c                    9.786794
_cell_angle_alpha                 90.721203
_cell_angle_beta                  96.568943
_cell_angle_gamma                 90.519504
_cell_volume                      1376.2201041

loop_
_atom_site_label
_atom_site_type_symbol
_atom_type_description
_atom_site_fract_x
_atom_site_fract_y
_atom_site_fract_z
_atom_type_partial_charge
C1    C     C_R   0.496475 0.265817 0.498812 0.829709
C2    C     C_R   0.027068 0.472792 0.553382 -0.015603
C3    C     C_R   0.979309 0.570038 0.474139 -0.052040
C4    C     C_R   0.869489 0.576410 0.457792 0.344650
C5    C     C_R   0.863690 0.431376 0.643101 -0.265358
C6    C     C_R   0.969689 0.413159 0.648745 0.407808
C7    C     C_2   0.495260 0.932439 0.393744 -0.188871
C8    C     C_2   0.522273 0.865622 0.506634 0.231916
C9    C     C_2   0.506902 0.065498 0.391374 -0.073328
C10   C     C_2   0.484210 0.134311 0.497306 -0.225436
C11   C     C_2   0.436932 0.435911 0.914339 0.014190
C12   C     C_R   0.301284 0.503111 0.474047 0.864762
C13   C     C_2   0.446213 0.423227 0.067612 0.448300
C14   C     C_R   0.504518 0.734339 0.501468 0.830982
C15   C     C_R   0.699207 0.503433 0.526087 0.872519
C16   C     C_R   0.812480 0.504890 0.542317 -0.184443
C17   C     C_R   0.189275 0.518796 0.461406 -0.138391
C18   C     C_R   0.042891 0.655036 0.412216 0.116019
C19   C     C_R   0.146972 0.626159 0.401875 0.320204
C20   C     C_R   0.129683 0.439897 0.534388 0.071932
Cu1   Cu    Cu3+1 0.500020 0.500020 0.638640 1.002115
Cu2   Cu    Cu3+1 0.499980 0.499980 0.361360 1.071325
H1    H     H_    0.454653 0.093407 0.585766 0.197611
H2    H     H_    0.378424 0.379313 0.854918 0.163803
H3    H     H_    0.505099 0.586829 0.121641 0.199123
H4    H     H_    0.820122 0.382748 0.713998 0.213455
H5    H     H_    0.462590 0.888228 0.298222 0.187615
H6    H     H_    0.529248 0.106969 0.298688 0.202667
N1    N     N_2   0.498860 0.498660 0.846770 -0.183879
N2    N     N_2   0.498840 0.498630 0.152900 -0.306720
O1    O     O_R   0.500020 0.321960 0.617050 -0.575027
O2    O     O_R   0.499980 0.321920 0.382890 -0.534122
O3    O     O_R   0.349010 0.500000 0.598060 -0.588412
O4    O     O_R   0.348980 0.499950 0.363910 -0.504304
O5    O     O_R   0.500020 0.678080 0.617110 -0.546193
O6    O     O_R   0.499980 0.678040 0.382950 -0.580500
O7    O     O_R   0.651020 0.500050 0.636090 -0.602184
O8    O     O_R   0.650990 0.500000 0.401940 -0.521594
Cl1   Cl    Cl    0.802118 0.659283 0.320388 -0.602557
C21   C     C_3   0.583527 0.574901 0.912055 -0.436216
H7    H     H_    0.635202 0.603708 0.836648 0.248226
H8    H     H_    0.633266 0.524561 0.992138 0.189081
H9    H     H_    0.553516 0.663413 0.946945 0.182942
Cl2   Cl    Cl    0.377005 0.299760 0.127602 -0.551433
C22   C     C_3   0.008083 0.784700 0.379943 -0.597715
H10   H     H_    0.071015 0.851815 0.413388 0.238483
H11   H     H_    0.985492 0.794068 0.267715 0.277643
H12   H     H_    0.943694 0.812259 0.438825 0.242369
Cl3   Cl    Cl    0.026062 0.328176 0.789983 -0.557332
Cl4   Cl    Cl    0.226397 0.728140 0.318651 -0.606729
C23   C     C_3   0.172501 0.314599 0.573736 -0.670979
H13   H     H_    0.227734 0.282940 0.502298 0.195594
H14   H     H_    0.213908 0.317792 0.679444 0.262105
H15   H     H_    0.109702 0.244218 0.565024 0.258378
Cl5   Cl    Cl    0.594392 0.925383 0.658114 -0.576159

loop_
_geom_bond_atom_site_label_1
_geom_bond_atom_site_label_2
_ccdc_geom_bond_type
C12   C17   S    
C4    C16   A    
C15   O8    A    
Cu1   O5    S    
C10   H1    S    
C11   C13   S    
C9    C10   D    
C13   N2    D    
C7    H5    S    
C4    Cl1   S    
C23   H15   S    
C21   H9    S    
C21   H8    S    
C2    C3    A    
Cu1   O7    S    
C7    C8    D    
C22   H10   S    
Cu1   O1    S    
C19   Cl4   S    
C11   N1    D    
C23   H13   S    
C2    C6    A    
Cu2   O2    S    
C8    Cl5   S    
C21   H7    S    
C17   C19   A    
C20   C23   S    
C5    H4    S    
C22   H11   S    
C6    Cl3   S    
C14   O6    A    
C5    C6    A    
Cu2   O4    S    
Cu1   O3    S    
C1    O2    A    
C12   O4    A    
C15   C16   S    
Cu2   O8    S    
C18   C22   S    
C11   H2    S    
C1    O1    A    
C17   C20   A    
Cu2   O6    S    
N1    C21   S    
C3    C18   A    
C18   C19   A    
C22   H12   S    
C14   O5    A    
C7    C9    S    
C2    C20   A    
H3    N2    S    
C5    C16   A    
C8    C14   S    
Cu2   N2    S    
C12   O3    A    
Cu1   Cu2   S    
Cu1   N1    S    
C13   Cl2   S    
C15   O7    A    
C1    C10   S    
C3    C4    A    
C9    H6    S    
C23   H14   S    
