data_mof_unit_54566.cif
_audit_creation_date              2012-12-10T20:44:41-0500
_audit_creation_method            fapswitch 2.2
_symmetry_space_group_name_H-M    P1
_symmetry_Int_Tables_number       1
_space_group_crystal_system       triclinic
_cell_length_a                    9.837994
_cell_length_b                    10.696746
_cell_length_c                    16.864097
_cell_angle_alpha                 88.835307
_cell_angle_beta                  93.780983
_cell_angle_gamma                 89.48432
_cell_volume                      1770.3614772

loop_
_atom_site_label
_atom_site_type_symbol
_atom_type_description
_atom_site_fract_x
_atom_site_fract_y
_atom_site_fract_z
_atom_type_partial_charge
C1    C     C_R   0.500358 0.259733 0.498300 0.881568
C2    C     C_R   0.581347 0.406595 0.782513 -0.305049
C3    C     C_R   0.603584 0.547493 0.140529 0.340692
C4    C     C_R   0.601946 0.504949 0.219351 0.072861
C5    C     C_R   0.480680 0.581213 0.098219 0.197140
C6    C     C_R   0.478247 0.510120 0.258466 -0.179255
C7    C     C_R   0.354830 0.540679 0.213985 0.159843
C8    C     C_R   0.358248 0.578441 0.134674 -0.316409
C9    C     C_R   0.622107 0.062084 0.484120 0.044191
C10   C     C_R   0.499747 0.128481 0.486408 -0.158377
C11   C     C_R   0.375433 0.066586 0.472158 -0.194679
C12   C     C_R   0.516758 0.499893 0.652608 0.909943
C13   C     C_R   0.374619 0.937374 0.470589 -0.193251
C14   C     C_R   0.498129 0.871466 0.482696 -0.115219
C15   C     C_R   0.621064 0.934639 0.480620 -0.033148
C16   C     C_3   0.750113 0.918394 0.532262 -0.059729
C17   C     C_3   0.752009 0.061438 0.536672 0.538205
C18   C     C_R   0.079109 0.491018 0.569737 0.199584
C19   C     C_R   0.064073 0.527097 0.432648 -0.132510
C20   C     C_R   0.920109 0.526461 0.432516 -0.102929
C21   C     C_R   0.936633 0.493573 0.569929 0.209727
C22   C     C_3   0.936736 0.393470 0.632246 -0.475870
C23   C     C_R   0.499219 0.740059 0.496574 0.895975
C24   C     C_3   0.090992 0.387325 0.630246 -0.492844
C25   C     C_R   0.483434 0.499386 0.346011 0.909989
C26   C     C_R   0.524275 0.506961 0.737455 -0.054931
C27   C     C_R   0.467969 0.610709 0.773599 0.162792
C28   C     C_R   0.467343 0.611420 0.855968 -0.225337
C29   C     C_R   0.520049 0.507893 0.901448 0.316523
C30   C     C_R   0.578061 0.406869 0.864444 -0.157624
H1    H     H_    0.277847 0.889896 0.465632 0.173784
H2    H     H_    0.733021 0.866679 0.588679 0.133569
H3    H     H_    0.111634 0.549787 0.378676 0.177115
H4    H     H_    0.859975 0.548395 0.378322 0.158335
H5    H     H_    0.901993 0.428779 0.689142 0.200550
H6    H     H_    0.883870 0.309368 0.610193 0.280612
H7    H     H_    0.144944 0.416196 0.686793 0.199924
H8    H     H_    0.128879 0.298769 0.605721 0.234685
H9    H     H_    0.619750 0.327754 0.899406 0.160612
H10   H     H_    0.624595 0.326843 0.754092 0.159747
H11   H     H_    0.424032 0.691670 0.883686 0.159714
H12   H     H_    0.263947 0.599145 0.099772 0.184179
H13   H     H_    0.278842 0.116541 0.467654 0.199489
N1    N     N_2   0.516966 0.500660 0.984588 -0.130995
N2    N     N_2   0.475824 0.597364 0.015510 -0.154410
N3    N     N_R   0.142860 0.499130 0.500540 -0.098670
N4    N     N_R   0.857210 0.499170 0.500530 -0.086426
O1    O     O_R   0.614690 0.316790 0.499990 -0.572518
O2    O     O_R   0.385350 0.316760 0.500000 -0.623216
O3    O     O_R   0.627460 0.498860 0.616130 -0.625434
O4    O     O_R   0.398120 0.498820 0.616130 -0.611339
O5    O     O_R   0.614650 0.683240 0.500000 -0.636484
O6    O     O_R   0.385310 0.683210 0.500010 -0.619965
O7    O     O_R   0.601880 0.501180 0.383870 -0.598170
O8    O     O_R   0.372540 0.501140 0.383870 -0.601333
Zn1   Zn    Zn3+2 0.653130 0.500020 0.499990 0.973923
Zn2   Zn    Zn3+2 0.346870 0.499980 0.500010 0.955771
N5    N     N_2   0.723275 0.453171 0.258499 -0.288106
H14   H     H_    0.813514 0.490838 0.242099 0.256252
C31   C     C_3   0.727196 0.318026 0.263760 -0.659715
H15   H     H_    0.728961 0.278525 0.203394 0.240876
H16   H     H_    0.637340 0.281991 0.293310 0.234911
H17   H     H_    0.820494 0.286763 0.299641 0.252387
N6    N     N_2   0.859597 0.866149 0.489084 -0.233456
H18   H     H_    0.829961 0.794029 0.452356 0.251976
C32   C     C_3   0.982783 0.836364 0.537655 -0.728274
H19   H     H_    0.060795 0.798392 0.499791 0.227904
H20   H     H_    0.962023 0.764877 0.583889 0.209653
H21   H     H_    0.024033 0.921444 0.566719 0.266376
N7    N     N_2   0.733333 0.106688 0.616247 -0.327787
H22   H     H_    0.638409 0.090609 0.636850 0.194691
C33   C     C_3   0.842394 0.078160 0.676060 -0.818956
H23   H     H_    0.829225 0.136087 0.728947 0.245391
H24   H     H_    0.943353 0.099191 0.653499 0.274821
H25   H     H_    0.839966 0.978093 0.694651 0.232941
Cl1   Cl    Cl    0.884678 0.140053 0.487585 -0.642189
Cl2   Cl    Cl    0.758667 0.554539 0.092822 -0.642622
N8    N     N_2   0.226151 0.528036 0.246861 -0.295671
H26   H     H_    0.154340 0.592899 0.224781 0.232554
C34   C     C_3   0.174039 0.401917 0.244212 -0.710197
H27   H     H_    0.075030 0.398238 0.272138 0.227775
H28   H     H_    0.246195 0.336009 0.277293 0.247320
H29   H     H_    0.157678 0.372001 0.181588 0.245231
N9    N     N_2   0.418244 0.716334 0.727401 -0.313602
H30   H     H_    0.459882 0.799156 0.747159 0.221021
C35   C     C_3   0.271372 0.724863 0.716276 -0.760726
H31   H     H_    0.242413 0.803474 0.674340 0.236260
H32   H     H_    0.229049 0.637571 0.690832 0.258142
H33   H     H_    0.226359 0.742066 0.773847 0.229896

loop_
_geom_bond_atom_site_label_1
_geom_bond_atom_site_label_2
_ccdc_geom_bond_type
C32   H20   S    
C18   C21   A    
C19   C20   A    
C19   N3    A    
C7    C8    A    
C22   H5    S    
C26   C27   A    
C31   H17   S    
C18   C24   S    
C28   C29   A    
C8    H12   S    
C33   H25   S    
N8    C34   S    
C6    C25   S    
N5    C31   S    
C15   C16   S    
C28   H11   S    
O2    Zn2   S    
C31   H16   S    
C16   C17   S    
C17   Cl1   S    
C24   H8    S    
C11   H13   S    
N7    H22   S    
O4    Zn2   S    
C9    C10   A    
C20   H4    S    
C32   H19   S    
C17   N7    S    
C13   C14   A    
C34   H29   S    
C18   N3    A    
C23   O6    A    
O7    Zn1   S    
N9    H30   S    
C33   H24   S    
C19   H3    S    
O6    Zn2   S    
N8    H26   S    
C33   H23   S    
N5    H14   S    
C5    N2    S    
O3    Zn1   S    
C12   C26   S    
C31   H15   S    
N6    C32   S    
C14   C23   S    
C29   C30   A    
C24   H7    S    
C2    C26   A    
C25   O7    A    
C7    N8    S    
C34   H28   S    
O8    Zn2   S    
C29   N1    S    
C22   C24   S    
C4    C6    A    
C3    C4    A    
C3    Cl2   S    
C12   O4    A    
N1    N2    D    
C9    C17   S    
O1    Zn1   S    
C27   N9    S    
C35   H31   S    
C13   H1    S    
C1    C10   S    
C25   O8    A    
N9    C35   S    
C34   H27   S    
C3    C5    A    
C35   H33   S    
C5    C8    A    
C12   O3    A    
C1    O1    A    
C6    C7    A    
C16   H2    S    
C22   H6    S    
C2    C30   A    
N6    H18   S    
C9    C15   A    
N3    Zn2   S    
C11   C13   A    
C23   O5    A    
C30   H9    S    
C35   H32   S    
C20   N4    A    
C10   C11   A    
C32   H21   S    
C2    H10   S    
C4    N5    S    
C27   C28   A    
C14   C15   A    
N7    C33   S    
C16   N6    S    
C21   C22   S    
C1    O2    A    
O5    Zn1   S    
N4    Zn1   S    
C21   N4    A    
