data_mof_unit_29959.cif
_audit_creation_date              2012-12-11T15:23:59-0500
_audit_creation_method            fapswitch 2.2
_symmetry_space_group_name_H-M    P1
_symmetry_Int_Tables_number       1
_space_group_crystal_system       triclinic
_cell_length_a                    8.433277
_cell_length_b                    14.765915
_cell_length_c                    19.011559
_cell_angle_alpha                 94.432434
_cell_angle_beta                  93.750776
_cell_angle_gamma                 91.075444
_cell_volume                      2354.60361637

loop_
_atom_site_label
_atom_site_type_symbol
_atom_type_description
_atom_site_fract_x
_atom_site_fract_y
_atom_site_fract_z
_atom_type_partial_charge
Ba1   Ba    Ba6+2 0.150350 0.545800 0.464500 1.724375
Ba2   Ba    Ba6+2 0.659830 0.454190 0.535450 1.774432
C1    C     C_3   0.318004 0.763128 0.187354 -0.220251
C2    C     C_R   0.829256 0.804152 0.495709 -0.020493
C3    C     C_R   0.691651 0.773041 0.454117 -0.267415
C4    C     C_3   0.862537 0.791503 0.292404 0.352109
C5    C     C_R   0.575377 0.832721 0.430915 0.034143
C6    C     C_R   0.606769 0.926529 0.439639 -0.123896
C7    C     C_R   0.760277 0.961745 0.465634 -0.042226
C8    C     C_R   0.867344 0.902929 0.501001 -0.017843
C9    C     C_R   0.943658 0.097934 0.493575 0.000006
C10   C     C_R   0.045345 0.041043 0.532506 0.002485
C11   C     C_R   0.990177 0.194268 0.493208 0.007349
C12   C     C_3   0.350571 0.738394 0.263244 0.264963
C13   C     C_R   0.141965 0.223410 0.520991 -0.248112
C14   C     C_R   0.243710 0.166340 0.555623 0.015521
C15   C     C_R   0.193854 0.077642 0.563237 -0.159815
C16   C     C_3   0.863358 0.881632 0.259135 -0.278590
C17   C     C_R   0.805153 0.054924 0.456842 -0.008289
C18   C     C_R   0.599782 0.541771 0.295960 -0.271054
C19   C     C_R   0.464763 0.486575 0.276359 -0.009291
C20   C     C_R   0.415941 0.471116 0.204358 -0.085155
C21   C     C_R   0.507169 0.504251 0.151713 -0.012049
C22   C     C_R   0.654630 0.550406 0.172001 -0.118468
C23   C     C_3   0.554595 0.737670 0.655095 0.237085
C24   C     C_R   0.700133 0.569941 0.244869 0.016714
C25   C     C_R   0.436600 0.572736 0.037830 -0.096732
C26   C     C_R   0.384548 0.567850 0.966400 -0.042061
C27   C     C_R   0.332102 0.484890 0.931325 0.067695
C28   C     C_3   0.746741 0.314739 0.326570 0.231014
C29   C     C_R   0.331526 0.406961 0.969057 -0.091521
C30   C     C_R   0.392662 0.409855 0.039788 -0.022438
C31   C     C_R   0.444396 0.494329 0.075648 0.018214
C32   C     C_R   0.136056 0.438804 0.829791 -0.110574
C33   C     C_R   0.090848 0.431700 0.757486 -0.008936
C34   C     C_3   0.542273 0.839184 0.681002 -0.187706
C35   C     C_R   0.342831 0.504136 0.733540 -0.007354
C36   C     C_R   0.385461 0.512871 0.806323 -0.089944
C37   C     C_R   0.284069 0.478553 0.854698 -0.010503
C38   C     C_R   0.197164 0.461336 0.709642 -0.310616
C39   C     C_3   0.668117 0.259794 0.262085 -0.343287
C40   C     C_3   0.971949 0.691199 0.688980 0.180201
C41   C     C_3   0.931916 0.726624 0.766169 -0.326566
C42   C     C_3   0.211012 0.270757 0.311605 0.203130
C43   C     C_3   0.232639 0.171649 0.283440 -0.228319
C44   C     C_2   0.144243 0.691278 0.693119 0.664946
C45   C     C_3   0.993711 0.218510 0.728826 0.165575
C46   C     C_2   0.779450 0.690087 0.790099 0.462798
C47   C     C_2   0.941393 0.828688 0.778357 0.599507
C48   C     C_2   0.083800 0.116461 0.288598 0.428169
C49   C     C_2   0.274340 0.165931 0.207532 0.495715
C50   C     C_2   0.438228 0.831960 0.168741 0.505061
C51   C     C_2   0.505038 0.720641 0.578212 0.511277
C52   C     C_2   0.628788 0.900806 0.636808 0.451147
C53   C     C_2   0.822099 0.078661 0.715195 0.560868
C54   C     C_2   0.986294 0.117955 0.828210 0.581871
C55   C     C_2   0.567540 0.213739 0.844910 0.543772
C56   C     C_3   0.975125 0.120764 0.748904 -0.222476
C57   C     C_2   0.470254 0.987686 0.433578 0.596055
C58   C     C_2   0.096894 0.904051 0.594028 0.515100
C59   C     C_2   0.734851 0.094382 0.393208 0.489127
C60   C     C_2   0.412475 0.322031 0.071051 0.486185
C61   C     C_2   0.762513 0.571449 0.116268 0.513379
C62   C     C_2   0.153900 0.450913 0.633965 0.540621
C63   C     C_2   0.837280 0.392223 0.303686 0.414050
C64   C     C_3   0.436373 0.253950 0.729155 0.387650
C65   C     C_3   0.413262 0.222406 0.802656 -0.237786
C66   C     C_R   0.003237 0.947636 0.539341 -0.055517
H1    H     H_    0.756200 0.240120 0.222995 0.116444
H2    H     H_    0.276623 0.036797 0.591986 0.122413
H3    H     H_    0.183327 0.291464 0.513889 0.044145
H4    H     H_    0.495494 0.547644 0.825476 0.138312
H5    H     H_    0.475346 0.638144 0.063251 0.130943
H6    H     H_    0.306688 0.432737 0.189278 0.059219
H7    H     H_    0.055892 0.413883 0.866567 0.094828
H8    H     H_    0.987596 0.904400 0.253167 0.169832
H9    H     H_    0.652980 0.339853 0.360648 0.087741
H10   H     H_    0.270282 0.680319 0.271627 0.098760
H11   H     H_    0.611084 0.197192 0.277735 0.201463
H12   H     H_    0.021349 0.700839 0.805339 0.091831
H13   H     H_    0.574557 0.300663 0.237303 0.127282
H14   H     H_    0.205038 0.653720 0.732414 -0.147298
H15   H     H_    0.921461 0.621817 0.674981 0.064492
H16   H     H_    0.679838 0.733738 0.798898 0.023843
H17   H     H_    0.860500 0.870307 0.749444 0.029805
H18   H     H_    0.149744 0.307913 0.269265 -0.012728
H19   H     H_    0.139341 0.272630 0.358318 0.062077
H20   H     H_    0.976078 0.130919 0.257460 -0.009350
H21   H     H_    0.329909 0.142261 0.316244 0.211205
H22   H     H_    0.200940 0.198815 0.168410 -0.033726
H23   H     H_    0.320983 0.700517 0.151280 0.079020
H24   H     H_    0.448400 0.898223 0.197884 0.076631
H25   H     H_    0.676504 0.717783 0.661821 -0.038510
H26   H     H_    0.554140 0.664525 0.547372 -0.032084
H27   H     H_    0.755537 0.895715 0.633565 0.032930
H28   H     H_    0.416508 0.859490 0.681108 0.198369
H29   H     H_    0.197353 0.791495 0.180755 0.132089
H30   H     H_    0.803905 0.933156 0.293121 0.057614
H31   H     H_    0.007562 0.217286 0.670871 -0.013657
H32   H     H_    0.801268 0.075850 0.658121 0.049823
H33   H     H_    0.903889 0.155593 0.860031 0.043807
H34   H     H_    0.475929 0.717284 0.270727 -0.070012
H35   H     H_    0.323981 0.285050 0.710545 -0.147638
H36   H     H_    0.531843 0.307163 0.732353 0.105769
H37   H     H_    0.608724 0.147156 0.856743 0.062815
H38   H     H_    0.926884 0.800959 0.345493 0.053694
H39   H     H_    0.666077 0.700820 0.446083 0.036307
H40   H     H_    0.449463 0.036678 0.477022 0.050585
H41   H     H_    0.205499 0.872004 0.580982 0.133596
H42   H     H_    0.791964 0.084927 0.344123 0.035604
H43   H     H_    0.384517 0.629113 0.938509 0.096596
H44   H     H_    0.736591 0.771158 0.297792 -0.089287
H45   H     H_    0.590786 0.850881 0.736518 0.059065
H46   H     H_    0.292161 0.342433 0.942023 0.057440
H47   H     H_    0.329629 0.265939 0.055041 0.017415
H48   H     H_    0.764913 0.525784 0.068808 0.012261
H49   H     H_    0.198936 0.395297 0.602048 -0.036322
H50   H     H_    0.635008 0.555805 0.351541 0.084775
H51   H     H_    0.798600 0.874221 0.206203 0.156094
H52   H     H_    0.868236 0.395618 0.249367 -0.039559
H53   H     H_    0.102423 0.248112 0.757896 -0.017397
H54   H     H_    0.074315 0.081386 0.727052 0.096082
H55   H     H_    0.340758 0.272467 0.831943 0.036891
H56   H     H_    0.347366 0.156135 0.797646 0.113546
O1    O     O_2   0.108370 0.727470 0.525290 -0.400858
O2    O     O_2   0.753927 0.434281 0.751232 -0.411515
O3    O     O_3   0.862066 0.269851 0.747516 -0.579859
O4    O     O_3   0.865330 0.611210 0.531230 -0.452923
O5    O     O_3   0.438280 0.453360 0.418700 -0.469504
O6    O     O_2   0.627420 0.543410 0.667830 -0.451083
O7    O     O_3   0.466600 0.685894 0.698600 -0.616478
O8    O     O_2   0.579930 0.167736 0.557287 -0.445510
O9    O     O_3   0.474507 0.179911 0.682634 -0.574104
O10   O     O_3   0.346360 0.671710 0.401620 -0.483848
O11   O     O_2   0.241422 0.832284 0.439229 -0.433162
O12   O     O_3   0.360299 0.309099 0.334623 -0.638004
O13   O     O_3   0.925016 0.751603 0.637698 -0.664192
O14   O     O_3   0.319634 0.813396 0.309930 -0.568145
O15   O     O_2   0.182890 0.456530 0.332150 -0.432712
O16   O     O_3   0.933230 0.625130 0.368420 -0.449786
O17   O     O_2   0.033268 0.560471 0.246295 -0.468216
O18   O     O_2   0.215306 0.743186 0.659430 -0.546446
O19   O     O_2   0.769318 0.611050 0.803862 -0.557509
O20   O     O_2   0.041346 0.865655 0.820998 -0.495491
O21   O     O_2   0.083111 0.054901 0.327866 -0.559899
O22   O     O_2   0.388854 0.123136 0.188957 -0.541459
O23   O     O_3   0.939834 0.727365 0.249200 -0.557209
O24   O     O_2   0.524874 0.814153 0.120848 -0.553688
O25   O     O_2   0.409916 0.769064 0.550119 -0.584109
O26   O     O_2   0.557169 0.957800 0.605022 -0.587865
O27   O     O_2   0.721017 0.047873 0.750507 -0.589366
O28   O     O_2   0.088920 0.074036 0.857321 -0.530151
O29   O     O_2   0.646693 0.281357 0.866849 -0.568872
O30   O     O_2   0.385397 0.987013 0.379038 -0.526331
O31   O     O_2   0.067178 0.917307 0.655798 -0.592925
O32   O     O_2   0.610950 0.135465 0.394135 -0.576276
O33   O     O_2   0.527367 0.309371 0.111020 -0.586164
O34   O     O_2   0.701930 0.272470 0.474700 -0.416155
O35   O     O_2   0.843547 0.641178 0.120764 -0.527656
O36   O     O_2   0.068477 0.505780 0.606714 -0.557108
O37   O     O_2   0.883150 0.451626 0.348277 -0.522209
O38   O     O_3   0.944970 0.388780 0.468720 -0.421584
O39   O     O_3   0.463940 0.328280 0.598320 -0.509649
O40   O     O_3   0.854945 0.260530 0.361302 -0.669264
O41   O     O_3   0.372010 0.546630 0.581240 -0.476534
O42   O     O_3   0.877070 0.374860 0.631520 -0.474913
P1    P     P_3+3 0.937730 0.712710 0.546710 1.036538
P2    P     P_3+3 0.357970 0.428340 0.344000 0.995606
P3    P     P_3+3 0.899850 0.619492 0.276523 1.054943
P4    P     P_3+3 0.872570 0.287280 0.453240 1.043498
P5    P     P_3+3 0.895506 0.380238 0.723820 1.032575
P6    P     P_3+3 0.373298 0.787456 0.396412 1.064909
P7    P     P_3+3 0.450153 0.569713 0.670676 0.993956
P8    P     P_3+3 0.439790 0.210160 0.595631 1.013790

loop_
_geom_bond_atom_site_label_1
_geom_bond_atom_site_label_2
_ccdc_geom_bond_type
C42   O12   S    
C55   H37   S    
C23   H25   S    
O16   P3    S    
C33   P5    S    
O40   P4    S    
Ba1   O4    S    
C61   O35   D    
C65   H56   S    
Ba2   O38   S    
C18   H50   S    
C5    C6    A    
C44   O18   D    
C25   C31   A    
C10   C66   A    
C9    C17   A    
C19   P2    S    
C43   C49   S    
C26   C27   A    
O1    P1    D    
C23   C51   S    
C54   H33   S    
C32   C33   A    
C35   C38   A    
Ba1   O5    S    
C49   H22   S    
C36   C37   A    
C12   H34   S    
C34   H45   S    
O41   P7    S    
C13   C14   A    
C47   O20   D    
Ba2   O5    S    
C45   H31   S    
C1    H23   S    
Ba1   Ba2   S    
C40   C44   S    
C34   H28   S    
C58   H41   S    
C44   H14   S    
C28   H9    S    
C7    C17   A    
C12   O14   S    
C24   P3    S    
C6    C7    A    
C21   C31   S    
C53   H32   S    
O4    P1    S    
C21   C22   A    
C28   C39   S    
O2    P5    D    
C28   O40   S    
C54   O28   D    
C42   H19   S    
C43   H21   S    
C41   C46   S    
Ba2   O42   S    
C29   H46   S    
Ba1   O15   S    
C48   H20   S    
C32   H7    S    
C64   C65   S    
O42   P5    S    
C50   O24   D    
O10   P6    S    
C5    P6    S    
C40   O13   S    
C51   O25   D    
C27   C37   S    
C55   C65   S    
C42   H18   S    
C59   H42   S    
C7    C8    A    
C57   O30   D    
C26   H43   S    
C4    C16   S    
C36   H4    S    
C56   H54   S    
O14   P6    S    
C32   C37   A    
C47   H17   S    
C34   C52   S    
C52   O26   D    
C3    C5    A    
C14   C15   A    
O12   P2    S    
C49   O22   D    
C41   H12   S    
C55   O29   D    
O7    P7    S    
C62   H49   S    
C46   H16   S    
C46   O19   D    
C10   C15   A    
C35   C36   A    
C64   H36   S    
C64   O9    S    
C1    H29   S    
C29   C30   A    
O38   P4    S    
Ba1   O41   S    
Ba2   O34   S    
O9    P8    S    
C39   H13   S    
C62   O36   D    
O17   P3    D    
C4    H38   S    
C60   O33   D    
O8    P8    D    
O11   P6    D    
C45   O3    S    
Ba1   O16   S    
Ba2   O41   S    
C52   H27   S    
C1    C12   S    
Ba2   P4    S    
C61   H48   S    
C48   O21   D    
C11   P4    S    
Ba1   O38   S    
C22   C61   S    
C11   C13   A    
C50   H24   S    
C40   C41   S    
C20   H6    S    
C2    C8    A    
Ba1   O10   S    
C23   O7    S    
C59   O32   D    
O13   P1    S    
C42   C43   S    
C39   H1    S    
C3    H39   S    
C14   P8    S    
C16   H8    S    
O5    P2    S    
C51   H26   S    
C4    H44   S    
C64   H35   S    
C41   C47   S    
C40   H15   S    
C22   C24   A    
C2    C3    A    
C65   H55   S    
Ba2   O39   S    
C39   H11   S    
C1    C50   S    
C53   O27   D    
C8    C66   A    
C13   H3    S    
C57   H40   S    
Ba1   P2    S    
C2    P1    S    
Ba1   O1    S    
C30   C31   A    
C33   C38   A    
C58   O31   D    
C30   C60   S    
C60   H47   S    
C6    C57   S    
C25   H5    S    
C45   C56   S    
O34   P4    D    
C4    O23   S    
C9    C11   A    
C18   C24   A    
C43   C48   S    
C17   C59   S    
C38   C62   S    
Ba2   O6    S    
C63   H52   S    
C54   C56   S    
C12   H10   S    
O15   P2    D    
O6    P7    D    
C28   C63   S    
C45   H53   S    
C23   C34   S    
C35   P7    S    
C15   H2    S    
C18   C19   A    
C58   C66   S    
C27   C29   A    
C53   C56   S    
C63   O37   D    
C25   C26   A    
Ba1   P1    S    
C20   C21   A    
C16   H30   S    
C19   C20   A    
O39   P8    S    
O3    P5    S    
C16   H51   S    
O23   P3    S    
C9    C10   A    
Ba2   O4    S    
