data_mof_unit_19902.cif
_audit_creation_date              2012-12-11T16:25:09-0500
_audit_creation_method            fapswitch 2.2
_symmetry_space_group_name_H-M    P1
_symmetry_Int_Tables_number       1
_space_group_crystal_system       triclinic
_cell_length_a                    22.700047
_cell_length_b                    30.729266
_cell_length_c                    19.235093
_cell_angle_alpha                 89.999529
_cell_angle_beta                  127.561171
_cell_angle_gamma                 89.995483
_cell_volume                      10636.131724

loop_
_atom_site_label
_atom_site_type_symbol
_atom_type_description
_atom_site_fract_x
_atom_site_fract_y
_atom_site_fract_z
_atom_type_partial_charge
C1    C     C_R   0.952620 0.620321 0.071023 0.616990
C2    C     C_R   0.019833 0.483571 0.366615 -0.304428
C3    C     C_R   0.354172 0.461127 0.413512 -0.388689
C4    C     C_R   0.877665 0.039273 0.325136 -0.389956
C5    C     C_R   0.145913 0.961111 0.586440 -0.389667
C6    C     C_R   0.184230 0.028088 0.558405 -0.330037
C7    C     C_R   0.869400 0.968686 0.263967 -0.316768
C8    C     C_R   0.305255 0.496225 0.382960 -0.004027
C9    C     C_R   0.664286 0.503085 0.724640 -0.002731
C10   C     C_R   0.835723 0.003079 0.275502 -0.002329
C11   C     C_R   0.194777 0.996233 0.617010 -0.003923
C12   C     C_R   0.432543 0.494294 0.557485 -0.206931
C13   C     C_R   0.479464 0.981734 0.632209 -0.306124
C14   C     C_R   0.510438 0.502457 0.632559 -0.207340
C15   C     C_R   0.989557 0.002476 0.367483 -0.206844
C16   C     C_R   0.067476 0.994310 0.442494 -0.207155
C17   C     C_R   0.789313 0.537404 0.792934 -0.135370
C18   C     C_R   0.203410 0.462960 0.238880 -0.139718
C19   C     C_R   0.203516 0.535542 0.241778 -0.145730
C20   C     C_R   0.787095 0.464708 0.788050 -0.140760
C21   C     C_R   0.296493 0.035545 0.758206 -0.146332
C22   C     C_R   0.712916 0.964707 0.212050 -0.141860
C23   C     C_R   0.710686 0.037403 0.207123 -0.134967
C24   C     C_R   0.604016 0.013367 0.436090 -0.288517
C25   C     C_R   0.296608 0.962964 0.761111 -0.140253
C26   C     C_R   0.990471 0.464158 0.199895 -0.134045
C27   C     C_R   0.960868 0.535070 0.758951 -0.125570
C28   C     C_R   0.967155 0.462627 0.764341 -0.045334
C29   C     C_R   0.991344 0.536691 0.200451 -0.167367
C30   C     C_R   0.532816 0.962571 0.235545 -0.045633
C31   C     C_R   0.507897 0.036633 0.798546 -0.156297
C32   C     C_R   0.508372 0.964029 0.798917 -0.139116
C33   C     C_R   0.538970 0.035016 0.241040 -0.123354
C34   C     C_R   0.901594 0.644545 0.995566 -0.084894
C35   C     C_R   0.893699 0.512437 0.490879 0.139737
C36   C     C_R   0.108193 0.360448 0.999768 -0.047495
C37   C     C_R   0.138649 0.618872 0.004614 -0.095755
C38   C     C_R   0.867676 0.374542 0.996692 -0.028615
C39   C     C_R   0.361298 0.118839 0.995335 -0.096231
C40   C     C_R   0.632522 0.874705 0.003320 -0.030263
C41   C     C_R   0.598284 0.144552 0.004348 -0.084733
C42   C     C_R   0.392050 0.860329 0.000251 -0.048992
C43   C     C_R   0.743364 0.501646 0.764865 0.137625
C44   C     C_R   0.243193 0.498675 0.289657 0.131219
C45   C     C_R   0.256829 0.998680 0.710319 0.131117
C46   C     C_R   0.016525 0.479913 0.434739 0.136323
C47   C     C_R   0.756645 0.001642 0.235253 0.137478
C48   C     C_R   0.968462 0.500597 0.220080 0.163177
C49   C     C_R   0.957899 0.498212 0.716708 0.047303
C50   C     C_R   0.541825 0.998095 0.283128 0.046265
C51   C     C_R   0.529728 0.000390 0.777911 0.165288
C52   C     C_R   0.016424 0.477272 0.650824 0.563282
C53   C     C_R   0.895239 0.515143 0.273481 0.603398
C54   C     C_R   0.603404 0.014051 0.725246 0.591583
C55   C     C_R   0.484220 0.975666 0.349322 0.563535
C56   C     C_R   0.956463 0.496663 0.642272 -0.089716
C57   C     C_R   0.483912 0.977060 0.565076 0.136095
C58   C     C_R   0.959910 0.500259 0.287128 -0.113885
C59   C     C_R   0.538409 0.999596 0.711037 -0.107708
C60   C     C_R   0.543376 0.996180 0.357634 -0.090737
C61   C     C_3   0.961353 0.655096 0.183265 -0.236252
C62   C     C_3   0.933758 0.357699 0.822097 -0.363849
C63   C     C_3   0.091524 0.604603 0.824587 -0.297358
C64   C     C_3   0.048913 0.360643 0.185005 -0.333614
C65   C     C_3   0.408277 0.104416 0.175223 -0.295140
C66   C     C_3   0.451439 0.860407 0.815385 -0.335223
C67   C     C_3   0.537944 0.155533 0.816500 -0.230652
C68   C     C_R   0.606750 0.010681 0.509585 0.134448
C69   C     C_3   0.566467 0.857647 0.177749 -0.369437
C70   C     C_3   0.857678 0.387846 0.200833 -0.160486
C71   C     C_3   0.057931 0.724432 0.846018 -0.225794
C72   C     C_3   0.093290 0.326016 0.788690 -0.133319
C73   C     C_3   0.030734 0.715841 0.037282 -0.101682
C74   C     C_3   0.408121 0.825480 0.211867 -0.131727
C75   C     C_3   0.469353 0.215905 0.962897 -0.099451
C76   C     C_3   0.643737 0.888842 0.799883 -0.179275
C77   C     C_3   0.442098 0.224203 0.154267 -0.219817
C78   C     C_3   0.390154 0.546610 0.652523 -0.229782
C79   C     C_R   0.954298 0.494549 0.497950 -0.041484
C80   C     C_3   0.486832 0.442028 0.736002 -0.218660
C81   C     C_3   0.500620 0.570294 0.495543 -0.240346
C82   C     C_3   0.509299 0.435026 0.491968 -0.241927
C83   C     C_3   0.999425 0.070203 0.504678 -0.239888
C84   C     C_3   0.990849 0.934922 0.508024 -0.247505
C85   C     C_3   0.109675 0.046726 0.347397 -0.232552
C86   C     C_3   0.013057 0.942148 0.263798 -0.226250
C87   C     C_3   0.127161 0.489952 0.784738 -0.106079
C88   C     C_3   0.839115 0.569737 0.170633 -0.145739
C89   C     C_3   0.657902 0.071730 0.820493 -0.126264
C90   C     C_R   0.953963 0.495864 0.425441 -0.047446
C91   C     C_3   0.372842 0.988616 0.216404 -0.107087
C92   C     C_3   0.753879 0.588692 0.264869 -0.252350
C93   C     C_3   0.128537 0.391269 0.645694 -0.174701
C94   C     C_3   0.373676 0.887471 0.355848 -0.183666
C95   C     C_3   0.788245 0.010266 0.782550 -0.172904
C96   C     C_R   0.546679 0.992938 0.574811 -0.044631
C97   C     C_R   0.051369 0.382799 0.926836 0.683560
C98   C     C_R   0.546735 0.991777 0.502598 -0.043250
C99   C     C_R   0.015595 0.475693 0.577863 -0.230275
C100  C     C_R   0.892133 0.513636 0.344335 -0.239790
C101  C     C_R   0.607951 0.011043 0.655721 -0.238782
C102  C     C_R   0.485668 0.972943 0.422597 -0.229599
C103  C     C_R   0.831897 0.528705 0.411238 -0.398926
C104  C     C_R   0.075612 0.460343 0.511826 -0.387389
C105  C     C_R   0.425652 0.956819 0.488367 -0.389119
C106  C     C_R   0.668406 0.026876 0.589531 -0.383142
C107  C     C_R   0.830455 0.529977 0.337510 0.672206
C108  C     C_R   0.071797 0.604098 0.929051 0.659797
C109  C     C_R   0.074453 0.456357 0.582637 0.642944
C110  C     C_R   0.427337 0.952816 0.417899 0.643352
C111  C     C_R   0.670856 0.025751 0.663692 0.641414
C112  C     C_R   0.709086 0.300415 0.925173 -0.145558
C113  C     C_R   0.312595 0.659104 0.047620 -0.182050
C114  C     C_R   0.155079 0.242310 0.048510 -0.175027
C115  C     C_R   0.778520 0.740111 0.929197 -0.169826
C116  C     C_R   0.344630 0.742253 0.950849 -0.176544
C117  C     C_R   0.721436 0.240016 0.070546 -0.168496
C118  C     C_R   0.790920 0.800460 0.074572 -0.147062
C119  C     C_R   0.935711 0.388175 0.070611 0.668299
C120  C     C_R   0.187262 0.159229 0.951904 -0.182235
C121  C     C_R   0.762242 0.323318 0.926283 -0.250717
C122  C     C_R   0.263794 0.633602 0.050625 -0.269883
C123  C     C_R   0.136942 0.284684 0.053577 -0.258316
C124  C     C_R   0.804023 0.699364 0.928934 -0.252501
C125  C     C_R   0.362952 0.784620 0.946018 -0.259292
C126  C     C_R   0.695888 0.199312 0.070910 -0.249892
C127  C     C_R   0.737846 0.823400 0.073567 -0.253478
C128  C     C_R   0.236100 0.133664 0.949071 -0.270586
C129  C     C_R   0.809324 0.352557 0.994446 0.014549
C130  C     C_R   0.428155 0.104076 0.070914 0.659774
C131  C     C_R   0.190251 0.647320 0.006922 0.012967
C132  C     C_R   0.128127 0.316221 0.995207 0.013054
C133  C     C_R   0.879897 0.689985 0.987416 -0.013385
C134  C     C_R   0.372175 0.816063 0.004771 0.013291
C135  C     C_R   0.619999 0.189978 0.012485 -0.014528
C136  C     C_R   0.690896 0.852743 0.005564 0.016069
C137  C     C_R   0.309701 0.147310 0.992976 0.014050
C138  C     C_R   0.798892 0.361909 0.058431 0.660397
C139  C     C_R   0.163629 0.686129 0.958361 0.647828
C140  C     C_R   0.132130 0.304933 0.927106 0.667021
C141  C     C_R   0.564445 0.888287 0.929389 0.670229
C142  C     C_R   0.931620 0.723620 0.037782 0.603342
C143  C     C_R   0.368416 0.804652 0.073016 0.666308
C144  C     C_R   0.568310 0.223626 0.962063 0.601928
C145  C     C_R   0.701412 0.862194 0.941683 0.663308
C146  C     C_R   0.336345 0.186101 0.041578 0.646463
C147  C     C_R   0.860976 0.390702 0.924991 -0.295396
C148  C     C_R   0.143900 0.604612 0.076549 -0.227565
C149  C     C_R   0.125838 0.382688 0.073581 -0.287219
C150  C     C_R   0.880793 0.619506 0.924652 -0.263836
C151  C     C_R   0.374307 0.882626 0.926438 -0.288062
C152  C     C_R   0.547309 0.120308 0.928889 0.616990
C153  C     C_R   0.619147 0.119517 0.075301 -0.262746
C154  C     C_R   0.639146 0.890794 0.075013 -0.296073
C155  C     C_R   0.356080 0.104596 0.923422 -0.227359
C156  C     C_R   0.744273 0.338453 0.055821 -0.389834
C157  C     C_R   0.212856 0.710770 0.953857 -0.400020
C158  C     C_R   0.146879 0.261738 0.920477 -0.391808
C159  C     C_R   0.905157 0.763851 0.041958 -0.361892
C160  C     C_R   0.353478 0.761463 0.079384 -0.393317
C161  C     C_R   0.594818 0.263811 0.957777 -0.356953
C162  C     C_R   0.755922 0.838662 0.944143 -0.398749
C163  C     C_R   0.448791 0.882727 0.073168 0.685564
C164  C     C_R   0.287083 0.210799 0.045920 -0.399479
C165  C     C_R   0.702439 0.306638 0.992041 0.110747
C166  C     C_R   0.286797 0.697545 0.999192 0.112611
C167  C     C_R   0.161990 0.231386 0.983422 0.107608
C168  C     C_R   0.828558 0.771401 0.989389 0.086822
C169  C     C_R   0.337956 0.731228 0.016088 0.107239
C170  C     C_R   0.671428 0.271307 0.010307 0.086739
C171  C     C_R   0.797602 0.806738 0.007744 0.113769
C172  C     C_R   0.213087 0.197654 0.000365 0.112245
C173  C     C_R   0.377627 0.526590 0.529648 0.654445
C174  C     C_R   0.895720 0.513877 0.563982 -0.288354
C175  C     C_R   0.554242 0.468685 0.693168 0.649196
C176  C     C_R   0.545433 0.538791 0.626689 0.631879
C177  C     C_R   0.418897 0.460482 0.499463 0.630107
C178  C     C_R   0.954563 0.038780 0.373458 0.631456
C179  C     C_R   0.081184 0.960468 0.500494 0.631204
C180  C     C_R   0.122349 0.026630 0.470335 0.654914
C181  C     C_R   0.945753 0.968722 0.306838 0.650721
C182  C     C_R   0.315753 0.528055 0.441576 -0.330134
C183  C     C_R   0.630603 0.468665 0.736091 -0.313530
C184  C     C_R   0.622336 0.539295 0.675058 -0.389541
H1    H     H_    0.900762 0.647454 0.140829 0.078028
H2    H     H_    0.079159 0.392048 0.202856 0.147435
H3    H     H_    0.851028 0.631024 0.857968 0.143987
H4    H     H_    0.339474 0.871065 0.859459 0.138355
H5    H     H_    0.648917 0.131042 0.141980 0.144252
H6    H     H_    0.681064 0.881427 0.142029 0.135042
H7    H     H_    0.311851 0.111196 0.855094 0.148908
H8    H     H_    0.773761 0.571194 0.785931 0.104330
H9    H     H_    0.211951 0.429565 0.260941 0.096621
H10   H     H_    0.213317 0.568420 0.266621 0.110239
H11   H     H_    0.766552 0.432056 0.768372 0.095373
H12   H     H_    0.286694 0.068424 0.733360 0.110458
H13   H     H_    0.052914 0.342060 0.138373 0.147716
H14   H     H_    0.733470 0.932059 0.231811 0.094903
H15   H     H_    0.726231 0.071193 0.214123 0.104567
H16   H     H_    0.288085 0.929570 0.739059 0.096577
H17   H     H_    0.990885 0.431706 0.220430 0.180280
H18   H     H_    0.944040 0.567326 0.731149 0.164108
H19   H     H_    0.960309 0.429037 0.744470 0.163002
H20   H     H_    0.990711 0.569716 0.217916 0.141502
H21   H     H_    0.539785 0.928966 0.255376 0.162835
H22   H     H_    0.508699 0.069667 0.781228 0.139273
H23   H     H_    0.507713 0.931530 0.778385 0.181126
H24   H     H_    0.076781 0.341094 0.245911 0.185410
H25   H     H_    0.555777 0.067249 0.268948 0.164731
H26   H     H_    0.140451 0.511807 0.749737 0.105438
H27   H     H_    0.179350 0.473214 0.837323 0.172709
H28   H     H_    0.108680 0.509250 0.816889 0.107929
H29   H     H_    0.878257 0.590358 0.229482 0.066315
H30   H     H_    0.783492 0.585117 0.133921 0.169274
H31   H     H_    0.854936 0.570012 0.126346 0.125102
H32   H     H_    0.616654 0.090200 0.759016 0.078292
H33   H     H_    0.712895 0.087223 0.851945 0.180433
H34   H     H_    0.644240 0.075195 0.866580 0.117736
H35   H     H_    0.364174 0.080531 0.129339 0.110694
H36   H     H_    0.358505 0.008967 0.252150 0.107851
H37   H     H_    0.321283 0.971900 0.162438 0.171049
H38   H     H_    0.391352 0.009442 0.186044 0.105791
H39   H     H_    0.850047 0.528005 0.560300 0.146820
H40   H     H_    0.069189 0.472532 0.374671 0.156069
H41   H     H_    0.429975 0.970735 0.623867 0.155691
H42   H     H_    0.649196 0.028235 0.439699 0.147122
H43   H     H_    0.784388 0.540259 0.406319 0.148256
H44   H     H_    0.123005 0.447892 0.517287 0.153267
H45   H     H_    0.378253 0.944206 0.482697 0.153366
H46   H     H_    0.382295 0.134764 0.175762 0.160505
H47   H     H_    0.714931 0.040621 0.594689 0.153703
H48   H     H_    0.805293 0.608839 0.298963 0.110330
H49   H     H_    0.727639 0.591695 0.298013 0.134791
H50   H     H_    0.713984 0.602132 0.197812 0.167447
H51   H     H_    0.139800 0.381812 0.599005 0.115485
H52   H     H_    0.073268 0.378728 0.622677 0.109545
H53   H     H_    0.171223 0.375417 0.709418 0.169738
H54   H     H_    0.361389 0.878471 0.401798 0.117769
H55   H     H_    0.429244 0.874792 0.380239 0.107669
H56   H     H_    0.331581 0.871340 0.292242 0.170148
H57   H     H_    0.439512 0.090526 0.242165 0.161088
H58   H     H_    0.808014 0.002681 0.743312 0.104041
H59   H     H_    0.768705 0.980089 0.794895 0.139379
H60   H     H_    0.836389 0.022847 0.847064 0.164148
H61   H     H_    0.677641 0.275095 0.876598 0.129795
H62   H     H_    0.370634 0.650035 0.085694 0.131174
H63   H     H_    0.169400 0.219084 0.099016 0.131013
H64   H     H_    0.719114 0.745868 0.888480 0.138793
H65   H     H_    0.329995 0.719125 0.900077 0.131076
H66   H     H_    0.780849 0.245738 0.111244 0.138742
H67   H     H_    0.822257 0.775068 0.123015 0.127553
H68   H     H_    0.420872 0.891701 0.797518 0.147597
H69   H     H_    0.129190 0.150221 0.913683 0.131486
H70   H     H_    0.447813 0.841748 0.862243 0.147712
H71   H     H_    0.423629 0.840816 0.754544 0.185420
H72   H     H_    0.599020 0.149335 0.860163 0.079482
H73   H     H_    0.968974 0.690855 0.188535 0.192089
H74   H     H_    0.527966 0.191099 0.808873 0.193907
H75   H     H_    0.515282 0.142816 0.750578 0.142328
H76   H     H_    0.597265 0.888625 0.193078 0.160913
H77   H     H_    0.562454 0.839424 0.124920 0.154975
H78   H     H_    0.599088 0.837259 0.237715 0.179560
H79   H     H_    0.769191 0.316464 0.876437 0.144589
H80   H     H_    0.283201 0.603408 0.087327 0.152505
H81   H     H_    0.132201 0.293121 0.104641 0.142971
H82   H     H_    0.763987 0.674235 0.887444 0.156272
H83   H     H_    0.367479 0.793132 0.894814 0.142842
H84   H     H_    0.985537 0.643204 0.250183 0.143859
H85   H     H_    0.735899 0.174173 0.112425 0.156360
H86   H     H_    0.730834 0.816489 0.123342 0.142856
H87   H     H_    0.216676 0.103485 0.912327 0.151819
H88   H     H_    0.876386 0.353706 0.222854 0.123182
H89   H     H_    0.810421 0.396315 0.201421 0.137691
H90   H     H_    0.904528 0.409328 0.249312 0.163170
H91   H     H_    0.068212 0.710504 0.800854 0.136709
H92   H     H_    0.076176 0.758915 0.861868 0.131672
H93   H     H_    0.996979 0.724034 0.810749 0.171828
H94   H     H_    0.042753 0.306314 0.763812 0.128130
H95   H     H_    0.902956 0.388674 0.806835 0.159868
H96   H     H_    0.130376 0.308597 0.778567 0.101249
H97   H     H_    0.074252 0.356216 0.748950 0.192061
H98   H     H_    0.017126 0.747004 0.000810 0.117084
H99   H     H_    0.006397 0.687910 0.990910 0.144774
H100  H     H_    0.092003 0.711904 0.080095 0.175596
H101  H     H_    0.458510 0.805749 0.236170 0.125975
H102  H     H_    0.371331 0.808022 0.222409 0.099865
H103  H     H_    0.427474 0.855619 0.251803 0.194162
H104  H     H_    0.483265 0.246996 0.999660 0.118328
H105  H     H_    0.493543 0.187871 0.009019 0.144558
H106  H     H_    0.937697 0.339418 0.874825 0.154873
H107  H     H_    0.408057 0.212138 0.920187 0.175366
H108  H     H_    0.625344 0.854750 0.777101 0.128431
H109  H     H_    0.691422 0.897721 0.800379 0.123307
H110  H     H_    0.596928 0.910343 0.751397 0.165331
H111  H     H_    0.431636 0.210208 0.199225 0.136768
H112  H     H_    0.424019 0.258721 0.138649 0.132245
H113  H     H_    0.503066 0.223715 0.189663 0.172769
H114  H     H_    0.736239 0.342944 0.105314 0.141614
H115  H     H_    0.196385 0.742283 0.922038 0.151438
H116  H     H_    0.157520 0.252991 0.874467 0.148558
H117  H     H_    0.901181 0.337363 0.762061 0.181155
H118  H     H_    0.943783 0.788335 0.088073 0.163102
H119  H     H_    0.343016 0.752660 0.125531 0.148607
H120  H     H_    0.556218 0.288309 0.911666 0.163770
H121  H     H_    0.764010 0.843182 0.894701 0.138605
H122  H     H_    0.303594 0.242299 0.077781 0.151659
H123  H     H_    0.445777 0.533528 0.705921 0.133723
H124  H     H_    0.345845 0.522183 0.631589 0.106248
H125  H     H_    0.379936 0.574822 0.679846 0.174643
H126  H     H_    0.430465 0.455021 0.684858 0.129855
H127  H     H_    0.519474 0.465030 0.792311 0.110475
H128  H     H_    0.135990 0.580934 0.870682 0.111412
H129  H     H_    0.479681 0.411694 0.761385 0.176052
H130  H     H_    0.475499 0.538972 0.460504 0.114803
H131  H     H_    0.556261 0.574673 0.511432 0.123535
H132  H     H_    0.464320 0.596788 0.449920 0.176917
H133  H     H_    0.538406 0.466951 0.513979 0.113984
H134  H     H_    0.472217 0.432940 0.419172 0.127993
H135  H     H_    0.552422 0.409481 0.517308 0.175408
H136  H     H_    0.024572 0.038868 0.539655 0.114046
H137  H     H_    0.943798 0.074559 0.488840 0.123812
H138  H     H_    0.035724 0.096683 0.550335 0.177239
H139  H     H_    0.117060 0.635033 0.823543 0.160932
H140  H     H_    0.961716 0.966844 0.486085 0.114686
H141  H     H_    0.027952 0.932795 0.580817 0.127260
H142  H     H_    0.947748 0.909365 0.482654 0.174597
H143  H     H_    0.054032 0.033666 0.294020 0.133069
H144  H     H_    0.153963 0.022297 0.368228 0.106063
H145  H     H_    0.119859 0.074959 0.320087 0.174530
H146  H     H_    0.069422 0.955152 0.314890 0.131533
H147  H     H_    0.980336 0.965161 0.207513 0.106965
H148  H     H_    0.020202 0.911836 0.238350 0.175355
H149  H     H_    0.276580 0.554569 0.419030 0.163712
H150  H     H_    0.060324 0.590511 0.757815 0.159830
H151  H     H_    0.663303 0.441159 0.777125 0.166449
H152  H     H_    0.648212 0.566827 0.668263 0.155842
H153  H     H_    0.345055 0.435548 0.369152 0.160927
H154  H     H_    0.851785 0.066784 0.331992 0.156292
H155  H     H_    0.155068 0.935511 0.630784 0.160574
H156  H     H_    0.223361 0.054621 0.580960 0.163835
H157  H     H_    0.836700 0.941195 0.222893 0.166237
H158  H     H_    0.819098 0.381329 0.857969 0.135281
H159  H     H_    0.188141 0.611208 0.144872 0.148792
H160  H     H_    0.160717 0.371123 0.140560 0.138382
N1    N     N_R   0.963040 0.582050 0.045950 -0.096481
N2    N     N_R   0.082060 0.582000 0.045840 -0.069433
N3    N     N_R   0.082060 0.418000 0.045840 -0.070027
N4    N     N_R   0.917940 0.582000 0.954160 -0.065769
N5    N     N_R   0.417940 0.918000 0.954160 -0.069968
N6    N     N_R   0.582060 0.082000 0.045840 -0.065734
N7    N     N_R   0.582060 0.918000 0.045840 -0.068547
N8    N     N_R   0.417940 0.082000 0.954160 -0.069533
N9    N     N_R   0.858490 0.522630 0.835610 -0.039860
N10   N     N_R   0.141510 0.477370 0.164390 -0.041542
N11   N     N_R   0.141510 0.522630 0.164390 -0.037893
N12   N     N_R   0.036960 0.417950 0.954050 -0.112719
N13   N     N_R   0.858490 0.477370 0.835610 -0.041965
N14   N     N_R   0.358490 0.022630 0.835610 -0.037987
N15   N     N_R   0.641510 0.977370 0.164390 -0.041931
N16   N     N_R   0.641510 0.022630 0.164390 -0.039922
N17   N     N_R   0.358490 0.977370 0.835610 -0.041471
N18   N     N_R   0.022480 0.477420 0.164500 -0.060411
N19   N     N_R   0.977520 0.522580 0.835500 -0.051113
N20   N     N_R   0.977520 0.477420 0.835500 -0.064027
N21   N     N_R   0.022480 0.522580 0.164500 -0.037861
N22   N     N_R   0.522480 0.977420 0.164500 -0.063878
N23   N     N_R   0.036960 0.582050 0.954050 -0.107731
N24   N     N_R   0.477520 0.022580 0.835500 -0.039351
N25   N     N_R   0.477520 0.977420 0.835500 -0.060124
N26   N     N_R   0.522480 0.022580 0.164500 -0.051243
N27   N     N_R   0.963040 0.417950 0.045950 -0.111206
N28   N     N_R   0.463040 0.082050 0.045950 -0.107801
N29   N     N_R   0.536960 0.917950 0.954050 -0.111125
N30   N     N_R   0.536960 0.082050 0.954050 -0.096069
N31   N     N_R   0.463040 0.917950 0.045950 -0.112643
N32   N     N_R   0.917940 0.418000 0.954160 -0.068686
Ni1   Ni    Ni4+2 0.051820 0.551870 0.104030 0.252973
Ni2   Ni    Ni4+2 0.948180 0.448130 0.895970 0.195596
Ni3   Ni    Ni4+2 0.948180 0.551870 0.895970 0.219508
Ni4   Ni    Ni4+2 0.051820 0.448130 0.104030 0.190664
Ni5   Ni    Ni4+2 0.551820 0.051870 0.104030 0.220047
Ni6   Ni    Ni4+2 0.448180 0.948130 0.895970 0.190707
Ni7   Ni    Ni4+2 0.448180 0.051870 0.895970 0.253180
Ni8   Ni    Ni4+2 0.551820 0.948130 0.104030 0.195230
O1    O     O_3   0.001014 0.636137 0.155805 -0.599196
O2    O     O_3   0.091873 0.699829 0.923647 -0.634563
O3    O     O_3   0.132783 0.337858 0.877718 -0.610655
O4    O     O_3   0.007419 0.716395 0.090485 -0.613883
O5    O     O_3   0.368107 0.837464 0.122829 -0.610274
O6    O     O_3   0.492496 0.216476 0.909521 -0.614711
O7    O     O_3   0.661297 0.896336 0.883082 -0.618431
O8    O     O_3   0.408157 0.199749 0.076468 -0.635454
O9    O     O_3   0.388993 0.561388 0.582340 -0.566620
O10   O     O_3   0.523180 0.431541 0.699462 -0.568457
O11   O     O_3   0.504173 0.573271 0.571244 -0.567473
O12   O     O_3   0.004217 0.365337 0.843417 -0.627153
O13   O     O_3   0.470024 0.427387 0.526036 -0.568290
O14   O     O_3   0.995821 0.073241 0.428948 -0.567213
O15   O     O_3   0.030104 0.927348 0.473909 -0.567832
O16   O     O_3   0.110924 0.061457 0.417667 -0.565851
O17   O     O_3   0.976818 0.931606 0.300447 -0.567694
O18   O     O_3   0.073647 0.458076 0.729385 -0.590837
O19   O     O_3   0.833298 0.526292 0.189928 -0.562828
O20   O     O_3   0.663818 0.027039 0.808227 -0.586624
O21   O     O_3   0.426963 0.956746 0.270433 -0.589456
O22   O     O_3   0.767489 0.544653 0.257832 -0.568015
O23   O     O_3   0.040966 0.613808 0.842766 -0.624381
O24   O     O_3   0.133987 0.436726 0.658469 -0.588767
O25   O     O_3   0.368383 0.932844 0.342085 -0.586977
O26   O     O_3   0.732458 0.042488 0.741507 -0.599455
O27   O     O_3   0.974146 0.366849 0.150643 -0.630633
O28   O     O_3   0.458895 0.113732 0.157188 -0.624247
O29   O     O_3   0.526070 0.866910 0.849428 -0.630015
O30   O     O_3   0.498692 0.136122 0.844113 -0.600939
O31   O     O_3   0.496059 0.865271 0.156581 -0.626499
O32   O     O_3   0.839098 0.395931 0.117287 -0.618173

loop_
_geom_bond_atom_site_label_1
_geom_bond_atom_site_label_2
_ccdc_geom_bond_type
C73   H98   S    
C105  C110  A    
C27   H18   S    
C87   H28   S    
C152  N30   A    
C27   N19   A    
C75   H105  S    
N17   Ni6   S    
C84   H140  S    
C21   N14   A    
C79   C99   A    
C92   O22   S    
C74   H102  S    
C103  H43   S    
C97   N12   A    
N14   N17   A    
C54   O20   S    
C5    C179  A    
C79   C90   A    
C134  C143  A    
C117  C170  A    
C113  C122  A    
C127  H86   S    
C75   H104  S    
C71   H91   S    
C36   C97   A    
C117  C126  A    
C21   C45   A    
C16   C179  A    
C106  C111  A    
C95   O26   S    
C55   C60   A    
C181  O17   S    
C22   C47   A    
C70   H89   S    
C80   O10   S    
N24   N25   A    
C158  C167  A    
C104  H44   S    
C151  H4    S    
C66   H68   S    
N23   Ni3   S    
C38   C129  S    
C86   H148  S    
C137  C146  A    
C127  C136  A    
C37   C108  A    
C3    C8    A    
C6    C11   A    
N26   Ni5   S    
C69   H77   S    
C62   O12   S    
C33   C50   A    
C98   C102  A    
C66   O29   S    
C56   C174  A    
C63   H150  S    
C17   C43   A    
C14   C175  A    
C18   C44   A    
C114  H63   S    
C53   C58   A    
C182  H149  S    
C65   H46   S    
C149  H160  S    
C71   H93   S    
N1    N4    A    
C64   O27   S    
C69   H78   S    
C30   N22   A    
C69   H76   S    
C38   C119  A    
C124  C133  A    
C73   H100  S    
C173  C182  A    
N3    Ni4   S    
C87   H26   S    
C101  C111  A    
C53   O19   S    
C19   C44   A    
C77   H113  S    
C115  H64   S    
C176  C184  A    
C84   H142  S    
C62   H117  S    
C119  N27   A    
N20   Ni2   S    
C117  H66   S    
C32   N25   A    
C42   C134  S    
C76   H109  S    
C9    C184  A    
C77   H112  S    
C13   H41   S    
C146  C164  A    
C118  C171  A    
C112  C165  A    
C72   H94   S    
C21   H12   S    
C2    C58   A    
C160  H119  S    
C68   C98   A    
C67   H74   S    
C6    H156  S    
C81   H130  S    
C139  C157  A    
N27   N32   A    
N15   N16   A    
C92   H48   S    
C103  C107  A    
C84   O15   S    
C64   H2    S    
C177  O13   S    
C123  C132  A    
C86   H146  S    
C54   C101  A    
C23   N16   A    
C143  C160  A    
C153  H5    S    
C67   H72   S    
C82   H134  S    
C63   O23   S    
C133  C142  A    
C36   C132  S    
C13   C57   A    
C116  H65   S    
C78   H123  S    
C72   O3    S    
C81   O11   S    
C120  H69   S    
C1    N1    A    
C140  C158  A    
C168  C171  S    
C93   H53   S    
C96   C98   A    
C52   O18   S    
N3    N12   A    
N11   Ni1   S    
C173  O9    S    
C29   H20   S    
C40   C141  A    
C125  H83   S    
C7    H157  S    
C2    H40   S    
C88   O19   S    
N32   Ni2   S    
C1    C34   A    
C67   O30   S    
C41   C153  A    
C54   C59   A    
C93   H52   S    
C112  H61   S    
C111  O26   S    
C9    C43   S    
C23   C47   A    
C88   H29   S    
C7    C181  A    
C26   H17   S    
N14   Ni7   S    
C65   H35   S    
C18   N10   A    
C30   H21   S    
C65   H57   S    
C37   C131  S    
N8    Ni7   S    
C39   C155  A    
C72   H96   S    
C159  H118  S    
N15   Ni8   S    
C28   C49   A    
C94   H55   S    
C81   H132  S    
N19   N20   A    
C83   H138  S    
C61   H1    S    
C33   N26   A    
C25   N17   A    
C157  H115  S    
C91   H38   S    
C42   C151  A    
C158  H116  S    
C155  N8    A    
C89   H32   S    
C114  C123  A    
C1    O1    S    
C116  C125  A    
C93   H51   S    
C5    H155  S    
C163  O31   S    
C164  C172  A    
C62   H95   S    
C74   O5    S    
C25   C45   A    
C122  C131  A    
C41   C135  S    
C85   H144  S    
C6    C180  A    
C28   H19   S    
C87   H27   S    
C174  H39   S    
C151  N5    A    
C31   C51   A    
C13   C59   A    
C183  H151  S    
C50   C60   S    
C112  C121  A    
C180  O16   S    
C74   H103  S    
C85   O16   S    
C35   C79   A    
N12   Ni2   S    
C154  H6    S    
C63   H139  S    
C76   H108  S    
C131  C139  A    
C19   H10   S    
N10   N11   A    
C118  C127  A    
N18   Ni4   S    
C19   N11   A    
N8    N28   A    
C162  H121  S    
C72   H97   S    
C115  C168  A    
C96   C101  A    
C67   H75   S    
C16   C180  A    
C125  C134  A    
C7    C10   A    
C141  N29   A    
C70   H90   S    
C88   H31   S    
C144  C161  A    
C184  H152  S    
C61   H73   S    
C142  C159  A    
C148  H159  S    
C34   C150  A    
N10   Ni4   S    
C40   C136  S    
C55   C102  A    
C62   H106  S    
C141  O29   S    
C5    C11   A    
C35   C103  A    
C118  H67   S    
C99   C109  A    
C86   O17   S    
C83   H136  S    
C106  H47   S    
C91   H36   S    
C150  N4    A    
N24   Ni7   S    
C14   C176  A    
C89   H34   S    
C66   H70   S    
C57   C96   A    
C130  N28   A    
C83   O14   S    
C160  C169  A    
C85   H145  S    
N29   Ni6   S    
C20   H11   S    
C163  N31   A    
C26   C48   A    
C95   H60   S    
C147  H158  S    
N31   Ni8   S    
C73   H99   S    
C30   C50   A    
C53   C100  A    
C64   H13   S    
C35   C174  A    
N2    N23   A    
C28   N20   A    
C17   H8    S    
C138  O32   S    
C114  C167  A    
C4    H154  S    
N4    Ni3   S    
C4    C178  A    
C93   O24   S    
C130  O28   S    
N25   Ni6   S    
C176  O11   S    
C46   C104  A    
C2    C46   A    
C105  H45   S    
C89   O20   S    
C80   H129  S    
C139  O2    S    
C61   H84   S    
C76   H110  S    
C143  O5    S    
C179  O15   S    
C77   H111  S    
C71   H92   S    
C75   O6    S    
C153  N6    A    
C94   H56   S    
C140  O3    S    
C126  C135  A    
C65   O28   S    
N28   Ni5   S    
N2    Ni1   S    
C102  C110  A    
C113  C166  A    
C8    C182  A    
C165  C170  S    
C115  C124  A    
C107  O22   S    
C148  N2    A    
C86   H147  S    
C22   H14   S    
C92   H49   S    
C121  C129  A    
C3    H153  S    
C31   N24   A    
C120  C128  A    
C48   C58   S    
C167  C172  S    
C46   C90   A    
C82   H135  S    
C132  C140  A    
C97   O12   S    
N13   Ni2   S    
C74   H101  S    
C61   O1    S    
C144  O6    S    
N9    Ni3   S    
C25   H16   S    
C142  O4    S    
N21   Ni1   S    
C156  C165  A    
C82   O13   S    
C78   H124  S    
C15   C181  A    
C76   O7    S    
C37   C148  A    
C38   C147  A    
C24   C68   A    
C95   H58   S    
C91   O21   S    
C113  H62   S    
N22   Ni8   S    
C12   C173  A    
N18   N21   A    
C145  O7    S    
C57   C105  A    
C39   C137  S    
C146  O8    S    
C84   H141  S    
C108  O23   S    
C126  H85   S    
N19   Ni3   S    
C152  O30   S    
C29   N21   A    
C32   C51   A    
C41   C152  A    
N7    N29   A    
C147  N32   A    
C64   H24   S    
C88   H30   S    
C9    C183  A    
C156  H114  S    
C80   H126  S    
C104  C109  A    
C36   C149  A    
C145  C162  A    
C15   C16   S    
C78   O9    S    
C23   H15   S    
C159  C168  A    
C92   H50   S    
C161  H120  S    
N5    Ni6   S    
C33   H25   S    
N7    Ni8   S    
C81   H131  S    
N16   Ni5   S    
C83   H137  S    
C119  O27   S    
C91   H37   S    
N22   N26   A    
C136  C145  A    
C108  N23   A    
C78   H125  S    
C12   C177  A    
C110  O25   S    
C71   O2    S    
C40   C154  A    
C68   C106  A    
C94   O25   S    
C24   H42   S    
C90   C100  A    
C69   O31   S    
C94   H54   S    
C70   O32   S    
C82   H133  S    
C10   C47   S    
C129  C138  A    
C29   C48   A    
C31   H22   S    
C75   H107  S    
C80   H127  S    
C150  H3    S    
C42   C163  A    
C120  C172  A    
C34   C133  S    
C17   N9    A    
C128  C137  A    
C87   O18   S    
C123  H81   S    
C70   H88   S    
C24   C60   A    
C26   N18   A    
C32   H23   S    
C155  H7    S    
C161  C170  A    
C135  C144  A    
C12   C14   S    
C149  N3    A    
C128  H87   S    
C51   C59   S    
N30   Ni7   S    
C4    C10   A    
C20   C43   A    
C175  O10   S    
N6    Ni5   S    
C138  C156  A    
C100  C107  A    
N27   Ni4   S    
C178  O14   S    
C175  C183  A    
C8    C44   S    
C157  C166  A    
C63   H128  S    
C77   O8    S    
C49   C56   S    
C52   C99   A    
C3    C177  A    
C73   O4    S    
C121  H79   S    
N6    N30   A    
C122  H80   S    
N1    Ni1   S    
C124  H82   S    
C116  C169  A    
C55   O21   S    
N9    N13   A    
C11   C45   S    
C89   H33   S    
C27   C49   A    
C162  C171  A    
C109  O24   S    
C164  H122  S    
C66   H71   S    
C166  C169  S    
C15   C178  A    
C154  N7    A    
C20   N13   A    
N5    N31   A    
C39   C130  A    
C85   H143  S    
C22   N15   A    
C52   C56   A    
C95   H59   S    
C18   H9    S    
