data_mof_unit_15230.cif
_audit_creation_date              2012-12-10T18:33:38-0500
_audit_creation_method            fapswitch 2.2
_symmetry_space_group_name_H-M    P1
_symmetry_Int_Tables_number       1
_space_group_crystal_system       triclinic
_cell_length_a                    10.516364
_cell_length_b                    15.002551
_cell_length_c                    15.131795
_cell_angle_alpha                 81.923292
_cell_angle_beta                  89.460819
_cell_angle_gamma                 104.599139
_cell_volume                      2284.87583261

loop_
_atom_site_label
_atom_site_type_symbol
_atom_type_description
_atom_site_fract_x
_atom_site_fract_y
_atom_site_fract_z
_atom_type_partial_charge
C1    C     C_R   0.482662 0.441262 0.663471 0.873628
C2    C     C_R   0.522296 0.558548 0.336357 0.889576
C3    C     C_R   0.557875 0.463925 0.814096 -0.318777
C4    C     C_R   0.545770 0.525552 0.184672 -0.285002
C5    C     C_R   0.577889 0.431795 0.903025 0.084647
C6    C     C_R   0.620866 0.539887 0.105097 0.105889
C7    C     C_R   0.515385 0.338372 0.938412 0.105627
C8    C     C_R   0.697048 0.630619 0.072911 0.107103
C9    C     C_R   0.643829 0.493378 0.960609 -0.025224
C10   C     C_R   0.611928 0.467527 0.053045 -0.024814
C11   C     C_R   0.568032 0.370980 0.087954 -0.038235
C12   C     C_R   0.734461 0.580974 0.930809 -0.022260
C13   C     C_R   0.519656 0.307385 0.029353 -0.203490
C14   C     C_R   0.759562 0.648962 0.987972 -0.194746
C15   C     C_R   0.708422 0.844877 0.630904 0.099843
C16   C     C_R   0.290758 0.155899 0.368599 0.145466
C17   C     C_R   0.667964 0.754030 0.612254 -0.041996
C18   C     C_R   0.326731 0.244978 0.391751 0.013265
C19   C     C_R   0.514882 0.794146 0.509946 -0.038473
C20   C     C_R   0.494462 0.208284 0.482138 -0.058797
C21   C     C_R   0.549746 0.887488 0.525635 -0.055827
C22   C     C_R   0.461815 0.115721 0.464278 -0.031002
C23   C     C_R   0.742526 0.501053 0.499872 0.922967
C24   C     C_R   0.257508 0.498954 0.500267 0.872488
C25   C     C_R   0.648412 0.912244 0.587826 0.134534
C26   C     C_R   0.359373 0.090188 0.404673 0.119369
C27   C     C_R   0.489244 0.955997 0.482740 0.102627
C28   C     C_R   0.526318 0.048286 0.504281 0.108987
C29   C     C_R   0.624840 0.069707 0.566450 -0.254476
C30   C     C_R   0.392732 0.935154 0.419245 -0.236380
C31   C     C_R   0.684283 0.003244 0.606990 -0.190993
C32   C     C_R   0.329547 0.000651 0.381311 -0.199993
C33   C     C_3   0.928491 0.426352 0.555834 -0.302113
C34   C     C_3   0.072042 0.574150 0.443930 -0.258127
C35   C     C_3   0.041324 0.503920 0.582194 0.042160
C36   C     C_3   0.959221 0.496730 0.417400 0.061112
C37   C     C_3   0.122134 0.497865 0.500154 -0.016719
C38   C     C_3   0.878128 0.502611 0.499508 -0.007380
C39   C     C_3   0.011317 0.420350 0.472557 -0.222692
C40   C     C_3   0.989046 0.580223 0.527104 -0.142519
C41   C     C_R   0.488963 0.403642 0.758186 -0.099601
C42   C     C_R   0.565089 0.592745 0.241779 -0.067775
C43   C     C_R   0.447062 0.277336 0.882961 -0.261059
C44   C     C_R   0.709856 0.701377 0.126365 -0.259595
C45   C     C_R   0.434747 0.308713 0.792715 0.213469
C46   C     C_R   0.645966 0.682984 0.211473 0.245770
H1    H     H_    0.573047 0.235490 0.523431 0.133630
H2    H     H_    0.441751 0.768235 0.464317 0.134788
H3    H     H_    0.274973 0.296227 0.365830 0.133656
H4    H     H_    0.713173 0.701106 0.643764 0.148629
H5    H     H_    0.658435 0.137319 0.586638 0.134113
H6    H     H_    0.362770 0.868374 0.396795 0.134685
H7    H     H_    0.866320 0.366815 0.601923 0.138974
H8    H     H_    0.134282 0.633729 0.397925 0.135555
H9    H     H_    0.023618 0.355609 0.449941 0.154823
H10   H     H_    0.976736 0.644945 0.549772 0.161342
H11   H     H_    0.481122 0.234074 0.054917 0.180600
H12   H     H_    0.826024 0.716714 0.965850 0.182453
H13   H     H_    0.473328 0.460052 0.204189 0.152993
H14   H     H_    0.591907 0.537230 0.788415 0.171610
H15   H     H_    0.400815 0.205413 0.910019 0.140462
H16   H     H_    0.770170 0.770801 0.102367 0.134278
H17   H     H_    0.758220 0.023815 0.654708 0.175531
H18   H     H_    0.257375 0.979840 0.332754 0.146145
N1    N     N_R   0.574200 0.731700 0.552740 -0.104181
N2    N     N_R   0.425800 0.268300 0.447260 -0.115693
O1    O     O_R   0.462600 0.383110 0.605620 -0.588602
O2    O     O_R   0.537400 0.616890 0.394380 -0.589498
O3    O     O_R   0.510210 0.531900 0.639510 -0.603157
O4    O     O_R   0.489790 0.468100 0.360490 -0.606585
O5    O     O_R   0.662240 0.425610 0.483080 -0.599283
O6    O     O_R   0.337760 0.574390 0.516920 -0.585429
O7    O     O_R   0.709860 0.574400 0.516970 -0.637030
O8    O     O_R   0.290140 0.425600 0.483030 -0.641166
Zn1   Zn    Zn3+2 0.468210 0.400660 0.477370 0.958338
Zn2   Zn    Zn3+2 0.531790 0.599340 0.522630 0.975083
C47   C     C_2   0.089629 0.506984 0.674698 0.376867
H19   H     H_    0.048317 0.449925 0.727617 0.044366
O9    O     O_2   0.176178 0.573131 0.690720 -0.529567
C48   C     C_2   0.916930 0.494604 0.323373 0.351642
H20   H     H_    0.982930 0.483734 0.272810 0.059476
O10   O     O_2   0.809664 0.505917 0.302907 -0.598040
N3    N     N_2   0.808307 0.867740 0.692762 -0.320725
H21   H     H_    0.801525 0.816348 0.746821 0.271655
C49   C     C_3   0.939950 0.899639 0.652045 -0.744140
H22   H     H_    0.011072 0.920915 0.703694 0.249585
H23   H     H_    0.947474 0.960749 0.599573 0.235068
H24   H     H_    0.966368 0.842839 0.621966 0.248907
N4    N     N_2   0.182883 0.133819 0.312416 -0.331568
H25   H     H_    0.120175 0.068382 0.328516 0.217724
C50   C     C_3   0.216497 0.160980 0.217917 -0.734871
H26   H     H_    0.284609 0.121652 0.195967 0.254993
H27   H     H_    0.263390 0.236944 0.203005 0.258038
H28   H     H_    0.125811 0.145584 0.179782 0.225828
N5    N     N_2   0.666334 0.754671 0.266140 -0.281951
H29   H     H_    0.758277 0.800613 0.256268 0.221511
C51   C     C_3   0.562654 0.802479 0.263905 -0.781415
H30   H     H_    0.557465 0.839290 0.195480 0.235198
H31   H     H_    0.583351 0.854558 0.310723 0.241645
H32   H     H_    0.466190 0.752495 0.284670 0.234772
N6    N     N_2   0.362219 0.245427 0.738551 -0.289184
H33   H     H_    0.268773 0.212435 0.765149 0.216659
C52   C     C_3   0.431140 0.179883 0.713684 -0.749048
H34   H     H_    0.442670 0.130549 0.773261 0.226077
H35   H     H_    0.529846 0.217327 0.682908 0.235333
H36   H     H_    0.374117 0.139498 0.664507 0.238730
C53   C     C_2   0.587257 0.334396 0.182149 0.361907
H37   H     H_    0.646452 0.379492 0.224492 0.147338
O11   O     O_2   0.539954 0.252839 0.213040 -0.586920
C54   C     C_2   0.817145 0.597323 0.846875 0.365816
H38   H     H_    0.818045 0.540166 0.810385 0.068347
O12   O     O_2   0.888138 0.674173 0.818683 -0.587588

loop_
_geom_bond_atom_site_label_1
_geom_bond_atom_site_label_2
_ccdc_geom_bond_type
C25   C31   A    
C38   C40   S    
C26   C32   A    
N6    H33   S    
C34   C37   S    
N5    H29   S    
O6    Zn2   S    
C12   C54   S    
C51   H30   S    
C47   H19   S    
C43   H15   S    
C33   C39   S    
N1    Zn2   S    
C34   C40   S    
C20   N2    A    
C28   C29   A    
C35   C37   S    
C2    O2    A    
C15   C25   A    
C13   H11   S    
O3    Zn2   S    
C42   C46   A    
C54   H38   S    
C30   H6    S    
C33   C35   S    
C39   H9    S    
C46   N5    S    
C40   H10   S    
C53   H37   S    
C7    C43   A    
N4    C50   S    
C9    C10   A    
C3    H14   S    
C49   H23   S    
C21   C27   A    
C16   N4    S    
N6    C52   S    
C22   C28   A    
C27   C30   A    
C33   H7    S    
C53   O11   D    
C23   O7    A    
C51   H31   S    
C44   C46   A    
C47   O9    D    
C16   C26   A    
C14   H12   S    
O5    Zn1   S    
O8    Zn1   S    
C23   O5    A    
C32   H18   S    
C4    C6    A    
C36   C48   S    
C50   H26   S    
C5    C7    A    
C19   H2    S    
C15   N3    S    
C44   H16   S    
C49   H22   S    
C35   C47   S    
C1    O3    A    
C5    C9    A    
C31   H17   S    
C50   H27   S    
N3    H21   S    
C24   C37   S    
C52   H35   S    
C16   C18   A    
C43   C45   A    
C45   N6    S    
C48   O10   D    
N3    C49   S    
C12   C14   A    
C34   H8    S    
C11   C53   S    
O7    Zn2   S    
C18   N2    A    
C52   H34   S    
C51   H32   S    
C24   O6    A    
C29   H5    S    
C49   H24   S    
C1    C41   S    
C15   C17   A    
C21   C25   A    
C3    C41   A    
C8    C14   A    
C19   C21   A    
C36   C39   S    
C8    C44   A    
C20   C22   A    
C48   H20   S    
C3    C5    A    
C17   H4    S    
C6    C10   A    
C6    C8    A    
N5    C51   S    
O2    Zn2   S    
C23   C38   S    
C17   N1    A    
C33   C38   S    
C36   C38   S    
C35   C40   S    
C29   C31   A    
C50   H28   S    
C30   C32   A    
C11   C13   A    
C24   O8    A    
C4    C42   A    
C2    C42   S    
N2    Zn1   S    
C4    H13   S    
C1    O1    A    
C19   N1    A    
C52   H36   S    
C34   C36   S    
C9    C12   A    
C54   O12   D    
C20   H1    S    
C10   C11   A    
C7    C13   A    
O1    Zn1   S    
C37   C39   S    
C22   C26   A    
O4    Zn1   S    
C41   C45   A    
N4    H25   S    
C2    O4    A    
C18   H3    S    
C27   C28   A    
