data_mof_unit_27221.cif
_audit_creation_date              2013-03-05T16:13:54-0500
_audit_creation_method            fapswitch 2.2
_symmetry_space_group_name_H-M    P1
_symmetry_Int_Tables_number       1
_space_group_crystal_system       triclinic
_cell_length_a                    20.300382
_cell_length_b                    22.745684
_cell_length_c                    6.936696
_cell_angle_alpha                 89.79441
_cell_angle_beta                  86.879273
_cell_angle_gamma                 90.02
_cell_volume                      3198.22117667

loop_
_atom_site_label
_atom_site_type_symbol
_atom_site_description
_atom_site_fract_x
_atom_site_fract_y
_atom_site_fract_z
_atom_type_partial_charge
O1    O     O_R   0.751270 0.447300 0.600030 -0.582170
O2    O     O_R   0.248730 0.947300 0.399970 -0.593853
O3    O     O_R   0.613530 0.440160 0.952150 -0.586657
O4    O     O_R   0.386470 0.940160 0.047850 -0.581617
O5    O     O_R   0.613050 0.552700 0.122560 -0.601669
O6    O     O_R   0.386950 0.052700 0.877440 -0.601886
C1    C     C_R   0.591204 0.425805 0.787913 0.978894
C2    C     C_R   0.408396 0.925569 0.213231 0.966938
O7    O     O_R   0.750780 0.440350 0.929820 -0.563359
O8    O     O_R   0.249220 0.940350 0.070180 -0.570026
O9    O     O_R   0.751280 0.552900 0.100070 -0.595896
O10   O     O_R   0.248720 0.052900 0.899930 -0.585767
C3    C     C_R   0.773367 0.425696 0.758027 0.960094
C4    C     C_R   0.227229 0.925100 0.242669 0.996811
O11   O     O_R   0.613040 0.447100 0.622520 -0.602361
O12   O     O_R   0.386960 0.947100 0.377480 -0.598656
O13   O     O_3   0.682160 0.536920 0.777780 -0.265520
O14   O     O_3   0.317840 0.036920 0.222220 -0.256993
V1    V     V_3+5 0.682160 0.493150 0.052630 1.228426
V2    V     V_3+5 0.317840 0.993150 0.947370 1.227214
O15   O     O_R   0.750790 0.559840 0.429870 -0.568103
O16   O     O_R   0.249210 0.059840 0.570130 -0.561576
C5    C     C_R   0.772789 0.575040 0.257754 0.981868
C6    C     C_R   0.226160 0.074088 0.741466 0.955524
O17   O     O_R   0.613540 0.559650 0.452200 -0.580188
O18   O     O_R   0.386460 0.059650 0.547800 -0.592722
C7    C     C_R   0.593311 0.576017 0.286091 0.963969
C8    C     C_R   0.407198 0.075632 0.713370 0.953457
V3    V     V_3+5 0.682160 0.506850 0.552630 1.233528
V4    V     V_3+5 0.317840 0.006850 0.447370 1.227518
O19   O     O_3   0.682150 0.463080 0.277610 -0.246496
O20   O     O_3   0.317850 0.963080 0.722390 -0.253864
C9    C     C_R   0.582751 0.866828 0.177079 0.357178
C10   C     C_R   0.425013 0.361940 0.938342 0.355801
C11   C     C_R   0.464763 0.884711 0.212378 -0.209556
C12   C     C_R   0.534288 0.385214 0.798357 -0.158463
C13   C     C_R   0.479531 0.601760 0.373888 -0.176515
C14   C     C_R   0.522789 0.101720 0.653508 -0.184531
C15   C     C_R   0.430538 0.641683 0.426406 -0.117093
C16   C     C_R   0.576640 0.138723 0.660171 -0.103650
C17   C     C_R   0.439787 0.701864 0.394911 0.004318
C18   C     C_R   0.569108 0.197289 0.717222 -0.001084
C19   C     C_R   0.497508 0.722843 0.288903 0.088973
C20   C     C_R   0.504712 0.221469 0.755282 0.088967
C21   C     C_R   0.549315 0.681548 0.240568 0.050793
C22   C     C_R   0.449819 0.181434 0.769349 0.070502
C23   C     C_R   0.507035 0.783858 0.240487 0.057745
C24   C     C_R   0.493694 0.283163 0.790171 0.055217
C25   C     C_R   0.571410 0.804883 0.185629 -0.083369
C26   C     C_R   0.432108 0.302334 0.876153 -0.029620
C27   C     C_R   0.620816 0.763374 0.128160 0.002273
C28   C     C_R   0.378867 0.262182 0.894063 0.024670
C29   C     C_R   0.608705 0.702739 0.147880 -0.015684
C30   C     C_R   0.387406 0.202856 0.839644 -0.069768
C31   C     C_R   0.453952 0.824338 0.236132 -0.194639
C32   C     C_R   0.541592 0.326870 0.737531 -0.220744
C33   C     C_R   0.529443 0.906205 0.190308 -0.076341
C34   C     C_R   0.476473 0.402471 0.901460 -0.119187
C35   C     C_R   0.539862 0.620511 0.289225 -0.172619
C36   C     C_R   0.459816 0.120988 0.713523 -0.170732
H1    H     H_    0.403359 0.809668 0.240514 0.155319
H2    H     H_    0.585179 0.316987 0.648053 0.146817
H3    H     H_    0.471789 0.555840 0.411236 0.123614
H4    H     H_    0.530918 0.056415 0.610391 0.125445
H5    H     H_    0.386181 0.626004 0.504060 0.137687
H6    H     H_    0.625498 0.121062 0.627182 0.144756
C37   C     C_R   0.172600 0.881153 0.261449 -0.306597
C38   C     C_R   0.828904 0.382798 0.741070 -0.309974
C39   C     C_R   0.162134 0.838094 0.118024 0.347480
C40   C     C_R   0.838399 0.338608 0.881909 0.356007
C41   C     C_R   0.106129 0.801342 0.136715 -0.252880
C42   C     C_R   0.892269 0.299868 0.859830 -0.243618
C43   C     C_R   0.061589 0.804935 0.299577 0.176153
C44   C     C_R   0.937445 0.304209 0.698687 0.179623
C45   C     C_R   0.073997 0.845809 0.443242 -0.115449
C46   C     C_R   0.926883 0.347053 0.558531 -0.145301
C47   C     C_R   0.128193 0.883678 0.424116 -0.113677
C48   C     C_R   0.873762 0.386009 0.579632 -0.104140
C49   C     C_R   0.884420 0.705480 0.369720 -0.080146
C50   C     C_R   0.112446 0.202772 0.625198 -0.075456
C51   C     C_R   0.831179 0.665135 0.383299 0.349360
C52   C     C_R   0.165186 0.162288 0.611360 0.349298
C53   C     C_R   0.933196 0.701379 0.213474 0.137902
C54   C     C_R   0.064535 0.199299 0.783897 0.138755
N1    N     N_2   0.005610 0.767151 0.329472 -0.097104
N2    N     N_2   0.992874 0.266005 0.668512 -0.096964
N3    N     N_2   0.989241 0.739597 0.184218 -0.084796
N4    N     N_2   0.008608 0.237536 0.813187 -0.084482
C55   C     C_R   0.825608 0.620709 0.241747 -0.345081
C56   C     C_R   0.171922 0.118449 0.755006 -0.352216
H7    H     H_    0.040838 0.848812 0.570555 0.123281
H8    H     H_    0.960640 0.350729 0.432646 0.126315
H9    H     H_    0.134830 0.915722 0.536595 0.147977
H10   H     H_    0.868244 0.419349 0.469811 0.161376
C57   C     C_R   0.872383 0.618905 0.085650 -0.117041
C58   C     C_R   0.125756 0.116865 0.912681 -0.112501
C59   C     C_R   0.924979 0.658543 0.072192 -0.136692
C60   C     C_R   0.073284 0.156649 0.926612 -0.154624
H11   H     H_    0.869103 0.585757 0.974818 0.152614
H12   H     H_    0.129500 0.083883 0.024559 0.166131
H13   H     H_    0.098915 0.768495 0.027245 0.168964
H14   H     H_    0.898235 0.266218 0.968359 0.158305
H15   H     H_    0.960484 0.655411 0.950291 0.131147
H16   H     H_    0.038321 0.153777 0.049968 0.134447
N5    N     N_3   0.542030 0.968306 0.181203 -0.156754
H17   H     H_    0.518486 0.985841 0.063584 0.120024
H18   H     H_    0.521634 0.987597 0.307347 0.108921
N6    N     N_3   0.470887 0.461729 0.971558 -0.206270
H19   H     H_    0.461788 0.460560 0.121350 0.145266
H20   H     H_    0.431040 0.482006 0.909108 0.160341
N7    N     N_3   0.884826 0.751730 0.509852 -0.162580
H21   H     H_    0.887471 0.792382 0.439047 0.142341
H22   H     H_    0.924933 0.746106 0.596339 0.134881
N8    N     N_3   0.110501 0.247090 0.477810 -0.166245
H23   H     H_    0.108980 0.288654 0.541716 0.144513
H24   H     H_    0.069329 0.240360 0.396503 0.124958
N9    N     N_R   0.209265 0.828729 0.958892 0.238005
O21   O     O_R   0.271877 0.825420 0.989103 -0.417298
O22   O     O_R   0.189288 0.813116 0.791486 -0.415573
N10   N     N_R   0.792524 0.330646 0.043818 0.231978
O23   O     O_R   0.796551 0.363889 0.194812 -0.401154
O24   O     O_R   0.757566 0.282741 0.057798 -0.416863
N11   N     N_3   0.681560 0.780543 0.027418 -0.190115
H25   H     H_    0.713587 0.798570 0.123885 0.191864
H26   H     H_    0.672108 0.809886 0.915959 0.169904
N12   N     N_3   0.314147 0.282426 0.956794 -0.153236
H27   H     H_    0.281896 0.276595 0.846022 0.150378
H28   H     H_    0.297175 0.258712 0.078848 0.187774
N13   N     N_R   0.648109 0.890794 0.172563 0.219272
O25   O     O_R   0.682675 0.885860 0.324326 -0.384417
O26   O     O_R   0.667893 0.926549 0.034417 -0.380688
N14   N     N_R   0.368573 0.380928 0.054960 0.227162
O27   O     O_R   0.327384 0.418484 0.986910 -0.388543
O28   O     O_R   0.361443 0.364399 0.234655 -0.381496
N15   N     N_3   0.393570 0.741057 0.490872 -0.208074
H29   H     H_    0.393566 0.733062 0.639452 0.146221
H30   H     H_    0.346469 0.731331 0.445738 0.140122
N16   N     N_3   0.627680 0.229185 0.757325 -0.208658
H31   H     H_    0.658947 0.229599 0.632375 0.134355
H32   H     H_    0.651758 0.206625 0.864670 0.162682
N17   N     N_3   0.657076 0.662771 0.066312 -0.186089
H33   H     H_    0.702494 0.672093 0.123098 0.149662
H34   H     H_    0.661562 0.669719 0.917075 0.188456
N18   N     N_3   0.332077 0.163945 0.862782 -0.206553
H35   H     H_    0.293959 0.179935 0.782685 0.121832
H36   H     H_    0.316281 0.161979 0.008599 0.172047
N19   N     N_R   0.781653 0.671236 0.538192 0.241773
O29   O     O_R   0.719940 0.677691 0.500842 -0.436655
O30   O     O_R   0.798612 0.674979 0.715956 -0.420438
N20   N     N_R   0.212711 0.167357 0.451651 0.232628
O31   O     O_R   0.254338 0.210893 0.445303 -0.427893
O32   O     O_R   0.204619 0.137188 0.295852 -0.419511

loop_
_geom_bond_atom_site_label_1
_geom_bond_atom_site_label_2
_geom_bond_distance
_ccdc_geom_bond_type
C30   N18   1.431525 S    
N12   H27   1.045030 S    
C18   N16   1.433295 S    
C17   C19   1.429938 A    
C1    C12   1.477269 S    
C53   N3    1.436721 S    
N19   O29   1.301310 A    
C37   C47   1.406753 A    
O4    C2    1.295102 A    
V1    O19   1.701657 S    
C25   C27   1.419905 A    
N8    H23   1.045355 S    
N15   H29   1.045927 S    
C23   C25   1.423167 A    
N5    H18   1.045500 S    
O9    V1    1.994076 S    
C44   C46   1.398888 A    
N19   O30   1.301249 A    
C46   C48   1.397821 A    
O3    C1    1.291793 A    
N9    O22   1.301228 A    
N2    N4    1.248543 D    
N11   H26   1.045267 S    
C57   H11   1.083372 S    
C9    C25   1.428076 A    
C31   H1    1.078613 S    
C27   N11   1.437132 S    
N6    H19   1.045651 S    
O14   V2    2.154006 S    
N15   H30   1.046036 S    
C47   H9    1.083337 S    
O9    C5    1.302490 A    
C39   C41   1.410907 A    
O7    C3    1.298033 A    
O5    C7    1.297539 A    
N17   H33   1.044127 S    
O7    V1    1.996961 S    
O6    C8    1.296519 A    
N7    H21   1.045443 S    
C40   N10   1.430393 S    
N14   O27   1.300885 A    
C49   C53   1.431007 A    
C58   C60   1.397477 A    
C26   C28   1.414776 A    
C4    C37   1.492833 S    
C5    C55   1.492139 S    
O3    V1    1.997541 S    
O14   V4    1.702748 S    
V4    O20   2.148727 S    
C19   C23   1.437242 A    
C34   N6    1.436956 S    
C50   C54   1.430672 A    
C32   H2    1.077069 S    
C51   C55   1.420285 A    
C16   C18   1.397109 A    
C41   H13   1.082766 S    
C10   N14   1.433735 S    
C2    O12   1.295177 A    
C16   H6    1.083363 S    
C38   C48   1.406041 A    
C43   C45   1.398111 A    
O10   V2    1.993134 S    
C18   C20   1.430077 A    
C13   H3    1.084555 S    
C28   C30   1.410740 A    
O11   V3    1.992688 S    
C14   H4    1.084216 S    
C8    C36   1.484814 S    
O17   V3    1.992228 S    
C13   C15   1.382052 A    
C10   C26   1.429171 A    
C33   N5    1.435942 S    
N1    N3    1.248713 D    
C11   C31   1.398315 A    
N11   H25   1.042949 S    
N18   H36   1.045128 S    
O8    C4    1.300002 A    
O8    V2    1.992693 S    
C49   C51   1.416598 A    
C28   N12   1.437756 S    
C20   C22   1.437815 A    
C51   N19   1.438063 S    
O15   V3    1.995294 S    
C37   C39   1.422708 A    
C2    C11   1.474161 S    
C55   C57   1.401487 A    
C12   C32   1.399459 A    
N20   O32   1.300172 A    
C45   C47   1.397354 A    
C22   C30   1.419631 A    
O1    V3    1.989836 S    
C9    C33   1.404329 A    
N7    H22   1.044935 S    
C13   C35   1.395124 A    
C44   N2    1.428796 S    
C24   C26   1.424763 A    
C19   C21   1.437119 A    
C43   N1    1.430179 S    
C59   H15   1.083381 S    
N16   H32   1.045828 S    
C46   H8    1.083241 S    
N14   O28   1.301155 A    
C14   C36   1.394058 A    
C42   C44   1.409897 A    
C50   N8    1.435268 S    
O18   V4    1.994654 S    
O15   C5    1.297421 A    
O16   C6    1.295697 A    
O1    C3    1.301409 A    
C17   N15   1.433499 S    
N10   O23   1.300157 A    
N10   O24   1.300582 A    
C23   C31   1.419150 A    
N13   O25   1.301113 A    
V2    O20   1.706153 S    
C9    N13   1.432957 S    
C24   C32   1.423090 A    
O10   C6    1.304389 A    
C21   C35   1.437905 A    
N12   H28   1.044658 S    
O16   V4    1.999569 S    
C22   C36   1.441159 A    
O18   C8    1.297684 A    
C54   N4    1.436506 S    
N18   H35   1.041790 S    
C52   N20   1.433197 S    
C6    C56   1.493155 S    
N8    H24   1.044967 S    
C57   C59   1.396241 A    
C56   C58   1.401419 A    
O5    V1    1.992542 S    
C45   H7    1.083263 S    
O17   C7    1.297471 A    
O6    V2    1.989512 S    
N5    H17   1.045673 S    
C15   H5    1.083395 S    
C12   C34   1.397862 A    
C52   C56   1.419042 A    
C49   N7    1.435200 S    
O2    V4    1.990773 S    
C54   C60   1.401800 A    
N17   H34   1.045699 S    
V3    O19   2.155061 S    
C7    C35   1.483375 S    
O13   V3    1.707244 S    
C14   C16   1.382292 A    
C39   N9    1.437409 S    
C42   H14   1.083095 S    
C48   H10   1.083136 S    
C60   H16   1.083361 S    
C58   H12   1.083110 S    
C1    O11   1.299171 A    
O13   V1    2.147673 S    
C50   C52   1.411949 A    
N6    H20   1.044840 S    
C29   N17   1.433418 S    
O2    C4    1.300677 A    
N16   H31   1.046075 S    
C21   C29   1.418535 A    
O4    V2    1.995110 S    
C15   C17   1.396399 A    
C38   C40   1.419693 A    
C11   C33   1.401290 A    
C53   C59   1.400775 A    
C41   C43   1.410669 A    
C10   C34   1.405421 A    
N20   O31   1.300653 A    
C40   C42   1.406848 A    
C27   C29   1.405727 A    
N9    O21   1.301564 A    
O12   V4    1.995728 S    
C20   C24   1.440326 A    
N13   O26   1.301263 A    
C3    C38   1.491361 S    
