data_mof_unit_12398.cif
_audit_creation_date              2012-12-11T14:08:17-0500
_audit_creation_method            fapswitch 2.2
_symmetry_space_group_name_H-M    P1
_symmetry_Int_Tables_number       1
_space_group_crystal_system       triclinic
_cell_length_a                    28.103357
_cell_length_b                    7.265378
_cell_length_c                    17.380575
_cell_angle_alpha                 90.267648
_cell_angle_beta                  101.919187
_cell_angle_gamma                 90.01104
_cell_volume                      3472.23937023

loop_
_atom_site_label
_atom_site_type_symbol
_atom_type_description
_atom_site_fract_x
_atom_site_fract_y
_atom_site_fract_z
_atom_type_partial_charge
O1    O     O_R   0.000700 0.436510 0.857920 -0.537154
O2    O     O_R   0.999300 0.563490 0.142080 -0.529564
O3    O     O_R   0.999300 0.936510 0.642080 -0.539134
O4    O     O_R   0.000700 0.063490 0.357920 -0.541647
O5    O     O_R   0.930080 0.766380 0.721890 -0.537832
O6    O     O_R   0.069920 0.233620 0.278110 -0.541362
O7    O     O_R   0.069920 0.266380 0.778110 -0.543596
O8    O     O_R   0.930080 0.733620 0.221890 -0.540515
C1    C     C_R   0.910597 0.596950 0.710893 0.700726
C2    C     C_R   0.089372 0.402027 0.289472 0.684018
C3    C     C_R   0.089408 0.097812 0.787006 0.705322
C4    C     C_R   0.910597 0.902787 0.210500 0.688924
O9    O     O_R   0.996180 0.766230 0.862310 -0.545481
O10   O     O_R   0.003820 0.233770 0.137690 -0.548718
O11   O     O_R   0.003820 0.266230 0.637690 -0.544493
O12   O     O_R   0.996180 0.733770 0.362310 -0.547367
O13   O     O_R   0.065870 0.936460 0.783500 -0.540058
O14   O     O_R   0.934130 0.063540 0.216500 -0.536861
O15   O     O_R   0.934130 0.436460 0.716500 -0.539012
O16   O     O_R   0.065870 0.563540 0.283500 -0.540167
C5    C     C_R   0.003144 0.597303 0.895656 0.708646
C6    C     C_R   0.005019 0.404114 0.106912 0.714712
C7    C     C_R   0.999095 0.096884 0.605066 0.709931
C8    C     C_R   0.994922 0.906233 0.392628 0.713586
O17   O     O_3   0.022790 0.603020 0.723980 -0.381142
O18   O     O_3   0.977210 0.396980 0.276020 -0.385563
O19   O     O_3   0.977210 0.103020 0.776020 -0.379796
O20   O     O_3   0.022790 0.896980 0.223980 -0.381190
V1    V     V_3+5 0.995770 0.877900 0.754830 1.374177
V2    V     V_3+5 0.004230 0.122100 0.245170 1.354302
V3    V     V_3+5 0.004230 0.377900 0.745170 1.369198
V4    V     V_3+5 0.995770 0.622100 0.254830 1.361436
C9    C     C_2   0.993785 0.090344 0.517172 -0.082230
C10   C     C_2   0.984096 0.928487 0.473577 -0.084842
C11   C     C_2   0.013206 0.585152 0.984932 -0.101604
C12   C     C_2   0.014111 0.418212 0.023999 -0.100777
C13   C     C_R   0.684266 0.925090 0.033472 0.583628
C14   C     C_R   0.317045 0.082636 0.956978 0.580451
C15   C     C_R   0.317422 0.417926 0.459845 0.586782
C16   C     C_R   0.684296 0.576122 0.532597 0.576769
O21   O     O_2   0.714256 0.858570 0.988535 -0.519379
O22   O     O_2   0.286651 0.082372 0.007817 -0.520435
O23   O     O_2   0.287439 0.417474 0.511329 -0.512920
O24   O     O_2   0.714124 0.644707 0.488034 -0.529219
N1    N     N_R   0.702678 0.970498 0.110419 -0.555862
N2    N     N_R   0.298323 0.088698 0.877857 -0.559496
N3    N     N_R   0.298233 0.412299 0.380857 -0.560193
N4    N     N_R   0.702902 0.528940 0.609049 -0.556054
C17   C     C_R   0.673127 0.043232 0.156385 0.560072
C18   C     C_R   0.328412 0.095902 0.825298 0.575679
C19   C     C_R   0.327913 0.405473 0.327624 0.569422
C20   C     C_R   0.673591 0.454705 0.654780 0.565013
C21   C     C_R   0.783387 0.107161 0.160985 -0.089967
C22   C     C_R   0.219576 0.925066 0.850713 -0.095689
C23   C     C_R   0.219298 0.573623 0.359086 -0.091528
C24   C     C_R   0.783683 0.391229 0.654946 -0.090316
C25   C     C_R   0.833828 0.090654 0.184347 -0.206049
C26   C     C_R   0.168737 0.926323 0.828170 -0.205465
C27   C     C_R   0.168436 0.571664 0.337301 -0.201957
C28   C     C_R   0.834045 0.407841 0.679294 -0.205017
C29   C     C_R   0.826987 0.759154 0.171091 -0.195594
C30   C     C_R   0.170947 0.253910 0.803474 -0.204191
C31   C     C_R   0.170868 0.247594 0.304737 -0.200455
C32   C     C_R   0.826855 0.740177 0.675869 -0.198604
C33   C     C_R   0.776336 0.776203 0.147453 -0.083113
C34   C     C_R   0.221705 0.251878 0.825523 -0.090177
C35   C     C_R   0.221629 0.250260 0.326104 -0.086262
C36   C     C_R   0.776284 0.722971 0.650968 -0.092401
C37   C     C_R   0.754242 0.950619 0.141443 0.379393
C38   C     C_R   0.246291 0.088076 0.850086 0.384743
C39   C     C_R   0.246139 0.412692 0.354024 0.383567
C40   C     C_R   0.754451 0.548209 0.639875 0.385344
C41   C     C_R   0.603324 0.018614 0.046801 -0.053146
C42   C     C_R   0.399324 0.072080 0.932665 -0.051630
C43   C     C_R   0.399339 0.428947 0.434134 -0.050248
C44   C     C_R   0.603518 0.480943 0.545985 -0.053443
C45   C     C_R   0.634454 0.950784 0.000344 -0.076785
C46   C     C_R   0.367781 0.075137 0.985639 -0.065528
C47   C     C_R   0.368197 0.425504 0.487728 -0.068335
C48   C     C_R   0.634431 0.550204 0.499651 -0.073333
C49   C     C_R   0.615963 0.912874 0.921384 -0.129191
C50   C     C_R   0.387035 0.066071 0.065997 -0.146904
C51   C     C_R   0.387872 0.434252 0.567974 -0.145491
C52   C     C_R   0.615648 0.589272 0.421041 -0.130704
C53   C     C_R   0.623041 0.067839 0.125583 -0.016619
C54   C     C_R   0.379307 0.088894 0.851884 -0.035131
C55   C     C_R   0.378870 0.412484 0.353444 -0.033467
C56   C     C_R   0.623476 0.430420 0.624313 -0.018430
C57   C     C_R   0.856531 0.916641 0.188685 -0.051740
C58   C     C_R   0.143621 0.091603 0.805465 -0.055256
C59   C     C_R   0.143472 0.407910 0.310648 -0.048968
C60   C     C_R   0.856534 0.582494 0.689329 -0.061100
H1    H     H_    0.842966 0.623080 0.174159 0.131535
H2    H     H_    0.153165 0.383824 0.786115 0.138838
H3    H     H_    0.153172 0.119079 0.283949 0.135175
H4    H     H_    0.842707 0.876644 0.682663 0.134276
H5    H     H_    0.754294 0.653828 0.132540 0.122783
H6    H     H_    0.241906 0.378675 0.825057 0.120547
H7    H     H_    0.241908 0.125012 0.322224 0.119724
H8    H     H_    0.754113 0.845563 0.639216 0.122291
H9    H     H_    0.641085 0.858248 0.888047 0.172860
H10   H     H_    0.362604 0.077565 0.106357 0.177698
H11   H     H_    0.363734 0.422633 0.608753 0.178696
H12   H     H_    0.640596 0.644998 0.387788 0.171776
C61   C     C_R   0.482274 0.050386 0.905330 0.052758
C62   C     C_R   0.521248 0.076717 0.067629 0.040660
C63   C     C_R   0.521669 0.422441 0.567435 0.041028
C64   C     C_R   0.481979 0.451049 0.405579 0.052392
C65   C     C_R   0.470027 0.055495 0.042627 -0.007667
C66   C     C_R   0.533614 0.012226 0.932882 -0.015627
C67   C     C_R   0.533422 0.488810 0.432765 -0.015798
C68   C     C_R   0.470497 0.444571 0.543262 -0.007870
C69   C     C_R   0.450722 0.057509 0.960344 0.051014
C70   C     C_R   0.552485 0.034265 0.015392 0.054971
C71   C     C_R   0.552631 0.465581 0.515012 0.054846
C72   C     C_R   0.450786 0.443364 0.461119 0.051829
C73   C     C_R   0.460556 0.087744 0.826025 -0.202973
C74   C     C_R   0.542477 0.149738 0.141996 -0.224333
C75   C     C_R   0.543078 0.348165 0.641134 -0.224010
C76   C     C_R   0.459800 0.414576 0.326199 -0.202500
C77   C     C_R   0.410500 0.101999 0.799621 -0.174037
C78   C     C_R   0.592349 0.141921 0.171377 -0.148363
C79   C     C_R   0.592990 0.355541 0.670022 -0.148788
C80   C     C_R   0.409679 0.399899 0.300501 -0.174351
O25   O     O_2   0.309232 0.107964 0.747644 -0.514758
O26   O     O_2   0.691906 0.089307 0.231832 -0.526552
O27   O     O_2   0.692676 0.406723 0.729693 -0.521698
O28   O     O_2   0.308273 0.393962 0.250064 -0.519186
C81   C     C_R   0.567407 0.951789 0.884665 0.076573
C82   C     C_R   0.436862 0.039163 0.095452 0.071749
C83   C     C_R   0.437768 0.460922 0.596800 0.071375
C84   C     C_R   0.567010 0.549943 0.384504 0.076539
H13   H     H_    0.149134 0.798874 0.830610 0.132843
H14   H     H_    0.854998 0.215477 0.198075 0.140231
H15   H     H_    0.855322 0.282727 0.689015 0.137423
H16   H     H_    0.148738 0.697587 0.342598 0.131078
H17   H     H_    0.238218 0.797621 0.869740 0.116566
H18   H     H_    0.767017 0.242681 0.156206 0.121941
H19   H     H_    0.767415 0.255594 0.646052 0.119111
H20   H     H_    0.237883 0.699997 0.380724 0.118893
H21   H     H_    0.396346 0.125139 0.737560 0.166554
H22   H     H_    0.606608 0.192252 0.230391 0.165395
H23   H     H_    0.607440 0.304395 0.728617 0.166119
H24   H     H_    0.395162 0.377101 0.238421 0.166561
H25   H     H_    0.480626 0.117610 0.782298 0.111288
H26   H     H_    0.520600 0.217372 0.177604 0.118832
H27   H     H_    0.521295 0.280150 0.676602 0.119055
H28   H     H_    0.479496 0.385536 0.281785 0.111186
C85   C     C_3   0.980719 0.278978 0.479032 -0.303252
C86   C     C_3   0.925850 0.313342 0.470796 -0.330436
C87   C     C_3   0.897907 0.310831 0.385562 -0.708042
H29   H     H_    0.908125 0.431506 0.353605 0.230829
H30   H     H_    0.905589 0.182400 0.355581 0.231907
H31   H     H_    0.858251 0.317546 0.383975 0.210678
H32   H     H_    0.908957 0.218064 0.506225 0.175359
H33   H     H_    0.920459 0.443083 0.499115 0.184146
H34   H     H_    0.000767 0.389898 0.516302 0.138956
H35   H     H_    0.993079 0.310809 0.424787 0.219238
C88   C     C_3   0.950132 0.782499 0.495402 -0.382534
C89   C     C_3   0.899748 0.861990 0.499178 -0.340814
C90   C     C_3   0.859632 0.718381 0.493513 -0.729628
H36   H     H_    0.854181 0.644602 0.436318 0.236554
H37   H     H_    0.868342 0.619562 0.542456 0.220062
H38   H     H_    0.824971 0.787808 0.497248 0.251114
H39   H     H_    0.902176 0.939017 0.555187 0.195240
H40   H     H_    0.887787 0.953860 0.448142 0.216295
H41   H     H_    0.943698 0.678739 0.447959 0.190524
H42   H     H_    0.966534 0.708866 0.550099 0.196800
C91   C     C_3   0.035298 0.756289 0.031085 -0.344142
C92   C     C_3   0.087320 0.718493 0.079809 -0.284237
C93   C     C_3   0.106480 0.858640 0.144939 -0.686954
H43   H     H_    0.087919 0.992989 0.135281 0.225267
H44   H     H_    0.102363 0.804951 0.202660 0.235659
H45   H     H_    0.146125 0.879487 0.149608 0.194476
H46   H     H_    0.089079 0.583993 0.109872 0.183002
H47   H     H_    0.112759 0.712846 0.038608 0.174587
H48   H     H_    0.038991 0.865601 0.989022 0.156391
H49   H     H_    0.010767 0.814450 0.067247 0.211938
C94   C     C_3   0.038317 0.250785 0.994391 -0.352014
C95   C     C_3   0.089898 0.295668 0.981315 -0.315240
C96   C     C_3   0.121494 0.125783 0.980781 -0.747994
H50   H     H_    0.133453 0.073504 0.041015 0.240377
H51   H     H_    0.101823 0.016071 0.942515 0.219996
H52   H     H_    0.155028 0.164437 0.960545 0.242930
H53   H     H_    0.087738 0.371406 0.925541 0.208551
H54   H     H_    0.109660 0.383566 0.029304 0.186585
H55   H     H_    0.042481 0.142376 0.038819 0.176109
H56   H     H_    0.015238 0.187329 0.941561 0.202448
C97   C     C_3   0.554221 0.933165 0.795070 -0.398758
C98   C     C_3   0.591287 0.844230 0.752129 -0.326018
C99   C     C_3   0.572438 0.845584 0.663195 -0.732533
H57   H     H_    0.539986 0.756579 0.646463 0.232308
H58   H     H_    0.562439 0.986274 0.641980 0.236201
H59   H     H_    0.601389 0.797168 0.633442 0.225013
H60   H     H_    0.625714 0.924623 0.763672 0.213919
H61   H     H_    0.598704 0.699956 0.772045 0.216391
H62   H     H_    0.520065 0.853140 0.778152 0.195257
H63   H     H_    0.550680 0.075220 0.772395 0.175724
C100  C     C_3   0.452038 0.996102 0.183130 -0.394704
C101  C     C_3   0.421243 0.850047 0.214925 -0.297051
C102  C     C_3   0.427615 0.869783 0.304202 -0.725176
H64   H     H_    0.465981 0.845016 0.333832 0.228016
H65   H     H_    0.416836 0.009665 0.319928 0.235506
H66   H     H_    0.403811 0.770831 0.326467 0.231806
H67   H     H_    0.381873 0.861076 0.189695 0.213253
H68   H     H_    0.432879 0.710398 0.200128 0.195057
H69   H     H_    0.489610 0.943243 0.198789 0.186868
H70   H     H_    0.450025 0.126917 0.214808 0.180256
C103  C     C_3   0.453515 0.503674 0.684588 -0.395950
C104  C     C_3   0.423121 0.649625 0.717659 -0.296436
C105  C     C_3   0.430471 0.630831 0.807033 -0.726353
H71   H     H_    0.419659 0.491355 0.822789 0.235848
H72   H     H_    0.469068 0.655034 0.835693 0.228083
H73   H     H_    0.407224 0.730601 0.830358 0.231937
H74   H     H_    0.434458 0.789205 0.702673 0.195637
H75   H     H_    0.383628 0.637691 0.693491 0.214016
H76   H     H_    0.451528 0.372899 0.715716 0.180293
H77   H     H_    0.491182 0.556134 0.699911 0.187561
C106  C     C_3   0.553494 0.568717 0.295035 -0.397799
C107  C     C_3   0.590579 0.656106 0.251956 -0.325906
C108  C     C_3   0.571559 0.653378 0.163046 -0.731916
H78   H     H_    0.561474 0.512306 0.141708 0.236202
H79   H     H_    0.539138 0.742243 0.146580 0.232225
H80   H     H_    0.600437 0.701323 0.133156 0.224670
H81   H     H_    0.598245 0.800607 0.272006 0.216311
H82   H     H_    0.624891 0.575307 0.263269 0.212703
H83   H     H_    0.549539 0.426675 0.271869 0.175847
H84   H     H_    0.519488 0.649583 0.278797 0.194516

loop_
_geom_bond_atom_site_label_1
_geom_bond_atom_site_label_2
_ccdc_geom_bond_type
C97   H63   S    
O17   V3    S    
C61   C66   A    
O1    C5    A    
C98   C99   S    
C23   C27   A    
O19   V1    S    
O13   V1    S    
C102  H64   S    
C64   C76   A    
O3    C7    A    
C11   C12   D    
C93   H43   S    
C21   C37   A    
C36   H8    S    
C90   H36   S    
C92   H47   S    
C96   H50   S    
O7    C3    A    
C17   O26   S    
C93   H44   S    
C101  H67   S    
C51   H11   S    
C62   C70   A    
C103  H77   S    
C32   C36   A    
C73   H25   S    
O10   V2    S    
C14   O22   S    
C108  H80   S    
C107  H81   S    
C74   C78   A    
C55   C80   A    
O4    C8    A    
C33   C37   A    
C22   H17   S    
C94   H55   S    
C92   C93   S    
C75   H27   S    
C104  H74   S    
C31   H3    S    
C27   H16   S    
O1    V3    S    
C44   C71   A    
C88   H42   S    
C66   C81   A    
O2    V4    S    
C91   C92   S    
C87   H31   S    
C91   H48   S    
O3    V1    S    
C73   C77   A    
C1    O15   A    
C105  H71   S    
C2    O16   A    
C101  C102  S    
C24   C40   A    
C81   C97   S    
C83   C103  S    
C87   H29   S    
C16   C48   A    
O14   V2    S    
C89   H40   S    
C106  H84   S    
C50   C82   A    
C85   H35   S    
C44   C56   A    
C80   H24   S    
O16   V4    S    
C65   C69   A    
C10   C88   S    
O11   C7    A    
O15   V3    S    
C100  C101  S    
O12   C8    A    
C86   H33   S    
C62   C74   A    
C102  H65   S    
C61   C73   A    
C12   C94   S    
N4    C40   S    
C56   C79   A    
C1    C60   S    
C63   C75   A    
C107  C108  S    
C90   H37   S    
C20   O27   S    
C29   C57   A    
C103  C104  S    
O5    V1    S    
C92   H46   S    
C28   C60   A    
C26   H13   S    
C93   H45   S    
C31   C35   A    
O7    V3    S    
C30   C34   A    
N1    C37   S    
C21   H18   S    
O8    V4    S    
C17   C53   A    
C4    C57   S    
C20   C56   A    
N4    C20   A    
C32   H4    S    
C96   H51   S    
C19   C55   A    
C106  C107  S    
C24   H19   S    
C21   C25   A    
O18   V4    S    
C15   O23   S    
C94   H56   S    
C14   C46   A    
C7    C9    S    
C42   C69   A    
C13   C45   A    
C52   C84   A    
C8    C10   S    
C23   H20   S    
C99   H57   S    
O9    V1    S    
C36   C40   A    
C15   C47   A    
C18   C54   A    
C99   H58   S    
O5    C1    A    
C108  H78   S    
C77   H21   S    
C46   C50   A    
C49   C81   A    
C88   C89   S    
C22   C38   A    
C74   H26   S    
O8    C4    A    
N3    C39   S    
C105  H73   S    
C54   C77   A    
C100  H69   S    
C9    C10   D    
C50   H10   S    
C61   C69   A    
O9    C5    A    
C53   C78   A    
C18   O25   S    
C27   C59   A    
C89   H39   S    
C42   C54   A    
C26   C58   A    
C28   H15   S    
C41   C53   A    
C25   C57   A    
C98   H60   S    
C43   C55   A    
O6    V2    S    
C2    C59   S    
C76   H28   S    
C75   C79   A    
C86   H32   S    
C30   H2    S    
C52   H12   S    
C102  H66   S    
C25   H14   S    
C19   O28   S    
C13   N1    A    
C82   C100  S    
N2    C38   S    
C91   H49   S    
C68   C72   A    
C90   H38   S    
C95   C96   S    
C15   N3    A    
C22   C26   A    
C96   H52   S    
C97   H62   S    
C16   N4    A    
C66   C70   A    
C3    O13   A    
C101  H68   S    
C105  H72   S    
C4    O14   A    
C44   C48   A    
O6    C2    A    
N3    C19   A    
C34   H6    S    
O11   V3    S    
C5    C11   S    
C35   H7    S    
O12   V4    S    
C6    C12   S    
N2    C18   A    
C64   C67   A    
C95   H54   S    
C84   C106  S    
C103  H76   S    
C89   C90   S    
C64   C72   A    
O20   V2    S    
C51   C83   A    
C99   H59   S    
C33   H5    S    
C108  H79   S    
C9    C85   S    
O2    C6    A    
C48   C52   A    
C47   C51   A    
C98   H61   S    
C3    C58   S    
O10   C6    A    
C34   C38   A    
C43   C47   A    
C104  H75   S    
C30   C58   A    
C100  H70   S    
C11   C91   S    
C88   H41   S    
N1    C17   A    
C63   C71   A    
C35   C39   A    
C87   H30   S    
C68   C83   A    
C13   O21   S    
C97   C98   S    
C45   C49   A    
O4    V2    S    
C14   N2    A    
C95   H53   S    
C41   C70   A    
C94   C95   S    
C29   C33   A    
C67   C84   A    
C16   O24   S    
C107  H82   S    
C24   C28   A    
C31   C59   A    
C41   C45   A    
C104  C105  S    
C42   C46   A    
C79   H23   S    
C65   C82   A    
C63   C68   A    
C78   H22   S    
C86   C87   S    
C49   H9    S    
C67   C71   A    
C43   C72   A    
C32   C60   A    
C106  H83   S    
C85   C86   S    
C29   H1    S    
C85   H34   S    
C23   C39   A    
C76   C80   A    
C62   C65   A    
