data_mof_unit_53229.cif
_audit_creation_date              2012-10-26T20:57:34-0400
_audit_creation_method            fapswitch 2.2
_symmetry_space_group_name_H-M    P1
_symmetry_Int_Tables_number       1
_space_group_crystal_system       triclinic
_cell_length_a                    14.71554
_cell_length_b                    14.622328
_cell_length_c                    15.847263
_cell_angle_alpha                 76.700094
_cell_angle_beta                  102.680962
_cell_angle_gamma                 115.2159
_cell_volume                      2973.53131334

loop_
_atom_site_label
_atom_site_type_symbol
_atom_type_description
_atom_site_fract_x
_atom_site_fract_y
_atom_site_fract_z
_atom_type_partial_charge
C1    C     C_R   0.880184 0.311821 0.516799 0.543051
C2    C     C_R   0.359917 0.924699 0.483877 0.006421
C3    C     C_R   0.676973 0.997092 0.548732 0.029028
C4    C     C_R   0.322937 0.002949 0.451537 0.029012
C5    C     C_R   0.534846 0.050992 0.487661 0.024103
C6    C     C_R   0.465089 0.949122 0.512709 0.024123
C7    C     C_R   0.503776 0.876658 0.566997 -0.010976
C8    C     C_R   0.496143 0.123473 0.433417 -0.010951
C9    C     C_R   0.606906 0.897850 0.572841 -0.132143
C10   C     C_R   0.392997 0.102228 0.427541 -0.132136
C11   C     C_R   0.720488 0.675039 0.359833 -0.164553
C12   C     C_R   0.119814 0.688180 0.483220 0.543069
C13   C     C_R   0.279498 0.324940 0.640145 -0.164553
C14   C     C_R   0.800040 0.642761 0.380746 0.036432
C15   C     C_R   0.199958 0.357234 0.619249 0.036450
C16   C     C_R   0.999766 0.500245 0.660014 0.549689
C17   C     C_R   0.000234 0.499756 0.339985 0.549684
C18   C     C_R   0.713245 0.507069 0.486594 0.029958
C19   C     C_R   0.286746 0.492919 0.513394 0.029995
C20   C     C_R   0.628846 0.535249 0.467684 0.000231
C21   C     C_R   0.371133 0.464720 0.532285 0.000240
C22   C     C_R   0.635105 0.622196 0.403465 0.038387
C23   C     C_R   0.783611 0.021966 0.564130 -0.001353
C24   C     C_R   0.364872 0.377771 0.596501 0.038378
C25   C     C_R   0.540040 0.481864 0.510602 0.019796
C26   C     C_R   0.459931 0.518095 0.489356 0.019811
C27   C     C_R   0.471494 0.606548 0.426224 -0.143847
C28   C     C_R   0.528470 0.393401 0.573722 -0.143860
C29   C     C_R   0.556920 0.656744 0.383860 -0.131513
C30   C     C_R   0.443046 0.343207 0.616089 -0.131502
C31   C     C_3   0.025949 0.424354 0.048891 -0.100236
C32   C     C_3   0.974062 0.575654 0.951110 -0.100237
C33   C     C_3   0.932563 0.409660 0.977286 -0.101319
C34   C     C_R   0.216291 0.978024 0.435995 -0.001374
C35   C     C_3   0.067448 0.590348 0.022714 -0.101324
C36   C     C_1   0.999266 0.500600 0.749652 -0.041679
C37   C     C_1   0.000737 0.499404 0.250348 -0.041677
C38   C     C_3   0.092951 0.515068 0.987235 -0.100736
C39   C     C_3   0.907059 0.484940 0.012765 -0.100733
C40   C     C_3   0.999567 0.500371 0.917174 0.053367
C41   C     C_3   0.000444 0.499637 0.082826 0.053366
C42   C     C_1   0.999252 0.500640 0.825287 -0.068182
C43   C     C_1   0.000755 0.499367 0.174713 -0.068183
C44   C     C_R   0.812488 0.202855 0.529052 -0.027199
C45   C     C_R   0.849914 0.125976 0.549505 -0.124268
C46   C     C_R   0.187494 0.797153 0.471044 -0.027193
C47   C     C_3   0.824219 0.937719 0.595963 -0.257595
C48   C     C_3   0.940215 0.973235 0.610811 -0.312429
C49   C     C_3   0.971333 0.882283 0.635563 -0.451034
C50   C     C_3   0.175642 0.062236 0.404090 -0.257603
C51   C     C_3   0.059639 0.026669 0.389036 -0.312430
C52   C     C_3   0.028474 0.117590 0.364201 -0.451053
C53   C     C_3   0.444666 0.784136 0.630438 -0.247089
C54   C     C_3   0.395814 0.813020 0.690998 -0.290566
C55   C     C_3   0.334498 0.718752 0.750977 -0.451182
C56   C     C_R   0.150017 0.873998 0.450527 -0.124253
C57   C     C_3   0.555242 0.216095 0.370048 -0.247040
C58   C     C_3   0.604097 0.187356 0.309388 -0.290585
C59   C     C_3   0.665519 0.281744 0.249577 -0.451107
C60   C     C_R   0.708653 0.176064 0.520143 -0.138785
C61   C     C_R   0.291349 0.823989 0.480114 -0.138822
C62   C     C_R   0.640027 0.075371 0.516426 0.006412
Cu1   Cu    Cu3+1 0.081740 0.475690 0.522610 0.915160
Cu2   Cu    Cu3+1 0.918260 0.524310 0.477390 0.915079
H1    H     H_    0.877158 0.335516 0.957264 0.100217
H2    H     H_    0.952785 0.637758 0.909590 0.099901
H3    H     H_    0.830764 0.472508 0.024675 0.100852
H4    H     H_    0.169246 0.527501 0.975325 0.100856
H5    H     H_    0.562126 0.724034 0.335509 0.105198
H6    H     H_    0.437835 0.275910 0.664433 0.105208
H7    H     H_    0.415784 0.639618 0.407979 0.090837
H8    H     H_    0.584171 0.360319 0.591953 0.090812
H9    H     H_    0.632835 0.837895 0.604923 0.097565
H10   H     H_    0.367055 0.162185 0.395499 0.097582
H11   H     H_    0.318413 0.766352 0.480017 0.121988
H12   H     H_    0.122853 0.664492 0.042736 0.100212
H13   H     H_    0.681660 0.233723 0.520333 0.121947
H14   H     H_    0.068918 0.851173 0.442278 0.122478
H15   H     H_    0.931003 0.148769 0.557637 0.122450
H16   H     H_    0.942620 0.834580 0.697135 0.152407
H17   H     H_    0.940813 0.834580 0.582419 0.157734
H18   H     H_    0.055346 0.910424 0.645590 0.143782
H19   H     H_    0.971742 0.019980 0.550313 0.158697
H20   H     H_    0.973336 0.020503 0.664349 0.156309
H21   H     H_    0.797157 0.895238 0.659484 0.138044
H22   H     H_    0.791991 0.884070 0.547240 0.147650
H23   H     H_    0.283185 0.555599 0.463581 0.116266
H24   H     H_    0.058842 0.165264 0.417360 0.157713
H25   H     H_    0.057309 0.165334 0.302684 0.152398
H26   H     H_    0.944456 0.089417 0.354038 0.143747
H27   H     H_    0.026685 0.979441 0.335470 0.156311
H28   H     H_    0.027975 0.979870 0.449465 0.158684
H29   H     H_    0.207710 0.115834 0.452850 0.147622
H30   H     H_    0.202844 0.104785 0.340631 0.138068
H31   H     H_    0.272037 0.663543 0.711520 0.178715
H32   H     H_    0.384030 0.680894 0.792280 0.147734
H33   H     H_    0.300897 0.741903 0.794448 0.137082
H34   H     H_    0.716809 0.444394 0.536412 0.116236
H35   H     H_    0.456208 0.868303 0.731731 0.158807
H36   H     H_    0.344268 0.849847 0.652847 0.175648
H37   H     H_    0.389034 0.719409 0.597575 0.144396
H38   H     H_    0.497012 0.750894 0.674077 0.132776
H39   H     H_    0.616064 0.319746 0.208370 0.147740
H40   H     H_    0.727993 0.336794 0.289160 0.178965
H41   H     H_    0.699103 0.258704 0.206010 0.137062
H42   H     H_    0.655564 0.150397 0.347454 0.175669
H43   H     H_    0.543698 0.132225 0.268532 0.158772
H44   H     H_    0.502894 0.249373 0.326466 0.132754
H45   H     H_    0.133329 0.315667 0.651970 0.122021
H46   H     H_    0.610843 0.280780 0.402974 0.144334
H47   H     H_    0.866674 0.684334 0.348033 0.122014
H48   H     H_    0.726145 0.741571 0.310473 0.085659
H49   H     H_    0.273839 0.258405 0.689502 0.085660
H50   H     H_    0.047225 0.362250 0.090410 0.099902
N1    N     N_R   0.795440 0.560790 0.443380 -0.232045
N2    N     N_R   0.204560 0.439210 0.556620 -0.232042
O1    O     O_R   0.977900 0.338120 0.529810 -0.506434
O2    O     O_R   0.022100 0.661880 0.470190 -0.506444
O3    O     O_R   0.839850 0.379180 0.491620 -0.511268
O4    O     O_R   0.160150 0.620820 0.508380 -0.511224
O5    O     O_R   0.069010 0.479460 0.640020 -0.498470
O6    O     O_R   0.930990 0.520540 0.359980 -0.498519
O7    O     O_R   0.930960 0.520530 0.601820 -0.493488
O8    O     O_R   0.069040 0.479470 0.398180 -0.493488

loop_
_geom_bond_atom_site_label_1
_geom_bond_atom_site_label_2
_ccdc_geom_bond_type
C21   C26   A    
C34   C56   A    
C23   C45   A    
C22   C29   A    
C27   C29   A    
C15   H45   S    
C36   C42   T    
Cu1   O8    S    
C33   H1    S    
C39   C41   S    
C28   H8    S    
C53   C54   S    
C61   H11   S    
C25   C28   A    
C26   C27   A    
C59   H41   S    
Cu2   O3    S    
C59   H40   S    
C47   H21   S    
C19   C21   A    
C16   O7    A    
C19   H23   S    
C5    C6    A    
Cu1   O1    S    
C11   C14   A    
C20   C25   A    
C14   N1    A    
C56   H14   S    
C60   C62   A    
C58   H43   S    
C1    O3    A    
C32   C39   S    
C49   H17   S    
C3    C23   A    
C1    C44   S    
C51   H27   S    
C12   O4    A    
C52   H26   S    
C33   C39   S    
C47   C48   S    
C53   H37   S    
C31   C33   S    
C31   H50   S    
C2    C61   A    
C40   C42   S    
Cu2   N1    S    
C41   C43   S    
C54   H36   S    
C52   H25   S    
C2    C6    A    
C9    H9    S    
C30   H6    S    
C29   H5    S    
C14   H47   S    
C60   H13   S    
C4    C34   A    
C35   H12   S    
C34   C50   S    
C33   C40   S    
C23   C47   S    
C46   C61   A    
C51   C52   S    
C32   C35   S    
C52   H24   S    
C35   C38   S    
C12   C46   S    
C50   H30   S    
C1    O1    A    
C25   C26   A    
C48   H20   S    
C13   C24   A    
C58   H42   S    
C49   H18   S    
C37   C43   T    
C2    C4    A    
C16   O5    A    
C47   H22   S    
C3    C9    A    
C8    C57   S    
C17   O8    A    
C57   H46   S    
C53   H38   S    
C55   H33   S    
C50   C51   S    
Cu1   O5    S    
C45   H15   S    
C17   C37   S    
C51   H28   S    
C12   O2    A    
Cu1   N2    S    
C55   H31   S    
C48   C49   S    
C20   C22   A    
C13   C15   A    
C54   H35   S    
C7    C53   S    
C4    C10   A    
C27   H7    S    
C44   C45   A    
C32   H2    S    
C3    C62   A    
C7    C9    A    
C54   C55   S    
C31   C41   S    
C11   H48   S    
C39   H3    S    
C38   H4    S    
C55   H32   S    
C18   N1    A    
C5    C8    A    
C48   H19   S    
C50   H29   S    
C6    C7    A    
Cu2   O7    S    
C11   C22   A    
C49   H16   S    
C59   H39   S    
C31   C38   S    
C28   C30   A    
C58   C59   S    
C16   C36   S    
C38   C40   S    
Cu1   O4    S    
C10   H10   S    
C57   C58   S    
Cu2   O2    S    
C19   N2    A    
C44   C60   A    
Cu2   O6    S    
C5    C62   A    
C18   C20   A    
C32   C40   S    
C35   C41   S    
C24   C30   A    
Cu1   Cu2   S    
C17   O6    A    
C57   H44   S    
C8    C10   A    
C21   C24   A    
C46   C56   A    
C15   N2    A    
C18   H34   S    
C13   H49   S    
