data_mof_unit_53276.cif
_audit_creation_date              2013-03-05T16:30:29-0500
_audit_creation_method            fapswitch 2.2
_symmetry_space_group_name_H-M    P1
_symmetry_Int_Tables_number       1
_space_group_crystal_system       triclinic
_cell_length_a                    8.594861
_cell_length_b                    14.987886
_cell_length_c                    14.245197
_cell_angle_alpha                 91.137657
_cell_angle_beta                  99.328531
_cell_angle_gamma                 89.707868
_cell_volume                      1810.42060595

loop_
_atom_site_label
_atom_site_type_symbol
_atom_site_description
_atom_site_fract_x
_atom_site_fract_y
_atom_site_fract_z
_atom_type_partial_charge
O1    O     O_R   0.500010 0.369070 0.579480 -0.644564
O2    O     O_R   0.499990 0.630930 0.420520 -0.619007
O3    O     O_R   0.500010 0.369060 0.420520 -0.587781
O4    O     O_R   0.499990 0.630940 0.579480 -0.607449
C1    C     C_R   0.504099 0.327808 0.499737 0.924210
C2    C     C_R   0.498016 0.671561 0.500562 0.955683
O5    O     O_R   0.271750 0.500000 0.560890 -0.620403
O6    O     O_R   0.728250 0.500000 0.439110 -0.610865
O7    O     O_R   0.271750 0.499990 0.401930 -0.622741
O8    O     O_R   0.728250 0.500010 0.598070 -0.639224
C3    C     C_R   0.200975 0.499115 0.474848 1.020285
C4    C     C_R   0.799029 0.500112 0.525166 0.987095
Zn1   Zn    Zn3+2 0.500000 0.500010 0.606140 0.961692
Zn2   Zn    Zn3+2 0.500000 0.499990 0.393860 0.991321
C5    C     C_2   0.035345 0.499710 0.461667 -0.278327
C6    C     C_2   0.964628 0.499562 0.538504 -0.344728
H1    H     H_    0.972050 0.501110 0.389172 0.162197
H2    H     H_    0.027776 0.498794 0.611127 0.163944
C7    C     C_R   0.444524 0.096509 0.572976 -0.170927
C8    C     C_R   0.642578 0.901143 0.492250 -0.159750
H3    H     H_    0.391893 0.064259 0.627549 0.144369
H4    H     H_    0.751503 0.933577 0.483490 0.162137
C9    C     C_R   0.441487 0.188229 0.568999 -0.231960
C10   C     C_R   0.635027 0.809262 0.487938 -0.223039
H5    H     H_    0.383136 0.225307 0.619442 0.164797
H6    H     H_    0.737828 0.771215 0.475793 0.183955
C11   C     C_R   0.512160 0.231632 0.500623 -0.148360
C12   C     C_R   0.496999 0.766587 0.501833 -0.136026
C13   C     C_R   0.589328 0.182338 0.436227 0.310605
C14   C     C_R   0.363563 0.814996 0.519418 0.309425
C15   C     C_R   0.584787 0.089777 0.438095 -0.243022
C16   C     C_R   0.371841 0.907484 0.521986 -0.246590
H7    H     H_    0.639132 0.051105 0.387052 0.177710
H8    H     H_    0.268345 0.945995 0.531522 0.175303
C17   C     C_R   0.514031 0.047034 0.506698 0.075633
C18   C     C_R   0.510301 0.950449 0.508026 0.056934
C19   C     C_R   0.387060 0.453633 0.092154 -0.297831
C20   C     C_R   0.567952 0.568810 0.904138 -0.306160
H9    H     H_    0.294924 0.417539 0.046113 0.140865
H10   H     H_    0.618833 0.625233 0.946740 0.142969
C21   C     C_R   0.388338 0.453152 0.190995 0.144951
C22   C     C_R   0.568682 0.568441 0.805458 0.135224
N1    N     N_R   0.500000 0.499980 0.252470 -0.107370
N2    N     N_R   0.500000 0.500020 0.747530 -0.111075
C23   C     C_R   0.613977 0.545425 0.216978 -0.000866
C24   C     C_R   0.433690 0.430589 0.787216 -0.004790
H11   H     H_    0.703270 0.581346 0.265256 0.136108
H12   H     H_    0.380528 0.376344 0.742173 0.131337
C25   C     C_R   0.619053 0.544844 0.118476 -0.277156
C26   C     C_R   0.435160 0.427770 0.886312 -0.270657
H13   H     H_    0.714739 0.579420 0.094134 0.138816
H14   H     H_    0.385242 0.370035 0.914591 0.140611
C27   C     C_R   0.503476 0.498824 0.053599 0.134276
C28   C     C_R   0.502584 0.497988 0.947061 0.131580
N3    N     N_R   0.679204 0.224288 0.372795 0.180062
O9    O     O_R   0.775241 0.289143 0.403722 -0.441100
O10   O     O_R   0.686890 0.187609 0.290082 -0.468188
N4    N     N_R   0.218970 0.772122 0.531713 0.191318
O11   O     O_R   0.170187 0.701250 0.481659 -0.439220
O12   O     O_R   0.124563 0.810908 0.582713 -0.462406
C29   C     C_R   0.276227 0.393409 0.225589 0.142542
C30   C     C_R   0.321037 0.304984 0.245867 -0.109805
C31   C     C_R   0.213493 0.244653 0.272072 -0.198427
C32   C     C_R   0.058551 0.271495 0.274526 -0.045551
C33   C     C_R   0.010543 0.358510 0.250123 -0.112947
C34   C     C_R   0.118871 0.419336 0.224816 -0.189159
H15   H     H_    0.439176 0.282976 0.240637 0.190788
H16   H     H_    0.249744 0.176847 0.289282 0.158607
H17   H     H_    0.975890 0.224132 0.294032 0.217364
H18   H     H_    0.889492 0.378701 0.250404 0.179474
H19   H     H_    0.080585 0.486298 0.204957 0.134200
C35   C     C_R   0.649547 0.642938 0.768306 0.152113
C36   C     C_R   0.804770 0.632405 0.751053 -0.144105
C37   C     C_R   0.886150 0.705053 0.722734 -0.128847
C38   C     C_R   0.814601 0.789115 0.714157 -0.082802
C39   C     C_R   0.661592 0.800637 0.733909 -0.155024
C40   C     C_R   0.579395 0.727943 0.761480 -0.139900
H20   H     H_    0.863401 0.568336 0.760778 0.135436
H21   H     H_    0.005365 0.696337 0.708666 0.182605
H22   H     H_    0.877814 0.845433 0.692601 0.172961
H23   H     H_    0.606594 0.865845 0.727650 0.147290
H24   H     H_    0.461323 0.737698 0.777311 0.139355

loop_
_geom_bond_atom_site_label_1
_geom_bond_atom_site_label_2
_geom_bond_distance
_ccdc_geom_bond_type
C14   C16   1.387838 A    
N3    O9    1.301367 A    
C11   C13   1.411583 A    
C36   C37   1.397938 A    
C17   C18   1.448678 S    
C21   C29   1.467444 S    
O7    Zn2   1.983658 S    
C27   C28   1.516240 S    
O5    C3    1.276804 A    
C30   C31   1.394689 A    
C30   H15   1.079589 S    
O1    C1    1.287985 A    
C16   C18   1.400024 A    
C7    H3    1.083408 S    
C10   H6    1.084574 S    
C20   C22   1.406648 A    
N4    O12   1.301397 A    
C33   H18   1.082664 S    
O4    Zn1   2.006160 S    
C1    C11   1.442990 S    
C3    C5    1.405406 S    
C29   C34   1.403653 A    
C2    C12   1.423989 S    
C4    C6    1.405071 S    
C25   H13   1.081236 S    
C26   H14   1.081115 S    
C36   H20   1.083024 S    
C15   H7    1.083249 S    
C9    C11   1.400666 A    
C38   H22   1.082135 S    
C19   C27   1.400500 A    
C21   N1    1.374973 A    
O2    C2    1.284456 A    
C22   N2    1.376834 A    
N2    C24   1.364248 A    
C23   H11   1.081770 S    
C24   H12   1.081446 S    
C37   C38   1.397960 A    
C8    C10   1.378629 A    
C39   C40   1.398298 A    
O4    C2    1.286733 A    
C13   N3    1.436080 S    
N4    O11   1.300035 A    
C16   H8    1.083376 S    
C7    C9    1.376925 A    
C38   C39   1.397919 A    
C35   C40   1.405085 A    
N1    C23   1.363909 A    
C34   H19   1.083182 S    
C20   C28   1.399809 A    
C23   C25   1.410760 A    
O6    C4    1.277127 A    
C22   C35   1.469851 S    
C26   C28   1.414142 A    
C32   H17   1.078358 S    
O7    C3    1.286326 A    
O3    Zn2   2.006160 S    
O8    C4    1.285884 A    
C6    H2    1.087816 S    
C8    H4    1.083172 S    
C37   H21   1.082261 S    
N3    O10   1.301547 A    
C15   C17   1.398853 A    
O1    Zn1   1.991508 S    
C5    H1    1.086963 S    
C31   H16   1.082534 S    
O6    Zn2   1.963189 S    
C10   C12   1.394480 A    
C35   C36   1.402789 A    
O3    C1    1.292897 A    
O8    Zn1   1.983657 S    
C39   H23   1.082423 S    
C24   C26   1.411114 A    
C32   C33   1.399271 A    
C12   C14   1.407799 A    
C13   C15   1.388939 A    
C7    C17   1.395955 A    
C20   H10   1.082611 S    
C40   H24   1.083265 S    
C25   C27   1.414460 A    
C14   N4    1.439174 S    
C9    H5    1.083897 S    
C19   C21   1.406422 A    
C29   C30   1.400756 A    
O2    Zn2   1.991508 S    
C31   C32   1.394843 A    
C8    C18   1.398875 A    
O5    Zn1   1.963191 S    
C19   H9    1.082505 S    
C33   C34   1.399456 A    
Zn1   N2    2.014127 S    
C5    C6    1.335387 D    
Zn2   N1    2.014127 S    
