data_mof_unit_20591.cif
_audit_creation_date              2012-12-10T17:35:34-0500
_audit_creation_method            fapswitch 2.2
_symmetry_space_group_name_H-M    P1
_symmetry_Int_Tables_number       1
_space_group_crystal_system       triclinic
_cell_length_a                    10.738872
_cell_length_b                    12.310022
_cell_length_c                    13.165762
_cell_angle_alpha                 116.588072
_cell_angle_beta                  77.616778
_cell_angle_gamma                 101.258763
_cell_volume                      1510.34253284

loop_
_atom_site_label
_atom_site_type_symbol
_atom_type_description
_atom_site_fract_x
_atom_site_fract_y
_atom_site_fract_z
_atom_type_partial_charge
C1    C     C_R   0.511507 0.854824 0.286450 0.790067
C2    C     C_3   0.121415 0.002246 0.503107 0.049467
C3    C     C_3   0.076629 0.130279 0.590033 0.196814
C4    C     C_3   0.039972 0.906408 0.545286 -0.436148
C5    C     C_R   0.327037 0.275425 0.021510 -0.198971
C6    C     C_R   0.453637 0.228027 0.834654 -0.046969
C7    C     C_R   0.591766 0.815843 0.084260 -0.304842
C8    C     C_R   0.614669 0.737223 0.967669 0.464879
C9    C     C_R   0.568940 0.613757 0.931184 -0.188317
C10   C     C_R   0.495383 0.566941 0.008997 -0.009067
C11   C     C_R   0.458891 0.650267 0.123841 0.081728
C12   C     C_R   0.738850 0.002525 0.504981 0.785321
C13   C     C_R   0.455182 0.440127 0.976011 0.099738
C14   C     C_R   0.368003 0.400298 0.053476 0.174289
C15   C     C_R   0.320564 0.485632 0.160986 -0.245176
C16   C     C_R   0.364087 0.608780 0.195305 -0.179068
C17   C     C_R   0.500434 0.351263 0.868601 -0.248978
C18   C     C_R   0.368863 0.189592 0.912077 -0.199248
C19   C     C_R   0.517108 0.773058 0.163254 -0.148831
C20   C     C_R   0.706138 0.347846 0.329765 -0.302032
C21   C     C_R   0.325274 0.758919 0.644814 0.074600
C22   C     C_R   0.287608 0.662062 0.676247 -0.244645
C23   C     C_R   0.480900 0.145113 0.713489 0.795258
C24   C     C_R   0.353404 0.558921 0.621788 -0.179422
C25   C     C_R   0.458507 0.551404 0.534653 -0.005572
C26   C     C_R   0.493781 0.653284 0.505546 0.300583
C27   C     C_R   0.529888 0.447266 0.475490 -0.038295
C28   C     C_R   0.634512 0.447674 0.389149 0.186611
C29   C     C_R   0.667418 0.547675 0.362430 -0.290105
C30   C     C_R   0.598822 0.647937 0.419239 -0.187392
C31   C     C_R   0.502670 0.341885 0.497725 0.022572
C32   C     C_R   0.674407 0.247425 0.355783 0.066952
C33   C     C_R   0.259876 0.001859 0.502329 0.811972
C34   C     C_3   0.946802 0.962126 0.383359 -0.449709
C35   C     C_3   0.093153 0.970381 0.380304 0.003741
C36   C     C_3   0.935499 0.133560 0.582264 -0.418141
C37   C     C_3   0.895189 0.911838 0.556175 0.013047
C38   C     C_3   0.875809 0.002880 0.508357 0.065512
Cu1   Cu    Cu3+1 0.529690 0.098270 0.475420 0.941921
Cu2   Cu    Cu3+1 0.470310 0.901730 0.524580 0.911920
H1    H     H_    0.929262 0.020906 0.344764 0.157715
H2    H     H_    0.066121 0.923384 0.629065 0.171967
H3    H     H_    0.879701 0.171262 0.669805 0.151811
H4    H     H_    0.080574 0.142186 0.678281 0.139157
H5    H     H_    0.331253 0.094274 0.886657 0.147585
H6    H     H_    0.249783 0.457080 0.219186 0.140129
H7    H     H_    0.260017 0.244589 0.080118 0.130595
H8    H     H_    0.571905 0.375323 0.808670 0.146805
H9    H     H_    0.634528 0.910133 0.113457 0.148609
H10   H     H_    0.589680 0.557599 0.840440 0.154276
H11   H     H_    0.906546 0.867234 0.330212 0.171302
H12   H     H_    0.319209 0.670679 0.277461 0.174204
H13   H     H_    0.729236 0.170008 0.310285 0.116781
H14   H     H_    0.747514 0.548659 0.296613 0.147771
H15   H     H_    0.786224 0.347560 0.263641 0.132926
H16   H     H_    0.425094 0.333655 0.561852 0.159035
H17   H     H_    0.273701 0.838608 0.687606 0.119991
H18   H     H_    0.320083 0.486760 0.649601 0.165754
H19   H     H_    0.207108 0.666946 0.743085 0.150883
H20   H     H_    0.632256 0.719367 0.392199 0.204073
H21   H     H_    0.140692 0.045552 0.355688 0.160395
H22   H     H_    0.930578 0.196050 0.543285 0.186690
H23   H     H_    0.852025 0.818572 0.502101 0.173081
H24   H     H_    0.063147 0.812321 0.485675 0.179634
N1    N     N_R   0.574690 0.246280 0.438200 -0.182185
N2    N     N_R   0.426100 0.754320 0.561190 -0.206716
O1    O     O_R   0.537340 0.972510 0.318130 -0.579227
O2    O     O_R   0.487200 0.806530 0.359650 -0.603108
O3    O     O_R   0.707380 0.082980 0.479220 -0.589287
O4    O     O_R   0.657240 0.917000 0.520740 -0.607102
O5    O     O_R   0.512800 0.193470 0.640350 -0.580788
O6    O     O_R   0.462660 0.027490 0.681870 -0.592005
O7    O     O_R   0.342760 0.083000 0.479260 -0.549614
O8    O     O_R   0.292620 0.917020 0.520780 -0.609778
O9    O     O_3   0.684873 0.777369 0.887567 -0.743159
H25   H     H_    0.709989 0.866699 0.926549 0.312910
C39   C     C_3   0.146799 0.853583 0.284523 -0.883416
H26   H     H_    0.252421 0.861917 0.278462 0.224590
H27   H     H_    0.103390 0.771001 0.298422 0.234567
H28   H     H_    0.125698 0.840331 0.200467 0.240148
O10   O     O_3   0.157101 0.229338 0.576236 -0.741765
H29   H     H_    0.147803 0.227682 0.502284 0.322465
C40   C     C_3   0.831065 0.942946 0.681689 -0.850208
H30   H     H_    0.878757 0.028913 0.742707 0.218022
H31   H     H_    0.727751 0.952548 0.695008 0.263166
H32   H     H_    0.839048 0.868212 0.704565 0.255258

loop_
_geom_bond_atom_site_label_1
_geom_bond_atom_site_label_2
_ccdc_geom_bond_type
C2    C35   S    
C12   O3    A    
C21   N2    A    
C17   H8    S    
O10   H29   S    
C7    C8    A    
C39   H26   S    
C5    H7    S    
C11   C19   A    
C34   H11   S    
C29   C30   A    
Cu2   O4    S    
C28   C29   A    
C29   H14   S    
C15   C16   A    
C1    O2    A    
C34   C35   S    
C8    C9    A    
C30   H20   S    
C3    O10   S    
C31   H16   S    
C9    C10   A    
Cu2   N2    S    
C13   C14   A    
Cu1   N1    S    
C34   H1    S    
C20   H15   S    
C36   H22   S    
C37   H23   S    
C39   H27   S    
C6    C18   A    
C3    H4    S    
C1    C19   S    
C27   C31   A    
C26   N2    A    
C23   O5    A    
C24   C25   A    
C7    H9    S    
Cu1   Cu2   S    
C5    C18   A    
C20   C28   A    
C25   C26   A    
C35   C39   S    
C8    O9    S    
C2    C4    S    
O9    H25   S    
C21   H17   S    
C37   C38   S    
C11   C16   A    
C40   H30   S    
Cu1   O3    S    
C35   H21   S    
C5    C14   A    
C2    C33   S    
C33   O7    A    
C40   H31   S    
C26   C30   A    
C7    C19   A    
C22   C24   A    
C18   H5    S    
C32   H13   S    
C22   H19   S    
C20   C32   A    
C39   H28   S    
C31   N1    A    
C6    C17   A    
C12   O4    A    
Cu2   O6    S    
C34   C38   S    
Cu1   O1    S    
C23   O6    A    
C9    H10   S    
C16   H12   S    
C10   C13   A    
C25   C27   A    
C4    H24   S    
C13   C17   A    
C36   C38   S    
C2    C3    S    
C4    H2    S    
C3    C36   S    
C6    C23   S    
C1    O1    A    
Cu2   O8    S    
Cu1   O7    S    
C12   C38   S    
C10   C11   A    
C33   O8    A    
C40   H32   S    
C4    C37   S    
C24   H18   S    
Cu2   O2    S    
C27   C28   A    
Cu1   O5    S    
C14   C15   A    
C37   C40   S    
C36   H3    S    
C15   H6    S    
C21   C22   A    
C32   N1    A    
