data_mof_unit_26586.cif
_audit_creation_date              2012-12-10T20:37:33-0500
_audit_creation_method            fapswitch 2.2
_symmetry_space_group_name_H-M    P1
_symmetry_Int_Tables_number       1
_space_group_crystal_system       triclinic
_cell_length_a                    15.712445
_cell_length_b                    10.674148
_cell_length_c                    9.890712
_cell_angle_alpha                 89.353168
_cell_angle_beta                  89.363341
_cell_angle_gamma                 90.658409
_cell_volume                      1658.52012761

loop_
_atom_site_label
_atom_site_type_symbol
_atom_type_description
_atom_site_fract_x
_atom_site_fract_y
_atom_site_fract_z
_atom_type_partial_charge
C1    C     C_R   0.497920 0.260271 0.500908 0.907647
C2    C     C_R   0.487211 0.128742 0.504456 -0.160589
C3    C     C_R   0.447484 0.067337 0.397578 -0.345726
C4    C     C_R   0.337921 0.499903 0.500634 0.915342
C5    C     C_R   0.449007 0.936843 0.392652 0.460959
C6    C     C_R   0.487027 0.871609 0.500739 -0.212442
C7    C     C_R   0.511411 0.934826 0.616644 0.077852
C8    C     C_3   0.592152 0.926810 0.694739 -0.455286
C9    C     C_3   0.592606 0.068867 0.696294 -0.468019
C10   C     C_R   0.437368 0.438401 0.073026 0.209794
C11   C     C_R   0.558242 0.569989 0.068426 -0.002838
C12   C     C_3   0.082586 0.500589 0.501097 0.201913
C13   C     C_R   0.557472 0.569113 0.924554 -0.105767
C14   C     C_R   0.437211 0.438809 0.930761 0.213865
C15   C     C_3   0.416817 0.302254 0.926520 -0.496294
C16   C     C_R   0.497263 0.739816 0.499396 0.908892
C17   C     C_3   0.417790 0.301493 0.079969 -0.517391
C18   C     C_R   0.662074 0.500254 0.499350 0.892111
C19   C     C_3   0.970156 0.397851 0.564908 -0.163433
C20   C     C_3   0.028063 0.397652 0.437424 -0.169439
C21   C     C_1   0.248896 0.500104 0.501937 -0.176341
C22   C     C_1   0.751098 0.500598 0.497946 -0.170201
C23   C     C_3   0.971929 0.603809 0.562184 -0.160058
C24   C     C_3   0.026471 0.500788 0.628587 -0.158800
C25   C     C_2   0.623543 0.648653 0.134355 0.389461
C26   C     C_3   0.452266 0.897349 0.165430 0.120700
C27   C     C_3   0.410022 0.822193 0.054409 -0.795801
C28   C     C_3   0.917411 0.500865 0.498513 0.202542
C29   C     C_3   0.029850 0.603612 0.434695 -0.159644
C30   C     C_3   0.973523 0.500671 0.371017 -0.156669
C31   C     C_1   0.173521 0.500334 0.502044 -0.076639
C32   C     C_1   0.826475 0.500817 0.497688 -0.068019
C33   C     C_R   0.511705 0.062218 0.618498 0.125999
H1    H     H_    0.053211 0.313387 0.386526 0.137225
H2    H     H_    0.943553 0.313752 0.618041 0.137184
H3    H     H_    0.949687 0.500639 0.265770 0.146051
H4    H     H_    0.056461 0.687704 0.381562 0.142246
H5    H     H_    0.946773 0.688071 0.613078 0.140333
H6    H     H_    0.050296 0.500826 0.733840 0.137844
H7    H     H_    0.418058 0.120276 0.317125 0.168069
H8    H     H_    0.581847 0.883596 0.796507 0.210800
H9    H     H_    0.617617 0.675215 0.238287 0.130307
H10   H     H_    0.520105 0.869105 0.171932 0.133441
H11   H     H_    0.449350 0.997974 0.135727 0.129537
H12   H     H_    0.645493 0.887023 0.634779 0.195654
H13   H     H_    0.344150 0.855597 0.038721 0.250532
H14   H     H_    0.446723 0.833683 0.958359 0.202598
H15   H     H_    0.407380 0.721431 0.082971 0.256830
H16   H     H_    0.582978 0.107485 0.799118 0.200099
H17   H     H_    0.646061 0.112086 0.636905 0.198247
H18   H     H_    0.603712 0.623497 0.866180 0.189912
H19   H     H_    0.352654 0.283671 0.884466 0.202724
H20   H     H_    0.468918 0.246797 0.880824 0.215677
H21   H     H_    0.354349 0.281387 0.126626 0.202146
H22   H     H_    0.471092 0.246448 0.122309 0.211078
N1    N     N_R   0.499430 0.499140 0.142800 -0.156053
N2    N     N_R   0.499430 0.499180 0.857150 -0.130686
O1    O     O_R   0.500010 0.316790 0.614690 -0.618438
O2    O     O_3   0.409050 0.873073 0.289282 -0.590417
O3    O     O_R   0.500000 0.316760 0.385350 -0.623806
O4    O     O_R   0.376780 0.500010 0.614650 -0.615845
O5    O     O_R   0.376770 0.499970 0.385310 -0.602958
O6    O     O_R   0.500000 0.683240 0.614650 -0.621239
O7    O     O_R   0.499990 0.683210 0.385310 -0.619498
O8    O     O_R   0.623230 0.500030 0.614690 -0.612299
O9    O     O_R   0.623220 0.499990 0.385350 -0.639082
O10   O     O_2   0.685636 0.687884 0.070911 -0.609343
Zn1   Zn    Zn3+2 0.500010 0.500020 0.653130 0.946481
Zn2   Zn    Zn3+2 0.499990 0.499980 0.346870 0.946968

loop_
_geom_bond_atom_site_label_1
_geom_bond_atom_site_label_2
_ccdc_geom_bond_type
C25   H9    S    
C27   H15   S    
C23   C24   S    
C1    O1    A    
C29   C30   S    
C4    C21   S    
C16   O6    A    
C12   C24   S    
C12   C29   S    
C18   O9    A    
C23   H5    S    
C10   N1    A    
C26   O2    S    
C17   H22   S    
C19   C20   S    
C25   O10   D    
C30   H3    S    
O8    Zn1   S    
C20   H1    S    
C12   C20   S    
C28   C30   S    
C19   C24   S    
O7    Zn2   S    
C26   H11   S    
C7    C8    S    
C4    O4    A    
C19   H2    S    
C15   H19   S    
C18   O8    A    
C9    C33   S    
C19   C28   S    
C11   C13   A    
O4    Zn1   S    
C1    C2    S    
C26   C27   S    
C6    C7    A    
C11   N1    A    
C22   C32   T    
O3    Zn2   S    
C18   C22   S    
C23   C29   S    
C27   H13   S    
O1    Zn1   S    
C26   H10   S    
C2    C3    A    
C12   C31   S    
C5    C6    A    
C29   H4    S    
O9    Zn2   S    
C13   N2    A    
C23   C28   S    
C7    C33   A    
N2    Zn1   S    
C6    C16   S    
C10   C17   S    
C15   H20   S    
C11   C25   S    
C4    O5    A    
C28   C32   S    
C24   H6    S    
C9    H16   S    
C8    H8    S    
C2    C33   A    
N1    Zn2   S    
C10   C14   A    
C1    O3    A    
C27   H14   S    
C15   C17   S    
C14   N2    A    
C5    O2    S    
C14   C15   S    
O6    Zn1   S    
C20   C30   S    
C16   O7    A    
C3    C5    A    
C3    H7    S    
C13   H18   S    
C17   H21   S    
C9    H17   S    
C8    H12   S    
O5    Zn2   S    
C8    C9    S    
C21   C31   T    
