data_mof_unit_5174.cif
_audit_creation_date              2012-12-10T18:53:43-0500
_audit_creation_method            fapswitch 2.2
_symmetry_space_group_name_H-M    P1
_symmetry_Int_Tables_number       1
_space_group_crystal_system       triclinic
_cell_length_a                    10.799698
_cell_length_b                    9.839119
_cell_length_c                    19.223762
_cell_angle_alpha                 90.051762
_cell_angle_beta                  91.561139
_cell_angle_gamma                 90.364061
_cell_volume                      2041.90699232

loop_
_atom_site_label
_atom_site_type_symbol
_atom_type_description
_atom_site_fract_x
_atom_site_fract_y
_atom_site_fract_z
_atom_type_partial_charge
C1    C     C_R   0.260301 0.499637 0.505941 0.884788
C2    C     C_R   0.739552 0.500537 0.493774 0.883946
C3    C     C_R   0.489562 0.528154 0.931119 0.281574
C4    C     C_R   0.522415 0.528641 0.069686 0.281661
C5    C     C_R   0.509622 0.500303 0.365415 0.881839
C6    C     C_R   0.491466 0.500286 0.634729 0.881590
C7    C     C_R   0.060962 0.375347 0.505606 -0.052784
C8    C     C_R   0.938422 0.625910 0.493625 -0.055708
C9    C     C_R   0.936613 0.377283 0.486897 -0.053602
C10   C     C_R   0.063243 0.624089 0.511299 -0.056293
C11   C     C_R   0.872911 0.501749 0.487808 -0.161816
C12   C     C_R   0.126740 0.499271 0.511189 -0.162126
C13   C     C_R   0.580386 0.072790 0.542755 0.015860
C14   C     C_R   0.421299 0.927122 0.456272 0.013938
C15   C     C_R   0.420056 0.071610 0.456985 0.015523
C16   C     C_R   0.578519 0.928318 0.543813 0.014916
C17   C     C_R   0.562350 0.628528 0.256501 -0.042743
C18   C     C_R   0.478273 0.382358 0.751387 -0.043667
C19   C     C_R   0.444627 0.628145 0.744671 -0.042193
C20   C     C_R   0.528369 0.382420 0.249039 -0.044203
C21   C     C_R   0.561684 0.637234 0.183596 0.048885
C22   C     C_R   0.481332 0.389937 0.824436 0.049316
C23   C     C_R   0.447972 0.636670 0.817612 0.048450
C24   C     C_R   0.528489 0.390056 0.176036 0.049071
C25   C     C_R   0.538894 0.518556 0.144326 0.010884
C26   C     C_R   0.472209 0.518246 0.856473 0.010030
C27   C     C_R   0.532727 0.503287 0.289489 -0.198807
C28   C     C_R   0.471930 0.503141 0.711062 -0.198760
N1    N     N_R   0.500000 0.857200 0.500000 -0.125240
N2    N     N_R   0.500000 0.142800 0.500000 -0.127352
N3    N     N_R   0.621742 0.525861 0.028356 -0.185366
N4    N     N_R   0.390292 0.531851 0.972463 -0.183907
N5    N     N_R   0.605419 0.525762 0.959736 -0.178284
N6    N     N_R   0.406612 0.532198 0.041071 -0.179106
O1    O     O_R   0.316770 0.614620 0.500000 -0.615122
O2    O     O_R   0.683230 0.385380 0.500000 -0.615818
O3    O     O_R   0.683230 0.614620 0.500000 -0.616343
O4    O     O_R   0.316770 0.385380 0.500000 -0.616238
O5    O     O_R   0.499990 0.614700 0.398140 -0.610921
O6    O     O_R   0.500010 0.385300 0.601860 -0.609646
O7    O     O_R   0.500010 0.614700 0.601860 -0.610666
O8    O     O_R   0.499990 0.385300 0.398140 -0.609965
Zn1   Zn    Zn3+2 0.500000 0.653120 0.500000 0.995306
Zn2   Zn    Zn3+2 0.500000 0.346880 0.500000 0.995032
C29   C     C_1   0.115912 0.246428 0.525593 0.227918
N7    N     N_1   0.159205 0.143979 0.542351 -0.180259
C30   C     C_1   0.882205 0.755588 0.476012 0.229138
N8    N     N_1   0.838122 0.858835 0.461394 -0.177742
C31   C     C_1   0.878539 0.252740 0.461119 0.221908
N9    N     N_1   0.832273 0.154224 0.439885 -0.173872
C32   C     C_1   0.122030 0.749784 0.534923 0.223017
N10   N     N_1   0.168636 0.849510 0.554234 -0.170810
C33   C     C_1   0.601854 0.747122 0.296543 0.202259
N11   N     N_1   0.633944 0.841620 0.328262 -0.174855
C34   C     C_1   0.472892 0.248998 0.719342 0.209320
N12   N     N_1   0.466858 0.141681 0.694801 -0.201508
C35   C     C_1   0.405573 0.747087 0.705375 0.203012
N13   N     N_1   0.373950 0.842033 0.674337 -0.175097
C36   C     C_1   0.532766 0.249127 0.281014 0.210168
N14   N     N_1   0.538117 0.141884 0.305501 -0.200900
C37   C     C_3   0.586178 0.772730 0.147527 -0.423725
C38   C     C_3   0.724933 0.791473 0.135095 -0.314742
C39   C     C_3   0.749399 0.917635 0.091433 -0.875941
H1    H     H_    0.700992 0.908477 0.039932 0.268274
H2    H     H_    0.716872 0.009924 0.118424 0.259165
H3    H     H_    0.850345 0.928246 0.083165 0.255227
H4    H     H_    0.776066 0.801292 0.185827 0.228154
H5    H     H_    0.761363 0.701482 0.107551 0.238621
H6    H     H_    0.533105 0.779493 0.097370 0.206439
H7    H     H_    0.552210 0.859094 0.178870 0.205570
C40   C     C_3   0.494858 0.260906 0.868270 -0.423444
C41   C     C_3   0.630189 0.214684 0.872744 -0.305313
C42   C     C_3   0.646391 0.095507 0.922786 -0.902189
H8    H     H_    0.621729 0.126342 0.976219 0.264388
H9    H     H_    0.586725 0.008774 0.905847 0.262065
H10   H     H_    0.744463 0.062229 0.923796 0.258866
H11   H     H_    0.660784 0.183360 0.820420 0.228859
H12   H     H_    0.690580 0.299893 0.891233 0.240030
H13   H     H_    0.460390 0.275846 0.921580 0.211275
H14   H     H_    0.435675 0.178249 0.845972 0.197040
C43   C     C_3   0.424629 0.771780 0.854144 -0.422530
C44   C     C_3   0.285892 0.790273 0.866218 -0.312794
C45   C     C_3   0.262712 0.912816 0.912576 -0.877545
H15   H     H_    0.308725 0.898203 0.964356 0.269399
H16   H     H_    0.298734 0.006900 0.888403 0.258923
H17   H     H_    0.161670 0.924264 0.919825 0.255248
H18   H     H_    0.235842 0.804492 0.815496 0.227437
H19   H     H_    0.247327 0.698336 0.891474 0.238660
H20   H     H_    0.477342 0.778247 0.904455 0.207274
H21   H     H_    0.459892 0.858437 0.823208 0.204124
C46   C     C_3   0.515672 0.261020 0.131922 -0.423454
C47   C     C_3   0.380078 0.214350 0.125762 -0.306877
C48   C     C_3   0.365189 0.093174 0.076658 -0.902612
H22   H     H_    0.393346 0.121699 0.023463 0.264716
H23   H     H_    0.422729 0.007050 0.095528 0.262610
H24   H     H_    0.266696 0.060058 0.074204 0.259064
H25   H     H_    0.346535 0.185022 0.177818 0.229510
H26   H     H_    0.321499 0.298737 0.105542 0.239646
H27   H     H_    0.552230 0.276146 0.079082 0.211599
H28   H     H_    0.573346 0.178600 0.154818 0.197824
C49   C     C_1   0.667959 0.146738 0.586669 0.262062
N15   N     N_1   0.738535 0.205120 0.622096 -0.209569
C50   C     C_1   0.339450 0.852896 0.409159 0.253756
N16   N     N_1   0.273542 0.794142 0.371170 -0.204070
C51   C     C_1   0.334565 0.144457 0.411900 0.262473
N17   N     N_1   0.265757 0.201992 0.375492 -0.210430
C52   C     C_1   0.658991 0.855340 0.591659 0.254658
N18   N     N_1   0.723740 0.797604 0.630261 -0.205355

loop_
_geom_bond_atom_site_label_1
_geom_bond_atom_site_label_2
_ccdc_geom_bond_type
C37   H7    S    
C5    O8    A    
C39   H2    S    
C48   H22   S    
C42   H9    S    
C42   H8    S    
C34   N12   T    
C40   H13   S    
C4    C25   S    
C14   C50   S    
C47   H26   S    
C33   N11   T    
C19   C35   S    
C38   C39   S    
C38   H4    S    
C7    C29   S    
C3    N5    A    
C2    O2    A    
C44   H18   S    
C23   C26   A    
C41   H12   S    
C16   C52   S    
C5    C27   S    
C6    C28   S    
C20   C24   A    
C6    O7    A    
C30   N8    T    
C52   N18   T    
N3    N5    A    
C46   H28   S    
O1    Zn1   S    
C21   C37   S    
C43   H20   S    
C39   H3    S    
C36   N14   T    
C48   H23   S    
N1    Zn1   S    
O7    Zn1   S    
N2    Zn2   S    
C3    N4    A    
C1    C12   S    
O8    Zn2   S    
C2    C11   S    
C40   H14   S    
C47   H25   S    
C43   C44   S    
C7    C12   A    
C4    N6    A    
C32   N10   T    
C17   C27   A    
C49   N15   T    
C13   N2    A    
C18   C28   A    
C24   C25   A    
C46   C47   S    
O5    Zn1   S    
C16   N1    A    
C29   N7    T    
C17   C21   A    
N4    N6    A    
O3    Zn1   S    
C19   C23   A    
O4    Zn2   S    
C41   H11   S    
C45   H15   S    
C9    C31   S    
C20   C36   S    
C19   C28   A    
C9    C11   A    
C10   C12   A    
C1    O4    A    
C43   H21   S    
C18   C34   S    
C45   H16   S    
C44   C45   S    
C48   H24   S    
C5    O5    A    
C42   H10   S    
C6    O6    A    
O2    Zn2   S    
C14   N1    A    
C13   C49   S    
C24   C46   S    
C17   C33   S    
C22   C40   S    
C1    O1    A    
C15   N2    A    
C37   H6    S    
C7    C9    A    
C21   C25   A    
C23   C43   S    
C18   C22   A    
C3    C26   S    
C41   C42   S    
C20   C27   A    
C51   N17   T    
C38   H5    S    
C10   C32   S    
C15   C51   S    
C8    C30   S    
C40   C41   S    
C2    O3    A    
C35   N13   T    
C8    C11   A    
C44   H19   S    
C47   C48   S    
C37   C38   S    
C4    N3    A    
C39   H1    S    
O6    Zn2   S    
C45   H17   S    
C8    C10   A    
C31   N9    T    
C22   C26   A    
C13   C16   A    
C50   N16   T    
C14   C15   A    
C46   H27   S    
