data_mof_unit_10850.cif
_audit_creation_date              2012-12-10T17:17:15-0500
_audit_creation_method            fapswitch 2.2
_symmetry_space_group_name_H-M    P1
_symmetry_Int_Tables_number       1
_space_group_crystal_system       triclinic
_cell_length_a                    21.712539
_cell_length_b                    21.712539
_cell_length_c                    21.712539
_cell_angle_alpha                 90.000036
_cell_angle_beta                  90.000022
_cell_angle_gamma                 90.0
_cell_volume                      10236.0367065

loop_
_atom_site_label
_atom_site_type_symbol
_atom_type_description
_atom_site_fract_x
_atom_site_fract_y
_atom_site_fract_z
_atom_type_partial_charge
C1    C     C_R   0.500000 0.119744 0.000000 0.842428
C2    C     C_R   0.500000 0.000000 0.880256 0.842429
C3    C     C_R   0.279769 0.391161 0.130959 0.243603
C4    C     C_R   0.869041 0.608839 0.720231 0.243604
C5    C     C_R   0.720231 0.608838 0.130959 0.243604
C6    C     C_R   0.130959 0.608839 0.279769 0.243603
C7    C     C_R   0.279769 0.608839 0.869041 0.243603
C8    C     C_R   0.608839 0.720231 0.869041 0.243604
C9    C     C_R   0.608839 0.130959 0.720231 0.243604
C10   C     C_R   0.608839 0.279769 0.130959 0.243604
C11   C     C_R   0.608839 0.869041 0.279769 0.243604
C12   C     C_R   0.391161 0.279769 0.869040 0.243603
C13   C     C_R   1.000000 0.500000 0.119744 0.842428
C14   C     C_R   0.391161 0.869041 0.720230 0.243603
C15   C     C_R   0.391161 0.720231 0.130959 0.243603
C16   C     C_R   0.391161 0.130959 0.279769 0.243603
C17   C     C_R   0.279769 0.130959 0.608838 0.243603
C18   C     C_R   0.869041 0.279769 0.608839 0.243603
C19   C     C_R   0.720231 0.869041 0.608839 0.243603
C20   C     C_R   0.130959 0.720231 0.608839 0.243603
C21   C     C_R   0.720231 0.130959 0.391161 0.243603
C22   C     C_R   0.130959 0.279769 0.391161 0.243603
C23   C     C_R   0.279769 0.869040 0.391161 0.243603
C24   C     C_R   0.500000 0.000000 0.119744 0.842428
C25   C     C_R   0.869040 0.720231 0.391161 0.243604
C26   C     C_R   0.462575 0.956982 0.718819 0.028918
C27   C     C_R   0.281181 0.956982 0.462575 0.028918
C28   C     C_R   0.537425 0.956982 0.281181 0.028918
C29   C     C_R   0.718819 0.956982 0.537425 0.028918
C30   C     C_R   0.462575 0.043018 0.281181 0.028918
C31   C     C_R   0.281181 0.043018 0.537425 0.028918
C32   C     C_R   0.537425 0.043018 0.718819 0.028918
C33   C     C_R   0.718819 0.043018 0.462575 0.028918
C34   C     C_R   0.043018 0.281181 0.462575 0.028918
C35   C     C_R   0.000000 0.620166 0.500000 0.853654
C36   C     C_R   0.043018 0.537425 0.281181 0.028917
C37   C     C_R   0.043018 0.718819 0.537425 0.028917
C38   C     C_R   0.043018 0.462575 0.718819 0.028918
C39   C     C_R   0.956982 0.718819 0.462575 0.028918
C40   C     C_R   0.956982 0.462575 0.281181 0.028918
C41   C     C_R   0.956982 0.281181 0.537425 0.028917
C42   C     C_R   0.956982 0.537425 0.718819 0.028918
C43   C     C_R   0.718819 0.537425 0.043018 0.028918
C44   C     C_R   0.462575 0.718819 0.043018 0.028918
C45   C     C_R   0.281181 0.462575 0.043018 0.028918
C46   C     C_R   0.500000 0.620166 0.000000 0.853654
C47   C     C_R   0.537425 0.281181 0.043018 0.028918
C48   C     C_R   0.281181 0.537425 0.956982 0.028918
C49   C     C_R   0.537425 0.718819 0.956982 0.028918
C50   C     C_R   0.718819 0.462575 0.956982 0.028918
C51   C     C_R   0.462575 0.281181 0.956982 0.028918
C52   C     C_R   0.953223 0.467818 0.217120 0.022353
C53   C     C_R   0.782880 0.467818 0.953223 0.022353
C54   C     C_R   0.046777 0.467818 0.782880 0.022353
C55   C     C_R   0.217120 0.467818 0.046777 0.022353
C56   C     C_R   0.953223 0.532182 0.782880 0.022353
C57   C     C_R   0.000000 0.379834 0.500000 0.853654
C58   C     C_R   0.782880 0.532182 0.046777 0.022353
C59   C     C_R   0.046777 0.532182 0.217120 0.022353
C60   C     C_R   0.217120 0.532182 0.953223 0.022353
C61   C     C_R   0.532182 0.782880 0.953223 0.022353
C62   C     C_R   0.532182 0.046777 0.782880 0.022353
C63   C     C_R   0.532182 0.217120 0.046777 0.022353
C64   C     C_R   0.532182 0.953223 0.217120 0.022353
C65   C     C_R   0.467818 0.217120 0.953223 0.022353
C66   C     C_R   0.467818 0.953223 0.782880 0.022353
C67   C     C_R   0.467818 0.782880 0.046777 0.022352
C68   C     C_R   0.500000 0.379834 1.000000 0.853654
C69   C     C_R   0.467818 0.046777 0.217120 0.022353
C70   C     C_R   0.217120 0.046777 0.532182 0.022353
C71   C     C_R   0.953223 0.217120 0.532182 0.022353
C72   C     C_R   0.782880 0.953223 0.532182 0.022353
C73   C     C_R   0.046777 0.782880 0.532182 0.022353
C74   C     C_R   0.782880 0.046777 0.467818 0.022353
C75   C     C_R   0.046777 0.217120 0.467818 0.022353
C76   C     C_R   0.217120 0.953223 0.467818 0.022353
C77   C     C_R   0.953223 0.782880 0.467818 0.022353
C78   C     C_R   0.500000 0.000000 0.686742 -0.162109
C79   C     C_R   0.379834 0.500000 1.000000 0.853654
C80   C     C_R   0.313258 0.000000 0.500000 -0.162109
C81   C     C_R   0.500000 1.000000 0.313258 -0.162109
C82   C     C_R   0.686742 0.000000 0.500000 -0.162109
C83   C     C_R   1.000000 0.313258 0.500000 -0.162109
C84   C     C_R   1.000000 0.500000 0.313258 -0.162109
C85   C     C_R   1.000000 0.686742 0.500000 -0.162109
C86   C     C_R   0.000000 0.500000 0.686742 -0.162109
C87   C     C_R   0.686742 0.500000 0.000000 -0.162109
C88   C     C_R   0.500000 0.686742 0.000000 -0.162109
C89   C     C_R   0.313258 0.500000 1.000000 -0.162109
C90   C     C_R   0.379834 1.000000 0.500000 0.853654
C91   C     C_R   0.500000 0.313258 1.000000 -0.162109
C92   C     C_R   1.000000 0.500000 0.185665 -0.148764
C93   C     C_R   0.814335 0.500000 0.000000 -0.148764
C94   C     C_R   1.000000 0.500000 0.814335 -0.148764
C95   C     C_R   0.185665 0.500000 0.000000 -0.148764
C96   C     C_R   0.500000 0.814335 0.000000 -0.148764
C97   C     C_R   0.500000 0.000000 0.814335 -0.148764
C98   C     C_R   0.500000 0.185665 1.000000 -0.148764
C99   C     C_R   0.500000 0.000000 0.185665 -0.148764
C100  C     C_R   0.185664 1.000000 0.500000 -0.148764
C101  C     C_R   0.620166 0.500000 0.000000 0.853654
C102  C     C_R   0.000000 0.185665 0.500000 -0.148764
C103  C     C_R   0.814335 1.000000 0.500000 -0.148764
C104  C     C_R   0.000000 0.814335 0.500000 -0.148764
C105  C     C_3   0.623745 0.192961 0.818338 -0.920518
C106  C     C_3   0.181662 0.192961 0.623745 -0.920520
C107  C     C_3   0.376255 0.192961 0.181662 -0.920521
C108  C     C_3   0.818338 0.192961 0.376255 -0.920520
C109  C     C_3   0.623745 0.807039 0.181662 -0.920520
C110  C     C_3   0.181662 0.807039 0.376255 -0.920520
C111  C     C_3   0.376255 0.807039 0.818338 -0.920520
C112  C     C_R   0.000000 0.119744 0.500000 0.842428
C113  C     C_R   0.620166 0.000000 0.500000 0.853654
C114  C     C_3   0.818338 0.807039 0.623745 -0.920519
C115  C     C_3   0.807039 0.181662 0.623745 -0.920521
C116  C     C_3   0.807039 0.376255 0.181662 -0.920519
C117  C     C_3   0.807039 0.818338 0.376255 -0.920520
C118  C     C_3   0.807039 0.623745 0.818338 -0.920520
C119  C     C_3   0.192961 0.818338 0.623745 -0.920520
C120  C     C_3   0.192961 0.623745 0.181662 -0.920520
C121  C     C_3   0.192961 0.181662 0.376255 -0.920519
C122  C     C_3   0.192961 0.376255 0.818338 -0.920520
C123  C     C_3   0.818338 0.376255 0.807039 -0.920520
C124  C     C_R   0.500000 1.000000 0.379834 0.853654
C125  C     C_3   0.623745 0.818338 0.807039 -0.920520
C126  C     C_3   0.181662 0.623745 0.807039 -0.920520
C127  C     C_3   0.376255 0.181662 0.807039 -0.920521
C128  C     C_3   0.181662 0.376255 0.192961 -0.920520
C129  C     C_3   0.376255 0.818338 0.192961 -0.920520
C130  C     C_3   0.818338 0.623745 0.192961 -0.920519
C131  C     C_3   0.623745 0.181662 0.192961 -0.920520
C132  C     C_3   0.173371 0.651643 0.314147 -0.933292
C133  C     C_3   0.685853 0.651643 0.173371 -0.933291
C134  C     C_3   0.826629 0.651643 0.685853 -0.933291
C135  C     C_R   1.000000 0.500000 0.379834 0.853654
C136  C     C_3   0.314147 0.651643 0.826629 -0.933291
C137  C     C_3   0.173371 0.348357 0.685853 -0.933291
C138  C     C_3   0.685853 0.348357 0.826629 -0.933292
C139  C     C_3   0.826629 0.348357 0.314147 -0.933291
C140  C     C_3   0.314147 0.348357 0.173371 -0.933292
C141  C     C_3   0.348357 0.685853 0.173371 -0.933291
C142  C     C_3   0.348357 0.826629 0.685853 -0.933291
C143  C     C_3   0.348357 0.314147 0.826629 -0.933292
C144  C     C_3   0.348357 0.173371 0.314147 -0.933292
C145  C     C_3   0.651643 0.314147 0.173371 -0.933291
C146  C     C_R   0.500000 0.000000 0.620166 0.853654
C147  C     C_3   0.651643 0.173371 0.685853 -0.933293
C148  C     C_3   0.651643 0.685853 0.826629 -0.933291
C149  C     C_3   0.651643 0.826629 0.314147 -0.933291
C150  C     C_3   0.314147 0.826629 0.348357 -0.933291
C151  C     C_3   0.173371 0.314147 0.348357 -0.933292
C152  C     C_3   0.685853 0.173371 0.348357 -0.933291
C153  C     C_3   0.826629 0.685853 0.348357 -0.933291
C154  C     C_3   0.685853 0.826629 0.651643 -0.933293
C155  C     C_3   0.826629 0.314147 0.651643 -0.933291
C156  C     C_3   0.314147 0.173371 0.651643 -0.933290
C157  C     C_R   0.000000 0.500000 0.620166 0.853654
C158  C     C_3   0.173371 0.685853 0.651643 -0.933291
C159  C     C_R   0.440316 0.903067 0.814171 -0.210110
C160  C     C_R   0.185829 0.903067 0.440316 -0.210110
C161  C     C_R   0.559684 0.903067 0.185829 -0.210110
C162  C     C_R   0.814171 0.903067 0.559684 -0.210110
C163  C     C_R   0.440316 0.096933 0.185829 -0.210110
C164  C     C_R   0.500000 0.880256 0.000000 0.842429
C165  C     C_R   0.185829 0.096933 0.559684 -0.210111
C166  C     C_R   0.559684 0.096933 0.814171 -0.210110
C167  C     C_R   0.814171 0.096933 0.440316 -0.210110
C168  C     C_R   0.096933 0.185829 0.440316 -0.210110
C169  C     C_R   0.096933 0.559684 0.185829 -0.210110
C170  C     C_R   0.096933 0.814171 0.559684 -0.210110
C171  C     C_R   0.096933 0.440316 0.814171 -0.210110
C172  C     C_R   0.903067 0.814171 0.440316 -0.210110
C173  C     C_R   0.903067 0.440316 0.185829 -0.210110
C174  C     C_R   0.903067 0.185829 0.559684 -0.210110
C175  C     C_R   0.000000 0.880256 0.500000 0.842429
C176  C     C_R   0.903067 0.559684 0.814171 -0.210110
C177  C     C_R   0.814171 0.559684 0.096933 -0.210110
C178  C     C_R   0.440316 0.814171 0.096933 -0.210110
C179  C     C_R   0.185829 0.440316 0.096933 -0.210109
C180  C     C_R   0.559684 0.185829 0.096933 -0.210111
C181  C     C_R   0.185829 0.559684 0.903067 -0.210110
C182  C     C_R   0.559684 0.814171 0.903067 -0.210110
C183  C     C_R   0.814171 0.440316 0.903067 -0.210110
C184  C     C_R   0.440316 0.185829 0.903067 -0.210110
C185  C     C_R   0.917542 0.420011 0.311139 -0.205911
C186  C     C_R   0.880256 1.000000 0.500000 0.842429
C187  C     C_R   0.688861 0.420011 0.917542 -0.205912
C188  C     C_R   0.082458 0.420011 0.688861 -0.205912
C189  C     C_R   0.311139 0.420011 0.082458 -0.205912
C190  C     C_R   0.917542 0.579989 0.688861 -0.205912
C191  C     C_R   0.688861 0.579989 0.082458 -0.205913
C192  C     C_R   0.082458 0.579989 0.311139 -0.205912
C193  C     C_R   0.311139 0.579989 0.917542 -0.205912
C194  C     C_R   0.579989 0.688861 0.917542 -0.205912
C195  C     C_R   0.579989 0.082458 0.688861 -0.205912
C196  C     C_R   0.579989 0.311139 0.082458 -0.205912
C197  C     C_R   0.880256 0.500000 0.000000 0.842429
C198  C     C_R   0.579989 0.917542 0.311139 -0.205912
C199  C     C_R   0.420011 0.311139 0.917542 -0.205912
C200  C     C_R   0.420011 0.917542 0.688861 -0.205911
C201  C     C_R   0.420011 0.688861 0.082458 -0.205912
C202  C     C_R   0.420011 0.082458 0.311139 -0.205912
C203  C     C_R   0.311139 0.082458 0.579989 -0.205912
C204  C     C_R   0.917542 0.311139 0.579989 -0.205912
C205  C     C_R   0.688861 0.917542 0.579989 -0.205912
C206  C     C_R   0.082458 0.688861 0.579989 -0.205912
C207  C     C_R   0.688861 0.082458 0.420011 -0.205912
C208  C     C_R   0.119744 1.000000 0.500000 0.842428
C209  C     C_R   0.082458 0.311139 0.420011 -0.205912
C210  C     C_R   0.311139 0.917542 0.420011 -0.205912
C211  C     C_R   0.917542 0.688861 0.420011 -0.205912
C212  C     C_R   0.403261 0.860454 0.783273 0.249019
C213  C     C_R   0.216727 0.860454 0.403261 0.249019
C214  C     C_R   0.596739 0.860454 0.216727 0.249019
C215  C     C_R   0.783273 0.860454 0.596739 0.249019
C216  C     C_R   0.403261 0.139545 0.216727 0.249019
C217  C     C_R   0.216727 0.139546 0.596739 0.249019
C218  C     C_R   0.596739 0.139545 0.783273 0.249019
C219  C     C_R   0.119744 0.500000 0.000000 0.842428
C220  C     C_R   0.783273 0.139545 0.403261 0.249019
C221  C     C_R   0.139545 0.216727 0.403261 0.249019
C222  C     C_R   0.139545 0.596739 0.216727 0.249019
C223  C     C_R   0.139545 0.783273 0.596739 0.249019
C224  C     C_R   0.139545 0.403261 0.783273 0.249019
C225  C     C_R   0.860454 0.783273 0.403261 0.249019
C226  C     C_R   0.860454 0.403261 0.216727 0.249019
C227  C     C_R   0.860454 0.216727 0.596739 0.249019
C228  C     C_R   0.860454 0.596739 0.783273 0.249019
C229  C     C_R   0.783273 0.596739 0.139546 0.249019
C230  C     C_R   0.000000 0.500000 0.880256 0.842429
C231  C     C_R   0.403261 0.783273 0.139545 0.249019
C232  C     C_R   0.216727 0.403261 0.139545 0.249019
C233  C     C_R   0.596739 0.216727 0.139545 0.249019
C234  C     C_R   0.216727 0.596739 0.860455 0.249019
C235  C     C_R   0.596739 0.783273 0.860455 0.249018
C236  C     C_R   0.783273 0.403261 0.860454 0.249019
C237  C     C_R   0.403261 0.216727 0.860454 0.249019
C238  C     C_R   0.869041 0.391161 0.279769 0.243603
C239  C     C_R   0.720231 0.391161 0.869040 0.243603
C240  C     C_R   0.130959 0.391161 0.720231 0.243604
H1    H     H_    0.609147 0.193040 0.867391 0.244939
H2    H     H_    0.867391 0.193040 0.390852 0.244940
H3    H     H_    0.343443 0.840233 0.636780 0.241623
H4    H     H_    0.366349 0.778799 0.687253 0.248926
H5    H     H_    0.302056 0.827868 0.707402 0.250860
H6    H     H_    0.343444 0.363219 0.840233 0.241623
H7    H     H_    0.366349 0.312746 0.778799 0.248926
H8    H     H_    0.302056 0.292598 0.827869 0.250860
H9    H     H_    0.343443 0.159767 0.363219 0.241624
H10   H     H_    0.366349 0.221201 0.312746 0.248927
H11   H     H_    0.302056 0.172131 0.292598 0.250860
H12   H     H_    0.656556 0.363219 0.159767 0.241623
H13   H     H_    0.817028 0.190562 0.325216 0.244692
H14   H     H_    0.633651 0.312746 0.221201 0.248926
H15   H     H_    0.697944 0.292598 0.172131 0.250860
H16   H     H_    0.656556 0.159767 0.636781 0.241624
H17   H     H_    0.633651 0.221201 0.687254 0.248927
H18   H     H_    0.697944 0.172131 0.707402 0.250860
H19   H     H_    0.656557 0.636780 0.840233 0.241623
H20   H     H_    0.633651 0.687253 0.778799 0.248926
H21   H     H_    0.697944 0.707402 0.827869 0.250860
H22   H     H_    0.656556 0.840233 0.363219 0.241623
H23   H     H_    0.633651 0.778799 0.312746 0.248927
H24   H     H_    0.797326 0.236823 0.391927 0.250381
H25   H     H_    0.697944 0.827869 0.292598 0.250860
H26   H     H_    0.363219 0.840233 0.343444 0.241623
H27   H     H_    0.312746 0.778799 0.366349 0.248926
H28   H     H_    0.292598 0.827869 0.302056 0.250860
H29   H     H_    0.159767 0.363219 0.343443 0.241623
H30   H     H_    0.221201 0.312746 0.366349 0.248926
H31   H     H_    0.172131 0.292598 0.302056 0.250860
H32   H     H_    0.636780 0.159767 0.343443 0.241624
H33   H     H_    0.687254 0.221201 0.366349 0.248926
H34   H     H_    0.707402 0.172131 0.302056 0.250860
H35   H     H_    0.609147 0.806960 0.132608 0.244939
H36   H     H_    0.840233 0.636780 0.343444 0.241623
H37   H     H_    0.778799 0.687254 0.366349 0.248926
H38   H     H_    0.827868 0.707402 0.302056 0.250860
H39   H     H_    0.636781 0.840233 0.656557 0.241624
H40   H     H_    0.687254 0.778799 0.633651 0.248927
H41   H     H_    0.707402 0.827869 0.697944 0.250860
H42   H     H_    0.840233 0.363219 0.656556 0.241623
H43   H     H_    0.778799 0.312746 0.633651 0.248926
H44   H     H_    0.827869 0.292598 0.697944 0.250860
H45   H     H_    0.363219 0.159767 0.656556 0.241623
H46   H     H_    0.674784 0.809438 0.182972 0.244693
H47   H     H_    0.312746 0.221201 0.633650 0.248926
H48   H     H_    0.292598 0.172132 0.697944 0.250860
H49   H     H_    0.159767 0.636781 0.656557 0.241623
H50   H     H_    0.221201 0.687254 0.633651 0.248926
H51   H     H_    0.172131 0.707402 0.697944 0.250860
H52   H     H_    0.447768 0.896186 0.862907 0.155336
H53   H     H_    0.137093 0.896186 0.447768 0.155336
H54   H     H_    0.552232 0.896186 0.137093 0.155336
H55   H     H_    0.862907 0.896186 0.552232 0.155337
H56   H     H_    0.447768 0.103814 0.137093 0.155336
H57   H     H_    0.608073 0.763177 0.202674 0.250381
H58   H     H_    0.137093 0.103814 0.552232 0.155336
H59   H     H_    0.552232 0.103814 0.862907 0.155336
H60   H     H_    0.862907 0.103814 0.447768 0.155336
H61   H     H_    0.103814 0.137093 0.447768 0.155336
H62   H     H_    0.103814 0.552232 0.137093 0.155336
H63   H     H_    0.103814 0.862907 0.552232 0.155336
H64   H     H_    0.103814 0.447768 0.862907 0.155336
H65   H     H_    0.896186 0.862907 0.447768 0.155336
H66   H     H_    0.896186 0.447768 0.137093 0.155336
H67   H     H_    0.896186 0.137093 0.552232 0.155336
H68   H     H_    0.132608 0.806960 0.390852 0.244939
H69   H     H_    0.896186 0.552232 0.862907 0.155337
H70   H     H_    0.862907 0.552232 0.103814 0.155336
H71   H     H_    0.447768 0.862907 0.103814 0.155336
H72   H     H_    0.137093 0.447768 0.103814 0.155336
H73   H     H_    0.552232 0.137093 0.103814 0.155336
H74   H     H_    0.137093 0.552232 0.896186 0.155336
H75   H     H_    0.552232 0.862907 0.896186 0.155336
H76   H     H_    0.862907 0.447768 0.896186 0.155336
H77   H     H_    0.447768 0.137093 0.896186 0.155337
H78   H     H_    0.924224 0.408052 0.358952 0.170808
H79   H     H_    0.182972 0.809438 0.325216 0.244692
H80   H     H_    0.641048 0.408052 0.924224 0.170809
H81   H     H_    0.075776 0.408052 0.641048 0.170809
H82   H     H_    0.358952 0.408052 0.075776 0.170809
H83   H     H_    0.924224 0.591948 0.641048 0.170808
H84   H     H_    0.641048 0.591948 0.075776 0.170808
H85   H     H_    0.075776 0.591948 0.358952 0.170808
H86   H     H_    0.358952 0.591948 0.924224 0.170808
H87   H     H_    0.591948 0.641048 0.924224 0.170809
H88   H     H_    0.591948 0.075776 0.641048 0.170808
H89   H     H_    0.591948 0.358952 0.075776 0.170809
H90   H     H_    0.202674 0.763177 0.391927 0.250381
H91   H     H_    0.591948 0.924224 0.358952 0.170808
H92   H     H_    0.408052 0.358952 0.924224 0.170809
H93   H     H_    0.408052 0.924224 0.641048 0.170808
H94   H     H_    0.408052 0.641048 0.075776 0.170809
H95   H     H_    0.408052 0.075776 0.358952 0.170808
H96   H     H_    0.358952 0.075776 0.591948 0.170808
H97   H     H_    0.924224 0.358952 0.591948 0.170809
H98   H     H_    0.641048 0.924224 0.591948 0.170809
H99   H     H_    0.075776 0.641048 0.591948 0.170808
H100  H     H_    0.641048 0.075776 0.408052 0.170808
H101  H     H_    0.390853 0.806960 0.867391 0.244939
H102  H     H_    0.075776 0.358952 0.408052 0.170809
H103  H     H_    0.358952 0.924224 0.408052 0.170809
H104  H     H_    0.924224 0.641048 0.408052 0.170809
H105  H     H_    0.674784 0.190562 0.817028 0.244692
H106  H     H_    0.325216 0.809438 0.817028 0.244692
H107  H     H_    0.391927 0.763177 0.797325 0.250381
H108  H     H_    0.867391 0.806960 0.609147 0.244939
H109  H     H_    0.817028 0.809438 0.674784 0.244692
H110  H     H_    0.797326 0.763177 0.608073 0.250380
H111  H     H_    0.806960 0.132609 0.609147 0.244939
H112  H     H_    0.809438 0.182972 0.674783 0.244693
H113  H     H_    0.763177 0.202674 0.608073 0.250381
H114  H     H_    0.806960 0.390853 0.132608 0.244939
H115  H     H_    0.809438 0.325216 0.182972 0.244692
H116  H     H_    0.608073 0.236823 0.797326 0.250380
H117  H     H_    0.763177 0.391927 0.202674 0.250380
H118  H     H_    0.806960 0.867391 0.390853 0.244940
H119  H     H_    0.809438 0.817028 0.325217 0.244692
H120  H     H_    0.763177 0.797326 0.391927 0.250381
H121  H     H_    0.806960 0.609147 0.867391 0.244939
H122  H     H_    0.809438 0.674784 0.817028 0.244692
H123  H     H_    0.763177 0.608073 0.797326 0.250381
H124  H     H_    0.193040 0.867391 0.609147 0.244939
H125  H     H_    0.190562 0.817028 0.674784 0.244692
H126  H     H_    0.236823 0.797326 0.608073 0.250381
H127  H     H_    0.132609 0.193040 0.609147 0.244939
H128  H     H_    0.193040 0.609147 0.132609 0.244939
H129  H     H_    0.190562 0.674783 0.182972 0.244692
H130  H     H_    0.236823 0.608073 0.202674 0.250381
H131  H     H_    0.193040 0.132609 0.390852 0.244939
H132  H     H_    0.190562 0.182972 0.325216 0.244692
H133  H     H_    0.236823 0.202674 0.391927 0.250381
H134  H     H_    0.193040 0.390853 0.867391 0.244939
H135  H     H_    0.190562 0.325216 0.817028 0.244693
H136  H     H_    0.236823 0.391927 0.797326 0.250381
H137  H     H_    0.867391 0.390853 0.806960 0.244939
H138  H     H_    0.182972 0.190562 0.674783 0.244693
H139  H     H_    0.817028 0.325216 0.809438 0.244692
H140  H     H_    0.797326 0.391927 0.763177 0.250381
H141  H     H_    0.609147 0.867391 0.806960 0.244939
H142  H     H_    0.674784 0.817028 0.809438 0.244693
H143  H     H_    0.608073 0.797325 0.763177 0.250381
H144  H     H_    0.132609 0.609147 0.806960 0.244939
H145  H     H_    0.182972 0.674784 0.809438 0.244693
H146  H     H_    0.202674 0.608073 0.763177 0.250381
H147  H     H_    0.390852 0.132608 0.806960 0.244939
H148  H     H_    0.325216 0.182972 0.809438 0.244692
H149  H     H_    0.202674 0.236823 0.608073 0.250381
H150  H     H_    0.391927 0.202674 0.763177 0.250381
H151  H     H_    0.132609 0.390852 0.193040 0.244939
H152  H     H_    0.182972 0.325216 0.190562 0.244692
H153  H     H_    0.202674 0.391927 0.236823 0.250381
H154  H     H_    0.390852 0.867391 0.193040 0.244939
H155  H     H_    0.325216 0.817028 0.190562 0.244692
H156  H     H_    0.391927 0.797326 0.236823 0.250381
H157  H     H_    0.867391 0.609147 0.193040 0.244939
H158  H     H_    0.817028 0.674783 0.190562 0.244692
H159  H     H_    0.797326 0.608073 0.236823 0.250381
H160  H     H_    0.390853 0.193040 0.132609 0.244939
H161  H     H_    0.609147 0.132609 0.193040 0.244939
H162  H     H_    0.674783 0.182972 0.190562 0.244692
H163  H     H_    0.608073 0.202674 0.236823 0.250381
H164  H     H_    0.159767 0.656556 0.363220 0.241623
H165  H     H_    0.221201 0.633651 0.312746 0.248927
H166  H     H_    0.172131 0.697944 0.292598 0.250860
H167  H     H_    0.636781 0.656556 0.159767 0.241623
H168  H     H_    0.687254 0.633650 0.221201 0.248926
H169  H     H_    0.707402 0.697944 0.172132 0.250860
H170  H     H_    0.840233 0.656557 0.636780 0.241623
H171  H     H_    0.325216 0.190562 0.182972 0.244693
H172  H     H_    0.778799 0.633651 0.687254 0.248926
H173  H     H_    0.827869 0.697944 0.707402 0.250860
H174  H     H_    0.363219 0.656556 0.840233 0.241623
H175  H     H_    0.312746 0.633651 0.778799 0.248927
H176  H     H_    0.292598 0.697944 0.827869 0.250860
H177  H     H_    0.159767 0.343443 0.636780 0.241623
H178  H     H_    0.221201 0.366349 0.687254 0.248926
H179  H     H_    0.172131 0.302056 0.707402 0.250860
H180  H     H_    0.636780 0.343444 0.840233 0.241624
H181  H     H_    0.687254 0.366349 0.778799 0.248926
H182  H     H_    0.391927 0.236823 0.202674 0.250381
H183  H     H_    0.707402 0.302056 0.827868 0.250860
H184  H     H_    0.840233 0.343443 0.363219 0.241623
H185  H     H_    0.778799 0.366349 0.312746 0.248926
H186  H     H_    0.827869 0.302056 0.292598 0.250860
H187  H     H_    0.363219 0.343443 0.159767 0.241624
H188  H     H_    0.312746 0.366349 0.221201 0.248927
H189  H     H_    0.292598 0.302056 0.172131 0.250860
H190  H     H_    0.343443 0.636781 0.159767 0.241623
H191  H     H_    0.366349 0.687254 0.221201 0.248927
H192  H     H_    0.302056 0.707402 0.172131 0.250860
O1    O     O_R   0.551740 0.091630 0.999970 -0.621738
O2    O     O_R   0.908370 0.448260 0.000030 -0.621738
O3    O     O_R   0.908370 0.999970 0.448260 -0.621738
O4    O     O_R   0.908370 0.551740 0.999970 -0.621738
O5    O     O_R   0.091630 0.999970 0.551740 -0.621738
O6    O     O_R   0.091630 0.551740 0.000030 -0.621738
O7    O     O_R   0.091630 0.000030 0.448260 -0.621738
O8    O     O_R   0.091630 0.448260 0.999970 -0.621738
O9    O     O_R   0.999970 0.448260 0.908370 -0.621738
O10   O     O_R   0.551740 0.999970 0.908370 -0.621738
O11   O     O_R   0.000030 0.551740 0.908370 -0.621738
O12   O     O_R   0.000030 0.091630 0.551740 -0.621738
O13   O     O_R   0.448260 0.000030 0.908370 -0.621738
O14   O     O_R   0.000030 0.448260 0.091630 -0.621738
O15   O     O_R   0.448260 0.999970 0.091630 -0.621738
O16   O     O_R   0.999970 0.551740 0.091630 -0.621738
O17   O     O_R   0.551740 0.000030 0.091630 -0.621738
O18   O     O_R   0.051740 0.591630 0.499970 -0.626898
O19   O     O_R   0.500030 0.591630 0.051740 -0.626898
O20   O     O_R   0.948260 0.591630 0.500030 -0.626898
O21   O     O_R   0.499970 0.591630 0.948260 -0.626898
O22   O     O_R   0.051740 0.408370 0.500030 -0.626898
O23   O     O_R   0.448260 0.091630 0.000030 -0.621738
O24   O     O_R   0.500030 0.408370 0.948260 -0.626898
O25   O     O_R   0.948260 0.408370 0.499970 -0.626898
O26   O     O_R   0.499970 0.408370 0.051740 -0.626898
O27   O     O_R   0.408370 0.500030 0.051740 -0.626898
O28   O     O_R   0.408370 0.948260 0.500030 -0.626898
O29   O     O_R   0.408370 0.499970 0.948260 -0.626898
O30   O     O_R   0.408370 0.051740 0.499970 -0.626898
O31   O     O_R   0.591630 0.499970 0.051740 -0.626898
O32   O     O_R   0.591630 0.051740 0.500030 -0.626898
O33   O     O_R   0.591630 0.500030 0.948260 -0.626898
O34   O     O_R   0.999970 0.091630 0.448260 -0.621738
O35   O     O_R   0.591630 0.948260 0.499970 -0.626898
O36   O     O_R   0.499970 0.948260 0.408370 -0.626898
O37   O     O_R   0.051740 0.499970 0.408370 -0.626898
O38   O     O_R   0.500030 0.051740 0.408370 -0.626898
O39   O     O_R   0.948260 0.500030 0.408370 -0.626898
O40   O     O_R   0.500030 0.948260 0.591630 -0.626898
O41   O     O_R   0.948260 0.499970 0.591630 -0.626898
O42   O     O_R   0.499970 0.051740 0.591630 -0.626898
O43   O     O_R   0.051740 0.500030 0.591630 -0.626898
O44   O     O_R   0.551740 0.908370 0.000030 -0.621738
O45   O     O_R   0.000030 0.908370 0.448260 -0.621738
O46   O     O_R   0.448260 0.908370 0.999970 -0.621738
O47   O     O_R   0.999970 0.908370 0.551740 -0.621738
O48   O     O_R   0.908370 0.000030 0.551740 -0.621738
Zn1   Zn    Zn3+2 0.569090 0.000000 0.000000 0.957769
Zn2   Zn    Zn3+2 0.500000 0.500000 0.930910 0.939850
Zn3   Zn    Zn3+2 0.500000 0.930910 0.500000 0.939850
Zn4   Zn    Zn3+2 0.500000 0.069090 0.500000 0.939849
Zn5   Zn    Zn3+2 0.000000 0.000000 0.569090 0.957769
Zn6   Zn    Zn3+2 0.430910 0.000000 0.000000 0.957769
Zn7   Zn    Zn3+2 0.000000 0.000000 0.430910 0.957769
Zn8   Zn    Zn3+2 1.000000 0.430910 0.000000 0.957769
Zn9   Zn    Zn3+2 0.000000 0.569090 0.000000 0.957769
Zn10  Zn    Zn3+2 0.069090 0.500000 0.500000 0.939849
Zn11  Zn    Zn3+2 0.500000 0.500000 0.069090 0.939850
Zn12  Zn    Zn3+2 0.930910 0.500000 0.500000 0.939850

loop_
_geom_bond_atom_site_label_1
_geom_bond_atom_site_label_2
_ccdc_geom_bond_type
C9    C218  A    
C204  H97   S    
C181  H74   S    
C108  H13   S    
C37   C206  A    
C184  C237  A    
C145  H12   S    
C178  H71   S    
C129  H155  S    
C149  H25   S    
C106  H138  S    
C157  O41   A    
C163  H56   S    
C175  O45   A    
C166  H59   S    
C118  H121  S    
C173  H66   S    
C66   C97   A    
C16   C144  S    
C63   C98   A    
C170  H63   S    
C3    C189  A    
C114  H109  S    
C125  H142  S    
C230  O9    A    
C116  H115  S    
C21   C152  S    
C25   C211  A    
C186  O48   A    
C66   C159  A    
C144  H10   S    
C43   C58   A    
C31   C70   A    
C153  H36   S    
C21   C220  A    
C95   C219  S    
C57   C83   S    
C131  H161  S    
C42   C86   A    
C183  C236  A    
C128  C232  S    
C122  C224  S    
C208  O5    A    
C148  H20   S    
C16   C202  A    
C105  H1    S    
C74   C167  A    
C100  C208  S    
C139  H184  S    
C30   C202  A    
C22   C221  A    
C50   C53   A    
C167  C220  A    
C210  H103  S    
C136  H176  S    
C110  H79   S    
O8    Zn8   S    
C6    C132  S    
C57   O25   A    
C151  H29   S    
C130  C229  S    
C118  C228  S    
C153  H38   S    
C174  C227  A    
C115  C227  S    
C188  C240  A    
C4    C190  A    
C163  C216  A    
C42   C190  A    
C2    O13   A    
O45   Zn7   S    
C119  C223  S    
C211  H104  S    
C13   O16   A    
C133  H169  S    
C205  H98   S    
C71   C102  A    
O4    Zn9   S    
C195  H88   S    
C182  H75   S    
C145  H14   S    
C158  H50   S    
O37   Zn10  S    
C157  O43   A    
C30   C69   A    
C28   C64   A    
C139  H186  S    
C23   C213  A    
C127  H148  S    
C10   C233  A    
C120  C222  S    
C90   O30   A    
C1    O1    A    
C174  H67   S    
C117  H119  S    
C134  H172  S    
C9    C195  A    
C72   C103  A    
C116  H117  S    
C76   C100  A    
C164  O44   A    
C147  H18   S    
C53   C183  A    
C32   C62   A    
C29   C82   A    
C140  H188  S    
C142  H4    S    
C25   C225  A    
O44   Zn1   S    
C108  H24   S    
C19   C215  A    
C202  H95   S    
C155  H43   S    
C18   C227  A    
C78   C146  S    
C11   C214  A    
C123  C236  S    
C132  H164  S    
C8    C235  A    
C111  H101  S    
C106  C217  S    
C113  O35   A    
C49   C194  A    
C208  O7    A    
C121  H131  S    
C191  H84   S    
C46   O21   A    
C124  O36   A    
C73   C170  A    
C59   C169  A    
C149  H23   S    
C236  C239  A    
O47   Zn5   S    
C138  H183  S    
C6    C222  A    
C112  O34   A    
C128  H153  S    
C2    O10   A    
C84   C135  S    
C186  O3    A    
C111  H106  S    
C48   C193  A    
C161  H54   S    
C168  C221  A    
C169  H62   S    
C61   C96   A    
O16   Zn9   S    
C131  C233  S    
C5    C133  S    
C130  H159  S    
C61   C182  A    
C26   C78   A    
C56   C176  A    
C154  H39   S    
O23   Zn6   S    
C38   C188  A    
C29   C205  A    
C143  H8    S    
C171  H64   S    
C198  H91   S    
C17   C203  A    
C159  H52   S    
O6    Zn9   S    
C87   C101  S    
C181  C234  A    
C64   C99   A    
C230  O11   A    
C116  H114  S    
C122  H135  S    
O34   Zn7   S    
C123  H139  S    
O38   Zn4   S    
C165  C217  A    
C41   C71   A    
C42   C56   A    
C26   C200  A    
C7    C234  A    
O43   Zn10  S    
C134  H170  S    
C24   O17   A    
O18   Zn10  S    
O41   Zn12  S    
O42   Zn4   S    
C156  H45   S    
C15   C201  A    
C24   O15   A    
C199  H92   S    
C176  C228  A    
O40   Zn3   S    
C193  H86   S    
C26   C66   A    
C164  O46   A    
C46   O19   A    
C5    C191  A    
C109  C214  S    
O22   Zn10  S    
C70   C165  A    
C141  H191  S    
C138  H180  S    
C107  H160  S    
C206  H99   S    
C143  H6    S    
C63   C180  A    
C96   C164  S    
C93   C197  S    
C60   C95   A    
C119  H126  S    
O2    Zn8   S    
C10   C196  A    
C57   O22   A    
C62   C97   A    
C132  H166  S    
C169  C222  A    
C133  H167  S    
C121  H133  S    
C138  C239  S    
C124  O38   A    
C183  H76   S    
C41   C204  A    
C224  C240  A    
O11   Zn9   S    
C50   C87   A    
C138  H181  S    
C109  H46   S    
C62   C166  A    
C144  H11   S    
C120  H129  S    
O30   Zn4   S    
C176  H69   S    
O3    Zn7   S    
C162  H55   S    
C150  H28   S    
C94   C230  S    
C131  H162  S    
C4    C134  S    
C60   C181  A    
C130  H157  S    
C22   C151  S    
C33   C207  A    
C101  O31   A    
C15   C231  A    
C36   C192  A    
C55   C179  A    
C135  O39   A    
C129  H154  S    
C82   C113  S    
C64   C161  A    
C154  H41   S    
C67   C178  A    
C1    C98   S    
C23   C210  A    
C34   C75   A    
C207  H100  S    
C12   C143  S    
C110  H68   S    
C11   C198  A    
O17   Zn1   S    
C7    C136  S    
C192  H85   S    
C114  H110  S    
C125  H141  S    
C35   C85   S    
C137  H178  S    
O15   Zn6   S    
C123  H137  S    
O14   Zn8   S    
C126  C234  S    
C86   C157  S    
C44   C88   A    
C79   C89   S    
C68   O26   A    
C45   C55   A    
C128  H151  S    
C72   C162  A    
C44   C67   A    
C20   C158  S    
C126  H145  S    
C44   C201  A    
C156  H47   S    
C65   C184  A    
C161  C214  A    
C167  H60   S    
C40   C84   A    
C102  C112  S    
C144  H9    S    
C36   C59   A    
C14   C142  S    
C31   C80   A    
C8    C148  S    
C56   C94   A    
C111  H107  S    
C35   O20   A    
C158  H51   S    
C58   C93   A    
C65   C98   A    
C79   O27   A    
C152  H33   S    
C47   C63   A    
C180  H73   S    
C185  C238  A    
C115  H112  S    
C153  H37   S    
C51   C65   A    
C16   C216  A    
C51   C91   A    
C15   C141  S    
O36   Zn3   S    
C11   C149  S    
C2    C97   S    
C172  H65   S    
C112  O12   A    
C8    C194  A    
C75   C168  A    
C197  O2    A    
C45   C89   A    
C33   C82   A    
C150  H26   S    
C196  H89   S    
C139  C238  S    
C49   C88   A    
C135  O37   A    
C129  H156  S    
C190  H83   S    
C32   C195  A    
C139  H185  S    
C127  H147  S    
C49   C61   A    
C25   C153  S    
C117  H118  S    
C134  H173  S    
C125  H143  S    
O25   Zn12  S    
C14   C200  A    
C189  H82   S    
C27   C210  A    
C28   C198  A    
C159  C212  A    
C147  H17   S    
C47   C196  A    
C38   C54   A    
C127  H150  S    
C142  H5    S    
O29   Zn2   S    
O28   Zn3   S    
C182  C235  A    
C69   C99   A    
C12   C237  A    
C23   C150  S    
C38   C86   A    
C180  C233  A    
C127  C237  S    
C13   C92   S    
C168  H61   S    
C52   C92   A    
O33   Zn2   S    
C148  H19   S    
C27   C76   A    
C149  H22   S    
O9    Zn8   S    
C118  H122  S    
C35   O18   A    
C136  H175  S    
C47   C91   A    
C114  C215  S    
C106  H149  S    
C187  C239  A    
C71   C174  A    
C151  H30   S    
C131  H163  S    
C200  H93   S    
C194  H87   S    
C14   C212  A    
C30   C81   A    
C154  H40   S    
O13   Zn6   S    
C136  H174  S    
C178  C231  A    
O48   Zn5   S    
C21   C207  A    
O10   Zn1   S    
C155  H42   S    
C77   C172  A    
C20   C223  A    
C143  H7    S    
C115  H113  S    
C90   O28   A    
C59   C92   A    
C4    C228  A    
C197  O4    A    
C146  O40   A    
C107  H182  S    
O1    Zn1   S    
C170  C223  A    
C108  C220  S    
C113  O32   A    
C33   C74   A    
C27   C80   A    
C122  H136  S    
C105  C218  S    
C6    C192  A    
C19   C154  S    
C121  C221  S    
C145  H15   S    
C77   C104  A    
C158  H49   S    
C101  O33   A    
C179  C232  A    
C160  H53   S    
C17   C156  S    
C18   C155  S    
C226  C238  A    
C24   C99   S    
C117  H120  S    
C20   C206  A    
C110  H90   S    
C171  C224  A    
O31   Zn11  S    
C219  O8    A    
C117  C225  S    
C125  C235  S    
C39   C77   A    
C37   C85   A    
C152  H32   S    
C140  H187  S    
C173  C226  A    
C177  C229  A    
C141  H190  S    
C142  H3    S    
C41   C83   A    
C22   C209  A    
C147  H16   S    
C68   C91   S    
C172  C225  A    
C155  H44   S    
C184  H77   S    
C119  H125  S    
C126  H144  S    
O26   Zn11  S    
C111  C212  S    
C73   C104  A    
C107  C216  S    
C75   C102  A    
C148  H21   S    
C7    C193  A    
C166  C218  A    
C31   C203  A    
C29   C72   A    
O21   Zn2   S    
C43   C191  A    
C185  H78   S    
C120  H130  S    
C137  H177  S    
O19   Zn11  S    
C187  H80   S    
C103  C186  S    
C120  H128  S    
C50   C187  A    
C70   C100  A    
C48   C60   A    
C104  C175  S    
C46   C88   S    
C162  C215  A    
C130  H158  S    
C81   C124  S    
C53   C93   A    
C177  H70   S    
C146  O42   A    
C110  C213  S    
C55   C95   A    
C179  H72   S    
C105  H116  S    
O5    Zn5   S    
C165  H58   S    
C175  O47   A    
C40   C185  A    
O20   Zn12  S    
C40   C52   A    
C118  H123  S    
C9    C147  S    
C107  H171  S    
C116  C226  S    
C201  H94   S    
O27   Zn11  S    
C34   C209  A    
C121  H132  S    
C203  H96   S    
C209  H102  S    
C122  H134  S    
C39   C211  A    
C123  H140  S    
O24   Zn2   S    
C109  H35   S    
C51   C199  A    
C45   C189  A    
C109  H57   S    
C48   C89   A    
C128  H152  S    
C67   C96   A    
C5    C229  A    
C34   C83   A    
C126  H146  S    
O7    Zn7   S    
C119  H124  S    
C156  H48   S    
C17   C217  A    
C19   C205  A    
C219  O6    A    
C37   C73   A    
C76   C160  A    
C28   C81   A    
C54   C171  A    
O39   Zn12  S    
C69   C163  A    
C140  H189  S    
C3    C232  A    
C141  H192  S    
C18   C204  A    
C108  H2    S    
C129  C231  S    
C68   O24   A    
C43   C87   A    
O35   Zn3   S    
C137  C240  S    
C152  H34   S    
O32   Zn4   S    
C132  H165  S    
C151  H31   S    
C1    O23   A    
C133  H168  S    
C36   C84   A    
C160  C213  A    
C52   C173  A    
C115  H111  S    
C12   C199  A    
C188  H81   S    
C58   C177  A    
C105  H105  S    
C106  H127  S    
C80   C90   S    
C54   C94   A    
C10   C145  S    
C32   C78   A    
O46   Zn6   S    
C137  H179  S    
C39   C85   A    
C3    C140  S    
C79   O29   A    
C150  H27   S    
C13   O14   A    
O12   Zn5   S    
C114  H108  S    
C74   C103  A    
