data_mof_unit_44310.cif
_audit_creation_date              2013-03-05T16:12:12-0500
_audit_creation_method            fapswitch 2.2
_symmetry_space_group_name_H-M    P1
_symmetry_Int_Tables_number       1
_space_group_crystal_system       triclinic
_cell_length_a                    10.738343
_cell_length_b                    9.489809
_cell_length_c                    27.813696
_cell_angle_alpha                 89.94316
_cell_angle_beta                  88.209958
_cell_angle_gamma                 89.922263
_cell_volume                      2832.96276069

loop_
_atom_site_label
_atom_site_type_symbol
_atom_site_description
_atom_site_fract_x
_atom_site_fract_y
_atom_site_fract_z
_atom_type_partial_charge
O1    O     O_R   0.317570 0.620260 0.500030 -0.563275
O2    O     O_R   0.317570 0.379740 0.500030 -0.569370
C1    C     C_R   0.259903 0.499886 0.500528 0.809491
O3    O     O_R   0.499900 0.620250 0.430280 -0.559646
O4    O     O_R   0.499900 0.379750 0.430280 -0.554708
C2    C     C_R   0.500289 0.500074 0.407580 0.854084
Cu1   Cu    Cu3+1 0.499860 0.642410 0.500020 1.018102
Cu2   Cu    Cu3+1 0.499860 0.357590 0.500020 1.038665
O5    O     O_R   0.682190 0.620260 0.500010 -0.575941
O6    O     O_R   0.682190 0.379740 0.500010 -0.548813
O7    O     O_R   0.499860 0.620280 0.569750 -0.566657
O8    O     O_R   0.499860 0.379720 0.569750 -0.527732
C3    C     C_R   0.739745 0.499824 0.500285 0.916604
C4    C     C_R   0.502275 0.499804 0.592373 0.905503
C5    C     C_R   0.392717 0.483463 0.179523 0.537664
O9    O     O_2   0.285989 0.464877 0.205673 -0.516784
N1    N     N_R   0.502516 0.501802 0.202276 -0.472116
C6    C     C_R   0.612216 0.521495 0.176924 0.547896
C7    C     C_R   0.492059 0.373781 0.278966 -0.085812
C8    C     C_R   0.491723 0.373156 0.329109 -0.157699
C9    C     C_R   0.511414 0.627909 0.329049 -0.162049
C10   C     C_R   0.512406 0.628098 0.278917 -0.091854
C11   C     C_R   0.502481 0.501171 0.253779 0.345336
C12   C     C_R   0.502279 0.504829 0.102094 -0.042533
C13   C     C_R   0.390526 0.484720 0.129073 -0.022503
C14   C     C_R   0.279096 0.467398 0.105295 -0.137068
C15   C     C_R   0.614168 0.523294 0.126424 -0.027605
C16   C     C_R   0.501134 0.500350 0.354631 -0.036955
H1    H     H_    0.520320 0.726870 0.259541 0.147456
H2    H     H_    0.191635 0.453548 0.125222 0.192443
C17   C     C_R   0.504827 0.499862 0.645282 -0.112434
C18   C     C_R   0.389316 0.481780 0.975886 0.043329
C19   C     C_R   0.614688 0.535278 0.973266 0.042487
C20   C     C_R   0.502016 0.508925 0.949326 0.070869
C21   C     C_R   0.280955 0.451247 0.950085 -0.201926
C22   C     C_R   0.282576 0.450881 0.900150 -0.136419
C23   C     C_R   0.392111 0.480389 0.873774 -0.027467
C24   C     C_R   0.502104 0.509485 0.898162 -0.041949
C25   C     C_R   0.612246 0.538874 0.871237 -0.029889
C26   C     C_R   0.610462 0.538359 0.820779 0.555129
N2    N     N_R   0.502708 0.508601 0.797885 -0.461650
C27   C     C_R   0.394496 0.480040 0.823262 0.553226
C28   C     C_R   0.437395 0.607348 0.720992 -0.072027
C29   C     C_R   0.438302 0.604539 0.670912 -0.234436
C30   C     C_R   0.572769 0.398246 0.670926 0.399254
C31   C     C_R   0.571191 0.401888 0.721136 -0.107528
C32   C     C_R   0.503537 0.505850 0.746289 0.264736
O10   O     O_2   0.289837 0.450023 0.799674 -0.507234
C33   C     C_R   0.388625 0.484967 0.027026 0.043024
C34   C     C_R   0.502143 0.506454 0.050939 0.069311
C35   C     C_R   0.615540 0.529476 0.024358 0.043781
C36   C     C_R   0.277805 0.467893 0.055393 -0.202281
H3    H     H_    0.385452 0.683363 0.652269 0.226271
H4    H     H_    0.196972 0.426809 0.882260 0.191805
H5    H     H_    0.187299 0.456446 0.040345 0.137795
O11   O     O_2   0.719040 0.538682 0.200544 -0.500822
C37   C     C_R   0.725463 0.542253 0.099998 -0.138710
H6    H     H_    0.483616 0.273294 0.347811 0.176778
C38   C     C_R   0.722938 0.567339 0.944980 -0.201442
C39   C     C_R   0.721512 0.568705 0.895085 -0.133203
O12   O     O_2   0.715394 0.568079 0.794771 -0.497466
C40   C     C_R   0.726495 0.544903 0.050075 -0.201173
H7    H     H_    0.810811 0.594025 0.960114 0.139632
H8    H     H_    0.807140 0.593374 0.875220 0.193628
H9    H     H_    0.623291 0.324174 0.740808 0.181939
C41   C     C_3   0.076627 0.556480 0.452054 -0.434961
C42   C     C_3   0.068636 0.593474 0.542060 -0.349188
H10   H     H_    0.114316 0.488855 0.422324 0.214182
H11   H     H_    0.103265 0.555208 0.577048 0.235466
C43   C     C_3   0.932522 0.560522 0.452242 0.195914
C44   C     C_3   0.924621 0.594036 0.542172 0.151085
H12   H     H_    0.902906 0.672293 0.448896 0.167123
H13   H     H_    0.892797 0.704320 0.536413 0.129462
H14   H     H_    0.108267 0.276471 0.479340 0.189558
H15   H     H_    0.100637 0.305196 0.543252 0.243637
C45   C     C_3   0.070814 0.347670 0.508140 -0.336915
C46   C     C_3   0.121870 0.499476 0.500714 -0.013518
C47   C     C_3   0.877904 0.499398 0.500552 -0.058379
C48   C     C_3   0.928494 0.347087 0.507305 -0.323210
C49   C     C_3   0.625266 0.083788 0.486946 0.253746
C50   C     C_3   0.625521 0.916084 0.487297 0.252169
H16   H     H_    0.538566 0.116110 0.575059 0.135070
H17   H     H_    0.535129 0.880355 0.575650 0.099649
C51   C     C_3   0.466663 0.083568 0.549579 0.262427
C52   C     C_3   0.465367 0.915902 0.549467 0.255880
C53   C     C_3   0.409666 0.083305 0.467032 -0.227144
C54   C     C_3   0.410707 0.917154 0.466602 -0.218537
N3    N     N_3   0.500250 0.143650 0.501060 -0.229396
N4    N     N_3   0.500250 0.856350 0.501060 -0.221083
H18   H     H_    0.518871 0.727523 0.347680 0.191459
H19   H     H_    0.484466 0.275355 0.259620 0.145652
H20   H     H_    0.813021 0.554917 0.117838 0.189559
Cl1   Cl    Cl    0.667220 0.269869 0.642188 -0.568024
H21   H     H_    0.816928 0.557236 0.032850 0.137023
H22   H     H_    0.113549 0.664638 0.445541 0.161118
H23   H     H_    0.102215 0.703505 0.537230 0.206787
Cl2   Cl    Cl    0.875533 0.470971 0.400489 -0.513798
Cl3   Cl    Cl    0.861520 0.542406 0.600025 -0.548562
H24   H     H_    0.899010 0.277805 0.477560 0.244008
H25   H     H_    0.890127 0.300149 0.541316 0.230940
H26   H     H_    0.693888 0.118521 0.513638 0.080465
H27   H     H_    0.693369 0.882076 0.514448 0.072068
Cl4   Cl    Cl    0.683188 0.156456 0.430560 -0.491061
Cl5   Cl    Cl    0.685504 0.842496 0.431380 -0.533997
H28   H     H_    0.313836 0.120343 0.476344 0.193676
H29   H     H_    0.314941 0.878237 0.474809 0.196661
H30   H     H_    0.429526 0.122535 0.429980 0.192329
H31   H     H_    0.433126 0.880092 0.429485 0.193065
Cl6   Cl    Cl    0.324012 0.158679 0.574230 -0.517350
Cl7   Cl    Cl    0.319599 0.844385 0.572207 -0.566501
H32   H     H_    0.385329 0.688533 0.740202 0.173386
H33   H     H_    0.192885 0.424741 0.967228 0.138999

loop_
_geom_bond_atom_site_label_1
_geom_bond_atom_site_label_2
_geom_bond_distance
_ccdc_geom_bond_type
C41   H10   1.113015 S    
C10   H1    1.082864 S    
C43   C47   1.560782 S    
N2    C27   1.367910 A    
C53   H30   1.109871 S    
C42   C46   1.550649 S    
C12   C15   1.408495 A    
C4    C17   1.472729 S    
H15   C45   1.112285 S    
C30   Cl1   1.760598 S    
C37   C40   1.388433 A    
C41   C43   1.547721 S    
C30   C31   1.396544 A    
Cu1   O7    1.950579 S    
N1    C11   1.432470 S    
H14   C45   1.113624 S    
C48   H24   1.111304 S    
C22   C23   1.395248 A    
C37   H20   1.083626 S    
O4    C2    1.304180 A    
O7    C4    1.305076 A    
C53   N3    1.493314 S    
C5    C13   1.404160 A    
C5    O9    1.349760 S    
Cu1   N4    2.030496 S    
C5    N1    1.366878 A    
C23   C27   1.404352 A    
O5    C3    1.298709 A    
C31   C32   1.399369 A    
C29   H3    1.080266 S    
C2    C16   1.472466 S    
C54   H31   1.110129 S    
C7    C8    1.394572 A    
C45   C48   1.529200 S    
C43   Cl2   1.796543 S    
C6    O11   1.349759 S    
C9    H18   1.082748 S    
C50   N4    1.498967 S    
C38   C39   1.388358 A    
C19   C38   1.416381 A    
O1    Cu1   1.969022 S    
C9    C10   1.394055 A    
C35   C40   1.416545 A    
C28   H32   1.082877 S    
O3    Cu1   1.951287 S    
C19   C20   1.421704 A    
Cu2   N3    2.030428 S    
C50   H27   1.112875 S    
C12   C34   1.422935 A    
C44   Cl3   1.794326 S    
C17   C29   1.404611 A    
C49   Cl4   1.805552 S    
C18   C21   1.416479 A    
C48   H25   1.112800 S    
Cu1   Cu2   2.702886 S    
C7    H19   1.082844 S    
C12   C13   1.408426 A    
C31   H9    1.083267 S    
O3    C2    1.304035 A    
C52   Cl7   1.803049 S    
C15   C37   1.395125 A    
C25   C26   1.404166 A    
C44   H13   1.113499 S    
C52   N4    1.497289 S    
C47   C48   1.556693 S    
C8    C16   1.406260 A    
C34   C35   1.421704 A    
C13   C14   1.395141 A    
C26   O12   1.349832 S    
O1    C1    1.299972 A    
C21   C22   1.388442 A    
C18   C20   1.421720 A    
C7    C11   1.399478 A    
C28   C29   1.392921 A    
C23   C24   1.408109 A    
C14   C36   1.388442 A    
Cu2   O8    1.950993 S    
C33   C36   1.416532 A    
N1    C6    1.366836 A    
N2    C32   1.435110 S    
C27   O10   1.349794 S    
C51   C52   1.591204 S    
C26   N2    1.367986 A    
H17   C52   1.112763 S    
C9    C16   1.406248 A    
O8    C4    1.302978 A    
C14   H2    1.083620 S    
H16   C51   1.108635 S    
C40   H21   1.075837 S    
C42   H23   1.111793 S    
C53   H28   1.110018 S    
C8    H6    1.082897 S    
C1    C46   1.482095 S    
C53   C54   1.576825 S    
Cu1   O5    1.968881 S    
C41   C46   1.548986 S    
C3    C47   1.483847 S    
C20   C24   1.423033 A    
O2    Cu2   1.968455 S    
C6    C15   1.404189 A    
C51   N3    1.498301 S    
C49   C50   1.591504 S    
O6    C3    1.297264 A    
O4    Cu2   1.950873 S    
C36   H5    1.075797 S    
C19   C35   1.422389 A    
C38   H7    1.075821 S    
C51   Cl6   1.804734 S    
C49   H26   1.112728 S    
C39   H8    1.083591 S    
C54   N4    1.493665 S    
O2    C1    1.296618 A    
C49   N3    1.498160 S    
C45   C46   1.553411 S    
C24   C25   1.408066 A    
C54   H29   1.110065 S    
C25   C39   1.395249 A    
C42   C44   1.546390 S    
C18   C33   1.422534 A    
C22   H4    1.083597 S    
Cu2   O6    1.969448 S    
C33   C34   1.421794 A    
C17   C30   1.414269 A    
C10   C11   1.399200 A    
C43   H12   1.111574 S    
C42   H11   1.112972 S    
C28   C32   1.398307 A    
C44   C47   1.561380 S    
C21   H33   1.075758 S    
C41   H22   1.113443 S    
C50   Cl5   1.805474 S    
