data_mof_unit_62220.cif
_audit_creation_date              2013-03-05T16:17:07-0500
_audit_creation_method            fapswitch 2.2
_symmetry_space_group_name_H-M    P1
_symmetry_Int_Tables_number       1
_space_group_crystal_system       triclinic
_cell_length_a                    16.073565
_cell_length_b                    17.246617
_cell_length_c                    23.541041
_cell_angle_alpha                 90.250047
_cell_angle_beta                  92.930981
_cell_angle_gamma                 96.636815
_cell_volume                      6473.36177936

loop_
_atom_site_label
_atom_site_type_symbol
_atom_site_description
_atom_site_fract_x
_atom_site_fract_y
_atom_site_fract_z
_atom_type_partial_charge
O1    O     O_R   0.420280 0.382610 0.497280 -0.572569
O2    O     O_R   0.579720 0.617390 0.502720 -0.591877
O3    O     O_R   0.563150 0.389410 0.502170 -0.599673
O4    O     O_R   0.436850 0.610590 0.497830 -0.581362
C1    C     C_R   0.489291 0.349567 0.501059 0.806925
C2    C     C_R   0.510695 0.650432 0.498957 0.809013
O5    O     O_R   0.428550 0.496580 0.415430 -0.550146
O6    O     O_R   0.571450 0.503420 0.584570 -0.593170
O7    O     O_R   0.571420 0.503370 0.420330 -0.592221
O8    O     O_R   0.428580 0.496630 0.579670 -0.550050
C3    C     C_R   0.500045 0.501965 0.391136 0.847400
C4    C     C_R   0.499869 0.497991 0.608863 0.845192
Cu1   Cu    Cu3+1 0.415410 0.495980 0.497100 1.025036
Cu2   Cu    Cu3+1 0.584590 0.504020 0.502900 0.958658
C5    C     C_R   0.509617 0.567863 0.880533 0.566938
C6    C     C_R   0.499000 0.432174 0.119779 0.566925
N1    N     N_R   0.505208 0.498300 0.851990 -0.462761
N2    N     N_R   0.505100 0.501808 0.148385 -0.462660
C7    C     C_R   0.502205 0.428814 0.880181 0.568693
C8    C     C_R   0.512717 0.571491 0.120356 0.569179
C9    C     C_R   0.501386 0.426945 0.940216 -0.076008
C10   C     C_R   0.512317 0.573309 0.060278 -0.076136
C11   C     C_R   0.506410 0.499154 0.970153 -0.042907
C12   C     C_R   0.506468 0.501064 0.030311 -0.042919
C13   C     C_R   0.511135 0.569704 0.940034 -0.045988
C14   C     C_R   0.500400 0.430457 0.060383 -0.045976
C15   C     C_R   0.495715 0.356514 0.971652 0.195697
C16   C     C_R   0.517406 0.643715 0.028820 0.195731
C17   C     C_R   0.495129 0.359343 0.030803 -0.179100
C18   C     C_R   0.516561 0.640824 0.969619 -0.179264
O9    O     O_2   0.511701 0.635128 0.851243 -0.521282
O10   O     O_2   0.490782 0.364648 0.148851 -0.521211
O11   O     O_2   0.500928 0.362432 0.849726 -0.480565
O12   O     O_2   0.521484 0.638193 0.151077 -0.479988
H1    H     H_    0.490384 0.304866 0.053784 0.209684
H2    H     H_    0.520133 0.695252 0.946598 0.209553
C19   C     C_R   0.437480 0.532125 0.235771 -0.146696
C20   C     C_R   0.432516 0.462078 0.759691 -0.145049
H3    H     H_    0.388682 0.555250 0.209797 0.188092
H4    H     H_    0.379862 0.434654 0.782099 0.187915
C21   C     C_R   0.436245 0.535569 0.295180 0.304589
C22   C     C_R   0.430698 0.458604 0.700178 0.301604
C23   C     C_R   0.500472 0.504834 0.328597 -0.154993
C24   C     C_R   0.500010 0.495009 0.671427 -0.154953
C25   C     C_R   0.565904 0.474628 0.301536 -0.255263
C26   C     C_R   0.570519 0.530916 0.703252 -0.256935
H5    H     H_    0.615771 0.451010 0.326133 0.172444
H6    H     H_    0.624294 0.558957 0.682288 0.171857
C27   C     C_R   0.567348 0.473508 0.242467 -0.081260
C28   C     C_R   0.572178 0.532087 0.762430 -0.082858
H7    H     H_    0.618549 0.450519 0.222350 0.162174
H8    H     H_    0.627238 0.559558 0.786268 0.161255
C29   C     C_R   0.503005 0.501887 0.209341 0.276974
C30   C     C_R   0.503105 0.498042 0.790887 0.277974
C31   C     C_R   0.484758 0.264743 0.506467 -0.024092
C32   C     C_R   0.515151 0.735250 0.493561 -0.035688
C33   C     C_R   0.556862 0.231161 0.524937 -0.164733
C34   C     C_R   0.443117 0.768732 0.474788 -0.125385
C35   C     C_R   0.553812 0.150870 0.530466 -0.106493
C36   C     C_R   0.446089 0.849013 0.469233 -0.108043
C37   C     C_R   0.479144 0.103170 0.516647 0.157553
C38   C     C_R   0.520598 0.896797 0.483326 0.155798
C39   C     C_R   0.406338 0.136119 0.499785 -0.105307
C40   C     C_R   0.593323 0.863958 0.500548 -0.107478
C41   C     C_R   0.409033 0.216853 0.494751 -0.150143
C42   C     C_R   0.590711 0.783234 0.505612 -0.183046
C43   C     C_2   0.478095 0.018611 0.518442 0.044481
C44   C     C_2   0.521551 0.981335 0.481469 0.045329
H9    H     H_    0.615700 0.266857 0.535273 0.162642
H10   H     H_    0.384399 0.732963 0.464227 0.184009
H11   H     H_    0.647138 0.758566 0.519689 0.154985
H12   H     H_    0.352529 0.241598 0.480957 0.156975
H13   H     H_    0.348210 0.099300 0.489454 0.154168
H14   H     H_    0.651318 0.900856 0.511118 0.153065
H15   H     H_    0.389944 0.874166 0.455100 0.158005
H16   H     H_    0.610017 0.125640 0.544358 0.154165
N3    N     N_R   0.711660 0.510070 0.507250 -0.179301
N4    N     N_R   0.288340 0.489930 0.492750 -0.180074
C45   C     C_R   0.748008 0.464327 0.470962 0.085109
C46   C     C_R   0.251883 0.534838 0.529560 0.128958
C47   C     C_R   0.835001 0.468210 0.470649 -0.243541
C48   C     C_R   0.164881 0.530802 0.529864 -0.225203
C49   C     C_R   0.885058 0.519333 0.508575 0.181683
C50   C     C_R   0.114956 0.480409 0.491393 0.173267
C51   C     C_R   0.845671 0.566153 0.545320 -0.261869
C52   C     C_R   0.154441 0.434426 0.454123 -0.246758
C53   C     C_R   0.758273 0.560478 0.544098 0.088842
C54   C     C_R   0.241839 0.440229 0.455369 0.134745
C55   C     C_2   0.977943 0.527455 0.509840 -0.179648
C56   C     C_2   0.022091 0.472178 0.490117 -0.173082
H17   H     H_    0.709231 0.425478 0.441610 0.125979
H18   H     H_    0.290575 0.573130 0.559316 0.128912
H19   H     H_    0.272633 0.404693 0.426900 0.121653
H20   H     H_    0.727569 0.596650 0.572169 0.118106
H21   H     H_    0.989662 0.418613 0.471700 0.148655
H22   H     H_    0.010472 0.581028 0.528196 0.149379
H23   H     H_    0.882244 0.606709 0.574741 0.139013
H24   H     H_    0.117945 0.394434 0.424278 0.140823
H25   H     H_    0.137876 0.565457 0.560895 0.137209
H26   H     H_    0.861845 0.432831 0.440010 0.134037
I1    I     I_    0.485742 0.240778 0.937436 -0.168407
I2    I     I_    0.524838 0.759342 0.062948 -0.168517
N5    N     N_R   0.372256 0.573897 0.320420 0.135242
O13   O     O_R   0.392666 0.626969 0.359731 -0.351079
O14   O     O_R   0.296342 0.566251 0.297413 -0.340418
N6    N     N_R   0.360367 0.414698 0.670234 0.134998
O15   O     O_R   0.372703 0.362583 0.632368 -0.333599
O16   O     O_R   0.285089 0.416580 0.687677 -0.339537
I3    I     I_    0.589714 0.038965 0.415409 -0.324783
I4    I     I_    0.409791 0.960897 0.584407 -0.315224

loop_
_geom_bond_atom_site_label_1
_geom_bond_atom_site_label_2
_geom_bond_distance
_ccdc_geom_bond_type
C39   C41   1.393797 A    
C15   C17   1.393651 A    
C48   H25   1.080683 S    
C56   H21   1.084050 S    
O5    C3    1.303587 A    
C28   C30   1.398196 A    
C50   C56   1.481732 S    
O1    C1    1.303683 A    
C7    C9    1.414503 A    
C12   C14   1.407367 A    
C20   C22   1.400686 A    
N4    C46   1.358355 A    
C33   C35   1.386875 A    
N6    O15   1.301549 A    
C34   C36   1.386852 A    
C53   H20   1.081837 S    
C36   C38   1.397272 A    
Cu2   N3    2.030348 S    
O4    Cu1   1.966668 S    
C37   C39   1.399341 A    
C38   C40   1.399347 A    
N2    C29   1.437078 S    
C31   C41   1.403937 A    
Cu1   N4    2.030346 S    
C27   H7    1.082783 S    
C28   H8    1.082863 S    
C11   C12   1.416374 A    
C3    C23   1.473622 S    
C45   H17   1.081780 S    
C8    O12   1.345772 S    
C25   H5    1.083408 S    
C9    C15   1.421483 A    
C10   C16   1.421490 A    
Cu1   Cu2   2.703203 S    
C21   C23   1.418693 A    
O2    C2    1.303861 A    
C22   C24   1.418689 A    
O2    Cu2   1.965849 S    
C47   C49   1.406260 A    
C24   C26   1.405743 A    
C51   C53   1.395681 A    
C6    C14   1.399814 A    
C49   C55   1.482104 S    
C26   H6    1.083355 S    
C35   C37   1.397336 A    
C52   C54   1.395555 A    
C43   C44   1.348997 D    
C51   H23   1.083314 S    
C46   C48   1.392500 A    
C7    O11   1.345749 S    
C2    C32   1.462678 S    
C45   C47   1.392523 A    
C34   H10   1.083146 S    
C39   H13   1.083342 S    
C15   I1    2.134840 S    
C21   N5    1.436706 S    
C40   C42   1.393799 A    
C46   H18   1.081704 S    
O7    Cu2   1.944329 S    
C23   C25   1.405553 A    
C37   C43   1.457327 S    
C43   I4    2.131389 S    
C42   H11   1.083106 S    
C20   C30   1.399831 A    
C25   C27   1.392003 A    
O6    C4    1.304784 A    
N3    C45   1.358372 A    
N5    O14   1.301623 A    
O7    C3    1.304562 A    
O3    Cu2   1.966670 S    
O8    C4    1.303456 A    
O4    C2    1.299938 A    
C49   C51   1.403270 A    
C8    C10   1.414478 A    
C48   C50   1.406092 A    
C31   C33   1.404832 A    
C10   C12   1.420363 A    
O1    Cu1   1.965849 S    
N4    C54   1.358612 A    
C13   C18   1.399565 A    
C5    N1    1.365405 A    
C17   H1    1.083198 S    
C54   H19   1.081770 S    
O6    Cu2   1.944811 S    
C1    C31   1.462729 S    
C50   C52   1.403127 A    
O3    C1    1.300145 A    
O8    Cu1   1.944329 S    
C5    O9    1.350093 S    
C47   H26   1.080549 S    
C38   C44   1.457183 S    
C6    O10   1.350099 S    
C41   H12   1.083098 S    
C26   C28   1.392028 A    
C36   H15   1.083673 S    
C18   H2    1.083190 S    
C55   H22   1.084232 S    
C9    C11   1.420334 A    
C19   C29   1.399813 A    
C19   H3    1.083297 S    
C20   H4    1.083309 S    
N6    O16   1.301348 A    
C32   C42   1.403848 A    
N1    C30   1.437067 S    
C16   C18   1.393643 A    
N1    C7    1.369590 A    
C32   C34   1.404925 A    
N2    C8    1.369620 A    
C44   I3    2.131364 S    
C11   C13   1.407347 A    
C19   C21   1.400794 A    
C52   H24   1.083306 S    
C27   C29   1.398267 A    
C5    C13   1.399840 A    
C22   N6    1.436739 S    
C16   I2    2.134849 S    
O5    Cu1   1.944811 S    
N3    C53   1.358674 A    
C14   C17   1.399579 A    
C6    N2    1.365424 A    
N5    O13   1.301539 A    
C40   H14   1.083345 S    
C4    C24   1.473818 S    
C33   H9    1.083146 S    
C55   C56   1.346921 D    
C35   H16   1.083677 S    
