data_mof_unit_35781.cif
_audit_creation_date              2012-12-11T15:44:53-0500
_audit_creation_method            fapswitch 2.2
_symmetry_space_group_name_H-M    P1
_symmetry_Int_Tables_number       1
_space_group_crystal_system       triclinic
_cell_length_a                    6.948404
_cell_length_b                    16.800006
_cell_length_c                    17.22208
_cell_angle_alpha                 100.291421
_cell_angle_beta                  89.617216
_cell_angle_gamma                 89.92349
_cell_volume                      1977.99478737

loop_
_atom_site_label
_atom_site_type_symbol
_atom_type_description
_atom_site_fract_x
_atom_site_fract_y
_atom_site_fract_z
_atom_type_partial_charge
O1    O     O_R   0.494370 0.415690 0.413450 -0.539670
O2    O     O_R   0.819420 0.429360 0.578420 -0.541847
O3    O     O_R   0.994280 0.584310 0.586550 -0.547276
C1    C     C_R   0.652438 0.414290 0.605507 0.699596
O4    O     O_R   0.823790 0.406230 0.413570 -0.541048
O5    O     O_R   0.998670 0.561000 0.420530 -0.541173
C2    C     C_R   0.655252 0.382969 0.384939 0.687623
O6    O     O_R   0.489970 0.439000 0.579470 -0.536614
O7    O     O_3   0.662300 0.550810 0.502470 -0.378633
V1    V     V_3+5 0.935380 0.490570 0.499540 1.386957
O8    O     O_R   0.328650 0.570640 0.421580 -0.537337
C3    C     C_R   0.160814 0.589014 0.397214 0.703282
O9    O     O_R   0.324290 0.593770 0.586430 -0.538944
C4    C     C_R   0.155131 0.616854 0.614711 0.688887
V2    V     V_3+5 0.435930 0.509430 0.500460 1.387701
O10   O     O_3   0.159140 0.449190 0.497530 -0.366577
C5    C     C_R   0.296942 0.746331 0.692495 0.077511
C6    C     C_R   0.301643 0.803792 0.764173 0.062876
C7    C     C_R   0.133739 0.815492 0.814589 -0.086165
C8    C     C_R   0.981466 0.760577 0.797482 -0.193568
H1    H     H_    0.857182 0.765011 0.836246 0.125219
C9    C     C_R   0.990211 0.696725 0.733281 -0.204514
H2    H     H_    0.872686 0.653814 0.724718 0.127815
C10   C     C_R   0.147148 0.687855 0.680741 -0.087642
C11   C     C_R   0.162085 0.643340 0.336932 -0.098046
C12   C     C_R   0.098488 0.861418 0.165526 -0.062965
C13   C     C_R   0.912546 0.817008 0.269881 -0.202620
C14   C     C_R   0.936883 0.868007 0.215551 -0.171010
C15   C     C_R   0.233964 0.799960 0.169414 -0.231252
C16   C     C_R   0.208684 0.747230 0.224325 0.129195
C17   C     C_R   0.052640 0.758793 0.278605 0.144453
C18   C     C_R   0.041709 0.712952 0.340773 0.006027
C19   C     C_R   0.307555 0.629935 0.278545 -0.195377
C20   C     C_R   0.335042 0.682592 0.225164 -0.197405
H3    H     H_    0.405768 0.579338 0.275818 0.134135
H4    H     H_    0.780466 0.823204 0.303904 0.123758
H5    H     H_    0.453419 0.671626 0.183313 0.127516
H6    H     H_    0.825964 0.912640 0.212098 0.128689
H7    H     H_    0.354109 0.791464 0.128270 0.118934
C21   C     C_R   0.658113 0.363384 0.668055 -0.066155
C22   C     C_R   0.602365 0.141065 0.834924 -0.083292
C23   C     C_R   0.402182 0.190433 0.735338 0.061608
C24   C     C_R   0.432724 0.139062 0.789898 -0.188701
C25   C     C_R   0.742340 0.198668 0.825995 -0.262737
C26   C     C_R   0.711260 0.253885 0.774076 0.140715
C27   C     C_R   0.542197 0.249513 0.727100 0.132789
C28   C     C_R   0.518680 0.304450 0.673846 -0.248722
C29   C     C_R   0.820427 0.368211 0.717244 -0.163166
C30   C     C_R   0.846513 0.314452 0.769388 -0.196773
H8    H     H_    0.397330 0.300413 0.634468 0.126697
H9    H     H_    0.930729 0.413107 0.714238 0.124398
H10   H     H_    0.974746 0.319640 0.805419 0.120102
H11   H     H_    0.318998 0.097244 0.797681 0.120425
H12   H     H_    0.871058 0.202844 0.861708 0.125410
C31   C     C_R   0.811405 0.275549 0.281804 -0.156133
H13   H     H_    0.951924 0.294204 0.304991 0.116274
C32   C     C_R   0.799808 0.211960 0.216865 -0.150586
H14   H     H_    0.932182 0.183650 0.192358 0.118772
C33   C     C_R   0.620563 0.185248 0.184116 -0.048575
C34   C     C_R   0.453274 0.224131 0.218543 -0.155999
H15   H     H_    0.312754 0.205464 0.195366 0.116053
C35   C     C_R   0.464871 0.287720 0.283483 -0.150582
H16   H     H_    0.332497 0.316022 0.308000 0.119240
C36   C     C_R   0.644130 0.314489 0.316175 -0.050178
O11   O     O_R   0.774880 0.061150 0.920630 -0.538574
O12   O     O_R   0.440980 0.093710 0.086500 -0.542045
O13   O     O_R   0.266190 0.938890 0.079390 -0.537530
C37   C     C_R   0.609487 0.116902 0.115220 0.684146
O14   O     O_R   0.445420 0.070740 0.921670 -0.547223
O15   O     O_R   0.270660 0.915760 0.913380 -0.545656
C38   C     C_R   0.612261 0.088671 0.896708 0.715679
O16   O     O_R   0.770400 0.084270 0.086640 -0.540860
O17   O     O_3   0.602590 0.949210 0.997500 -0.372254
V3    V     V_3+5 0.329470 0.009420 0.000470 1.388816
O18   O     O_R   0.940650 0.906250 0.913470 -0.544946
C39   C     C_R   0.112640 0.883407 0.884362 0.681976
O19   O     O_R   0.936210 0.929220 0.078300 -0.541195
C40   C     C_R   0.103536 0.912647 0.103775 0.703689
V4    V     V_3+5 0.828930 0.990510 0.999490 1.387352
O20   O     O_3   0.105680 0.050790 0.002500 -0.368718
C41   C     C_3   0.442519 0.751422 0.625814 -0.370046
C42   C     C_3   0.338333 0.769456 0.552857 -0.296972
C43   C     C_3   0.465485 0.755710 0.480117 -0.770941
H17   H     H_    0.558174 0.808641 0.480773 0.229595
H18   H     H_    0.550869 0.699379 0.476726 0.255313
H19   H     H_    0.378598 0.750910 0.426191 0.218029
H20   H     H_    0.209166 0.731566 0.539206 0.196380
H21   H     H_    0.293342 0.833773 0.565197 0.192344
H22   H     H_    0.549938 0.799823 0.639291 0.183261
H23   H     H_    0.534864 0.696891 0.613624 0.198255
C44   C     C_3   0.216270 0.180555 0.688957 -0.374433
C45   C     C_3   0.246335 0.125886 0.608518 -0.303434
C46   C     C_3   0.057195 0.111896 0.563592 -0.764828
H24   H     H_    0.951241 0.081918 0.597419 0.228898
H25   H     H_    0.996650 0.170369 0.553374 0.232636
H26   H     H_    0.083041 0.072226 0.505608 0.216300
H27   H     H_    0.351480 0.153967 0.572724 0.194446
H28   H     H_    0.304771 0.066388 0.617050 0.192867
H29   H     H_    0.104148 0.153127 0.722282 0.180668
H30   H     H_    0.156979 0.240028 0.681737 0.180321
C47   C     C_3   0.491548 0.847281 0.784745 -0.343146
C48   C     C_3   0.501681 0.925963 0.751558 -0.305142
C49   C     C_3   0.709409 0.949538 0.736974 -0.787386
H31   H     H_    0.792198 0.958309 0.792422 0.247269
H32   H     H_    0.781271 0.901373 0.694270 0.228630
H33   H     H_    0.711857 0.006334 0.712500 0.218741
H34   H     H_    0.421697 0.921078 0.695249 0.183358
H35   H     H_    0.429855 0.973494 0.793840 0.198184
H36   H     H_    0.527078 0.856641 0.848068 0.195279
H37   H     H_    0.611110 0.806279 0.760905 0.159390
C50   C     C_3   0.919003 0.744630 0.413482 -0.374414
C51   C     C_3   0.972387 0.832921 0.451879 -0.295834
C52   C     C_3   0.912568 0.857020 0.538889 -0.810939
H38   H     H_    0.914715 0.804860 0.570378 0.232101
H39   H     H_    0.011531 0.904262 0.569118 0.214054
H40   H     H_    0.768242 0.885428 0.544841 0.227513
H41   H     H_    0.129439 0.841844 0.446869 0.203486
H42   H     H_    0.904847 0.877348 0.420106 0.191696
H43   H     H_    0.768749 0.741788 0.393412 0.171519
H44   H     H_    0.930321 0.705473 0.458452 0.182947

loop_
_geom_bond_atom_site_label_1
_geom_bond_atom_site_label_2
_ccdc_geom_bond_type
C21   C28   A    
O12   C37   A    
C31   H13   S    
C46   H24   S    
O11   V4    S    
C18   C50   S    
C20   H5    S    
O17   V3    S    
C7    C8    A    
C1    O6    A    
C41   C42   S    
C45   H28   S    
O19   C40   A    
C12   C40   S    
C34   C35   A    
C7    C39   S    
C23   C44   S    
O16   V4    S    
O5    C3    A    
C16   C17   A    
C32   C33   A    
C47   H36   S    
C42   H20   S    
O12   V3    S    
C50   H43   S    
C6    C7    A    
C23   C27   A    
C4    C10   S    
O14   C38   A    
C35   C36   A    
O8    V2    S    
C24   H11   S    
C29   H9    S    
C1    C21   S    
O15   V3    S    
C48   H35   S    
O1    V2    S    
C26   C30   A    
C44   H30   S    
O7    V1    S    
C22   C38   S    
C52   H40   S    
C41   H22   S    
C11   C18   A    
C33   C34   A    
C46   H25   S    
V3    O20   S    
O9    C4    A    
C22   C24   A    
O13   C40   A    
C51   C52   S    
C45   H27   S    
C19   C20   A    
C28   H8    S    
O19   V4    S    
C5    C10   A    
C16   C20   A    
C13   C17   A    
C47   C48   S    
O14   V3    S    
C44   C45   S    
O4    C2    A    
C47   H37   S    
O11   C38   A    
C50   H44   S    
C6    C47   S    
O2    C1    A    
O18   C39   A    
C15   C16   A    
C25   H12   S    
C33   C37   S    
C43   H17   S    
C14   H6    S    
C37   O16   A    
C30   H10   S    
C31   C36   A    
C15   H7    S    
C35   H16   S    
C5    C6    A    
O17   V4    S    
C48   H34   S    
C49   H32   S    
O13   V3    S    
O3    C4    A    
C41   H23   S    
C29   C30   A    
C43   H18   S    
C8    C9    A    
O6    V2    S    
C31   C32   A    
O15   C39   A    
C22   C25   A    
C9    C10   A    
C23   C24   A    
O2    V1    S    
C13   C14   A    
C25   C26   A    
C52   H38   S    
C21   C29   A    
C27   C28   A    
C50   C51   S    
O1    C2    A    
C17   C18   A    
O5    V1    S    
O8    C3    A    
C13   H4    S    
C46   H26   S    
C12   C14   A    
C3    C11   S    
O9    V2    S    
O7    V2    S    
O4    V1    S    
O3    V1    S    
V1    O10   S    
C51   H42   S    
C32   H14   S    
C51   H41   S    
C42   H21   S    
C45   C46   S    
C19   H3    S    
C49   H33   S    
C5    C41   S    
C48   C49   S    
C2    C36   S    
V4    O20   S    
C26   C27   A    
C43   H19   S    
C8    H1    S    
C12   C15   A    
C42   C43   S    
C49   H31   S    
C9    H2    S    
C34   H15   S    
C44   H29   S    
O18   V4    S    
V2    O10   S    
C11   C19   A    
C52   H39   S    
