data_mof_unit_30376.cif
_audit_creation_date              2012-12-10T18:59:52-0500
_audit_creation_method            fapswitch 2.2
_symmetry_space_group_name_H-M    P1
_symmetry_Int_Tables_number       1
_space_group_crystal_system       triclinic
_cell_length_a                    10.65829
_cell_length_b                    10.685849
_cell_length_c                    9.868168
_cell_angle_alpha                 90.633044
_cell_angle_beta                  89.283291
_cell_angle_gamma                 89.81014
_cell_volume                      1123.75082828

loop_
_atom_site_label
_atom_site_type_symbol
_atom_type_description
_atom_site_fract_x
_atom_site_fract_y
_atom_site_fract_z
_atom_type_partial_charge
C1    C     C_R   0.499491 0.260011 0.499464 0.856274
C2    C     C_R   0.500508 0.739989 0.500536 0.856277
C3    C     C_R   0.871936 0.502366 0.499402 -0.091707
C4    C     C_R   0.128063 0.497633 0.500597 -0.091704
C5    C     C_R   0.935485 0.599325 0.566961 -0.011747
C6    C     C_R   0.064514 0.400674 0.433038 -0.011754
C7    C     C_R   0.536283 0.062577 0.382081 -0.127693
C8    C     C_R   0.463712 0.937423 0.617918 -0.127698
C9    C     C_R   0.537512 0.934482 0.382836 -0.183280
C10   C     C_R   0.462482 0.065518 0.617163 -0.183287
C11   C     C_R   0.501100 0.872438 0.500810 0.004823
C12   C     C_R   0.498897 0.127562 0.499190 0.004814
C13   C     C_R   0.426667 0.582759 0.074724 0.128500
C14   C     C_R   0.573332 0.417241 0.925275 0.128494
C15   C     C_R   0.426183 0.582257 0.929738 0.121209
C16   C     C_R   0.573817 0.417743 0.070262 0.121213
C17   C     C_R   0.260513 0.497750 0.500397 0.932283
C18   C     C_R   0.739487 0.502249 0.499603 0.932281
C19   C     C_R   0.235205 0.205935 0.161549 0.426405
C20   C     C_R   0.764803 0.794076 0.838446 0.426402
C21   C     C_R   0.173020 0.307602 0.226471 0.160478
C22   C     C_R   0.826984 0.692405 0.773527 0.160470
C23   C     C_R   0.132307 0.296273 0.362589 -0.087399
C24   C     C_R   0.867692 0.703727 0.637407 -0.087389
C25   C     C_R   0.149048 0.183179 0.430576 -0.236272
C26   C     C_R   0.850948 0.816818 0.569413 -0.236278
C27   C     C_R   0.204996 0.080482 0.365169 0.495147
C28   C     C_R   0.795001 0.919517 0.634817 0.495146
C29   C     C_R   0.249729 0.092620 0.231367 -0.393603
C30   C     C_R   0.750274 0.907386 0.768622 -0.393599
C31   C     C_R   0.934348 0.402782 0.434144 0.023239
C32   C     C_R   0.065652 0.597218 0.565854 0.023239
H1    H     H_    0.295252 0.013638 0.181342 0.126628
H2    H     H_    0.704753 0.986371 0.818645 0.126629
H3    H     H_    0.115559 0.173937 0.534120 0.184075
H4    H     H_    0.884433 0.826054 0.465867 0.184076
H5    H     H_    0.565321 0.110293 0.290934 0.147243
H6    H     H_    0.434671 0.889707 0.709066 0.147243
H7    H     H_    0.567433 0.884380 0.291901 0.155239
H8    H     H_    0.432557 0.115621 0.708097 0.155241
N1    N     N_R   0.499970 0.499970 0.857200 -0.077064
N2    N     N_R   0.500030 0.500030 0.142800 -0.077063
O1    O     O_R   0.499990 0.316750 0.614620 -0.613909
O2    O     O_R   0.500010 0.683250 0.385380 -0.613911
O3    O     O_R   0.499990 0.316780 0.385290 -0.606637
O4    O     O_R   0.500010 0.683220 0.614710 -0.606637
O5    O     O_R   0.316760 0.500000 0.614660 -0.593649
O6    O     O_R   0.683240 0.500000 0.385340 -0.593646
O7    O     O_R   0.316760 0.500020 0.385330 -0.594373
O8    O     O_R   0.683240 0.499980 0.614670 -0.594379
Zn1   Zn    Zn3+2 0.500000 0.499980 0.653120 1.002779
Zn2   Zn    Zn3+2 0.500000 0.500020 0.346880 1.002782
N3    N     N_3   0.347073 0.666202 0.858099 -0.386774
H9    H     H_    0.369122 0.757625 0.887463 0.150066
H10   H     H_    0.254420 0.648490 0.887490 0.154818
N4    N     N_3   0.652925 0.333797 0.141901 -0.386771
H11   H     H_    0.630869 0.242374 0.112542 0.150071
H12   H     H_    0.745578 0.351502 0.112505 0.154815
O9    O     O_3   0.279054 0.218499 0.030073 -0.798546
H13   H     H_    0.321265 0.139711 0.000776 0.323438
O10   O     O_3   0.720963 0.781519 0.969928 -0.798540
H14   H     H_    0.678751 0.860309 0.999221 0.323436
N5    N     N_3   0.149788 0.422607 0.156311 -0.434999
H15   H     H_    0.053063 0.429738 0.141719 0.160913
H16   H     H_    0.191546 0.421975 0.060035 0.225117
N6    N     N_3   0.850218 0.577403 0.843691 -0.435013
H17   H     H_    0.946940 0.570283 0.858296 0.160917
H18   H     H_    0.808446 0.578031 0.939958 0.225122
O11   O     O_3   0.213979 0.969500 0.434287 -0.778660
H19   H     H_    0.251771 0.905038 0.373148 0.331623
O12   O     O_3   0.786015 0.030496 0.565693 -0.778660
H20   H     H_    0.748225 0.094961 0.626829 0.331621
N7    N     N_3   0.864082 0.302647 0.373392 -0.436374
H21   H     H_    0.893265 0.291891 0.272498 0.182920
H22   H     H_    0.884912 0.219972 0.424021 0.234910
N8    N     N_3   0.135917 0.697357 0.626597 -0.436378
H23   H     H_    0.106741 0.708114 0.727493 0.182922
H24   H     H_    0.115082 0.780028 0.575966 0.234914
N9    N     N_3   0.351317 0.670009 0.151286 -0.393574
H25   H     H_    0.257406 0.658485 0.125029 0.169539
H26   H     H_    0.378912 0.760676 0.126123 0.148605
N10   N     N_3   0.648684 0.329992 0.848714 -0.393575
H27   H     H_    0.742595 0.341525 0.874965 0.169541
H28   H     H_    0.621097 0.239324 0.873883 0.148603

loop_
_geom_bond_atom_site_label_1
_geom_bond_atom_site_label_2
_ccdc_geom_bond_type
N6    H18   S    
N5    H16   S    
C27   C29   A    
N7    H21   S    
C1    O3    A    
C13   N9    S    
C20   C30   A    
N3    H9    S    
C2    O4    A    
C15   N3    S    
C19   C21   A    
C24   C26   A    
C31   N7    S    
C29   H1    S    
C9    H7    S    
N4    H11   S    
C3    C18   S    
C10   H8    S    
C20   O10   S    
C22   N6    S    
C1    O1    A    
C2    O2    A    
C27   O11   S    
C5    C32   A    
O2    Zn2   S    
C6    C31   A    
O9    H13   S    
N7    H22   S    
O10   H14   S    
C1    C12   S    
C8    H6    S    
C2    C11   S    
C13   N2    A    
N3    H10   S    
C7    C12   A    
C30   H2    S    
N8    H23   S    
C15   N1    A    
C4    C6    A    
C17   O7    A    
N9    H26   S    
O5    Zn1   S    
O3    Zn2   S    
C19   O9    S    
O4    Zn1   S    
N5    H15   S    
C16   N4    S    
O7    Zn2   S    
O8    Zn1   S    
C7    H5    S    
C3    C31   A    
C9    C11   A    
C4    C32   A    
C10   C12   A    
C25   H3    S    
C14   N1    A    
C4    C17   S    
C26   H4    S    
C20   C22   A    
N10   H28   S    
C13   C15   A    
C22   C24   A    
C28   O12   S    
C14   N10   S    
C19   C29   A    
C16   N2    A    
C18   O8    A    
C7    C9    A    
C17   O5    A    
N8    H24   S    
C3    C5    A    
C18   O6    A    
C32   N8    S    
C25   C27   A    
C26   C28   A    
C21   C23   A    
O12   H20   S    
O1    Zn1   S    
C5    C24   S    
C8    C11   A    
C6    C23   S    
C28   C30   A    
N4    H12   S    
N6    H17   S    
C14   C16   A    
C23   C25   A    
O11   H19   S    
C21   N5    S    
N9    H25   S    
O6    Zn2   S    
C8    C10   A    
N10   H27   S    
N1    Zn1   S    
N2    Zn2   S    
