data_mof_unit_13399.cif
_audit_creation_date              2013-03-05T15:52:43-0500
_audit_creation_method            fapswitch 2.2
_symmetry_space_group_name_H-M    P1
_symmetry_Int_Tables_number       1
_space_group_crystal_system       triclinic
_cell_length_a                    10.69526
_cell_length_b                    10.793887
_cell_length_c                    17.015771
_cell_angle_alpha                 99.754043
_cell_angle_beta                  99.483306
_cell_angle_gamma                 61.540212
_cell_volume                      1693.98258791

loop_
_atom_site_label
_atom_site_type_symbol
_atom_site_description
_atom_site_fract_x
_atom_site_fract_y
_atom_site_fract_z
_atom_type_partial_charge
O1    O     O_R   0.749250 0.499990 0.439200 -0.502476
O2    O     O_R   0.477870 0.725740 0.440280 -0.486681
C1    C     C_R   0.355029 0.775566 0.402140 0.578585
O3    O     O_R   0.260770 0.742210 0.412610 -0.493802
O4    O     O_R   0.297990 0.466320 0.394220 -0.491075
C2    C     C_R   0.369698 0.346400 0.357254 0.547827
O5    O     O_R   0.487720 0.253870 0.385870 -0.506781
O6    O     O_R   0.721940 0.304340 0.422320 -0.497297
C3    C     C_R   0.777532 0.376493 0.405348 0.568599
O7    O     O_R   0.750770 0.502570 0.614050 -0.506631
O8    O     O_R   0.479280 0.728140 0.602370 -0.477100
C4    C     C_R   0.380991 0.714749 0.631398 0.559828
O9    O     O_R   0.262290 0.744790 0.587460 -0.506401
O10   O     O_R   0.299400 0.468710 0.556310 -0.514846
C5    C     C_R   0.364305 0.345376 0.578862 0.545957
O11   O     O_R   0.489240 0.256450 0.560730 -0.491128
O12   O     O_R   0.723350 0.306730 0.584410 -0.496459
C6    C     C_R   0.772413 0.381683 0.629815 0.537566
Cr1   Cr    Cr6+3 0.608020 0.610770 0.522990 1.072124
Cr2   Cr    Cr6+3 0.289390 0.599570 0.488050 1.053774
Cr3   Cr    Cr6+3 0.602610 0.289690 0.489020 1.053160
O13   O     O_3   0.500010 0.500010 0.500020 -0.281072
C7    C     C_1   0.343066 0.335780 0.273947 -0.002493
C8    C     C_1   0.331280 0.326104 0.203083 0.025526
C9    C     C_2   0.853331 0.327427 0.334369 -0.080638
C10   C     C_2   0.821901 0.330738 0.157411 0.214799
C11   C     C_2   0.865330 0.217279 0.198010 -0.156804
C12   C     C_2   0.835032 0.230832 0.279929 -0.125144
H1    H     H_    0.936565 0.110842 0.173617 0.132749
H2    H     H_    0.789614 0.166705 0.293518 0.175060
H3    H     H_    0.902071 0.387886 0.319617 0.127746
C13   C     C_2   0.334583 0.847538 0.333307 -0.122400
C14   C     C_2   0.347862 0.819389 0.156698 -0.002081
C15   C     C_2   0.434569 0.850590 0.215703 -0.026675
C16   C     C_2   0.449508 0.816816 0.296950 -0.121748
H4    H     H_    0.557452 0.760703 0.325412 0.192318
H5    H     H_    0.227037 0.905570 0.304858 0.099007
C17   C     C_2   0.299021 0.318301 0.637705 -0.112285
C18   C     C_2   0.320798 0.312343 0.814257 -0.002131
C19   C     C_2   0.321691 0.211372 0.754716 -0.161083
C20   C     C_2   0.362328 0.201471 0.675575 -0.053719
H6    H     H_    0.305087 0.124809 0.767109 0.132021
H7    H     H_    0.204617 0.408821 0.660623 0.118864
C21   C     C_1   0.816796 0.342658 0.708830 -0.020140
C22   C     C_1   0.844037 0.313474 0.776336 -0.015645
C23   C     C_1   0.357746 0.765834 0.713254 -0.008273
C24   C     C_1   0.325131 0.813244 0.780107 -0.005269
O14   O     O_R   0.170650 0.915100 0.051290 -0.512525
O15   O     O_R   0.941960 0.184500 0.049060 -0.528612
C25   C     C_R   0.893421 0.308000 0.086612 0.548527
O16   O     O_R   0.922640 0.402670 0.071640 -0.457234
O17   O     O_R   0.196880 0.368740 0.083740 -0.488742
C26   C     C_R   0.318848 0.299391 0.119784 0.573354
O18   O     O_R   0.411120 0.181190 0.091480 -0.492879
O19   O     O_R   0.364220 0.944920 0.062310 -0.487960
C27   C     C_R   0.294395 0.891546 0.084090 0.527957
O20   O     O_R   0.158740 0.906940 0.874970 -0.491914
O21   O     O_R   0.930920 0.176940 0.885610 -0.491539
C28   C     C_R   0.885959 0.296662 0.858567 0.557230
O22   O     O_R   0.910730 0.394510 0.895320 -0.501638
O23   O     O_R   0.185840 0.361180 0.920280 -0.494640
C29   C     C_R   0.306902 0.290653 0.892616 0.544811
O24   O     O_R   0.399210 0.173040 0.915160 -0.508177
O25   O     O_R   0.353170 0.937370 0.898860 -0.499979
C30   C     C_R   0.280264 0.881575 0.857028 0.560557
Cr4   Cr    Cr6+3 0.053780 0.052210 0.965970 1.051297
Cr5   Cr    Cr6+3 0.060060 0.372530 0.992430 1.081952
Cr6   Cr    Cr6+3 0.372600 0.061970 0.991430 1.069562
O26   O     O_3   0.162150 0.162240 0.983280 -0.283756
C31   C     C_1   0.476684 0.069214 0.645262 0.257530
N1    N     N_1   0.568346 0.963525 0.621117 -0.259599
C32   C     C_1   0.362864 0.418541 0.807068 0.189517
N2    N     N_1   0.397593 0.502828 0.801552 -0.316417
N3    N     N_R   0.715922 0.470690 0.184498 0.060251
O27   O     O_R   0.608487 0.486480 0.218940 -0.354588
O28   O     O_R   0.715066 0.582334 0.164690 -0.332577
C33   C     C_1   0.520171 0.915694 0.203742 0.276269
N4    N     N_1   0.590541 0.966214 0.195191 -0.248401
C34   C     C_1   0.288409 0.727973 0.167665 0.247638
N5    N     N_1   0.240696 0.655473 0.176314 -0.262510

loop_
_geom_bond_atom_site_label_1
_geom_bond_atom_site_label_2
_geom_bond_distance
_ccdc_geom_bond_type
C9    H3    1.087872 S    
O19   C27   1.265130 A    
O11   Cr3   2.034288 S    
C11   H1    1.086759 S    
C16   H4    1.087633 S    
O20   Cr4   2.046699 S    
O19   Cr6   1.928408 S    
C3    C9    1.446757 S    
O4    Cr2   1.941761 S    
C26   O18   1.257796 A    
O17   C26   1.264679 A    
C9    C12   1.338272 D    
O8    Cr1   1.922438 S    
C10   C11   1.353366 D    
N3    O28   1.300757 A    
O25   Cr6   1.942623 S    
C10   C25   1.456422 S    
C15   C33   1.447930 S    
O4    C2    1.263429 A    
Cr4   O26   1.980301 S    
O18   Cr6   2.062965 S    
C5    O11   1.270860 A    
C15   C16   1.453320 S    
O24   Cr6   2.043690 S    
O21   Cr4   1.937676 S    
O22   Cr5   2.059023 S    
Cr6   O26   1.970537 S    
C7    C8    1.183450 T    
C31   N1    1.157283 T    
C33   N4    1.157198 T    
C14   C27   1.459032 S    
C19   H6    1.089162 S    
C28   O22   1.251013 A    
Cr3   O13   1.985520 S    
O23   C29   1.271838 A    
C14   C15   1.362991 D    
O1    Cr1   2.038315 S    
O15   Cr4   1.927099 S    
C13   C16   1.340179 D    
O10   Cr2   1.930402 S    
Cr1   O13   1.981338 S    
O1    C3    1.270099 A    
C17   C20   1.334806 D    
C4    C23   1.424463 S    
N3    O27   1.301622 A    
C18   C19   1.354061 D    
C14   C34   1.453369 S    
C25   O16   1.274972 A    
C8    C26   1.394917 S    
O5    Cr3   2.062089 S    
O12   Cr3   1.941776 S    
Cr5   O26   1.985647 S    
C5    C17   1.448941 S    
C29   O24   1.256644 A    
C6    C21   1.414737 S    
O23   Cr5   1.915229 S    
O7    Cr1   2.056688 S    
C18   C32   1.445166 S    
O12   C6    1.259381 A    
O6    C3    1.271845 A    
O16   Cr5   2.032504 S    
C13   H5    1.087348 S    
O17   Cr5   1.942242 S    
C19   C20   1.453819 S    
Cr2   O13   1.971416 S    
C1    O3    1.266707 A    
C21   C22   1.195158 T    
O14   C27   1.269541 A    
C18   C29   1.434903 S    
C23   C24   1.200404 T    
C22   C28   1.411935 S    
O9    Cr2   2.057294 S    
O2    Cr1   1.938611 S    
O20   C30   1.273083 A    
C32   N2    1.156281 T    
O6    Cr3   1.916362 S    
O8    C4    1.307686 A    
C2    O5    1.260410 A    
O25   C30   1.263646 A    
C12   H2    1.086385 S    
O2    C1    1.265063 A    
O21   C28   1.284231 A    
C17   H7    1.089306 S    
O7    C6    1.280006 A    
C2    C7    1.395239 S    
C10   N3    1.443434 S    
C1    C13   1.444000 S    
C34   N5    1.157077 T    
O3    Cr2   2.050128 S    
C4    O9    1.285639 A    
O15   C25   1.271191 A    
C11   C12   1.450491 S    
O10   C5    1.267252 A    
O14   Cr4   2.056037 S    
C24   C30   1.424755 S    
C20   C31   1.447130 S    
