data_mof_unit_42869.cif
_audit_creation_date              2012-12-10T18:58:38-0500
_audit_creation_method            fapswitch 2.2
_symmetry_space_group_name_H-M    P1
_symmetry_Int_Tables_number       1
_space_group_crystal_system       triclinic
_cell_length_a                    10.690827
_cell_length_b                    10.065331
_cell_length_c                    17.379545
_cell_angle_alpha                 90.202182
_cell_angle_beta                  93.055776
_cell_angle_gamma                 86.548815
_cell_volume                      1864.10965513

loop_
_atom_site_label
_atom_site_type_symbol
_atom_type_description
_atom_site_fract_x
_atom_site_fract_y
_atom_site_fract_z
_atom_type_partial_charge
C1    C     C_R   0.260885 0.504380 0.506028 0.863007
C2    C     C_R   0.739818 0.495539 0.496352 0.827328
C3    C     C_1   0.416907 0.541940 0.964231 0.069505
C4    C     C_1   0.422738 0.541703 0.032730 0.152670
C5    C     C_R   0.075054 0.401596 0.548364 -0.064056
C6    C     C_R   0.930461 0.591946 0.457085 -0.028039
C7    C     C_R   0.947880 0.384832 0.532633 -0.035433
C8    C     C_R   0.052044 0.618598 0.482734 -0.009074
C9    C     C_R   0.498820 0.500086 0.354157 0.869701
C10   C     C_R   0.497468 0.501056 0.646432 0.845934
C11   C     C_R   0.874547 0.485617 0.491356 -0.204879
C12   C     C_R   0.127678 0.513556 0.517694 -0.256093
C13   C     C_R   0.472509 0.644212 0.844570 0.018775
C14   C     C_R   0.552702 0.578060 0.150320 -0.005747
C15   C     C_R   0.347128 0.480513 0.157609 -0.011331
C16   C     C_R   0.396231 0.418505 0.843757 -0.029521
C17   C     C_R   0.502945 0.626787 0.768305 -0.281182
C18   C     C_R   0.572196 0.561460 0.229524 -0.307016
C19   C     C_R   0.371379 0.463956 0.236540 -0.318653
C20   C     C_R   0.423734 0.406387 0.766408 -0.196930
C21   C     C_R   0.479090 0.508527 0.728963 -0.064290
C22   C     C_R   0.483272 0.503181 0.271666 0.000284
C23   C     C_R   0.549994 0.065783 0.561545 0.209523
C24   C     C_R   0.433325 0.931327 0.443150 0.134798
C25   C     C_R   0.443200 0.073672 0.439496 0.179851
C26   C     C_R   0.569775 0.924806 0.554161 0.169668
C27   C     C_R   0.422228 0.537678 0.882919 0.018477
C28   C     C_R   0.439174 0.536756 0.114136 0.077323
H1    H     H_    0.543185 0.707564 0.738931 0.139285
H2    H     H_    0.656988 0.594121 0.258858 0.130356
H3    H     H_    0.301609 0.423380 0.271431 0.137735
H4    H     H_    0.399367 0.318259 0.735281 0.180440
N1    N     N_R   0.500000 0.857200 0.500000 -0.146935
N2    N     N_R   0.500000 0.142800 0.500000 -0.127617
O1    O     O_R   0.316770 0.614620 0.500000 -0.664331
O2    O     O_R   0.683230 0.385380 0.500000 -0.563176
O3    O     O_R   0.683230 0.614620 0.500000 -0.640924
O4    O     O_R   0.316770 0.385380 0.500000 -0.614977
O5    O     O_R   0.500010 0.614710 0.389120 -0.617449
O6    O     O_R   0.499990 0.385290 0.610880 -0.630374
O7    O     O_R   0.499990 0.614710 0.610880 -0.632596
O8    O     O_R   0.500010 0.385290 0.389120 -0.617321
Zn1   Zn    Zn3+2 0.500000 0.653120 0.500000 0.914046
Zn2   Zn    Zn3+2 0.500000 0.346880 0.500000 0.964688
C29   C     C_2   0.495544 0.775154 0.881049 0.512155
H5    H     H_    0.552928 0.843977 0.852985 0.047187
O9    O     O_2   0.448077 0.810048 0.940767 -0.518448
C30   C     C_2   0.654612 0.638217 0.109417 0.431017
H6    H     H_    0.737722 0.667767 0.142193 0.089253
O10   O     O_2   0.648763 0.655715 0.039858 -0.550761
C31   C     C_2   0.224702 0.437638 0.124375 0.398792
H7    H     H_    0.165295 0.382645 0.159964 0.081487
O11   O     O_2   0.186964 0.464631 0.058436 -0.572179
C32   C     C_2   0.341174 0.305977 0.882850 0.420539
H8    H     H_    0.314897 0.314955 0.942122 0.106320
O12   O     O_2   0.324252 0.201330 0.849169 -0.552458
C33   C     C_3   0.539651 0.115269 0.643161 -0.336435
C34   C     C_3   0.658052 0.176295 0.676831 -0.795185
H9    H     H_    0.638035 0.225390 0.732469 0.248810
H10   H     H_    0.690533 0.250986 0.637319 0.270670
H11   H     H_    0.734677 0.098765 0.688196 0.237368
H12   H     H_    0.453846 0.180503 0.645344 0.225037
H13   H     H_    0.516849 0.034130 0.682287 0.173026
C35   C     C_3   0.341281 0.863595 0.387883 -0.350176
C36   C     C_3   0.383715 0.841390 0.305698 -0.783330
H14   H     H_    0.487235 0.824475 0.305155 0.267675
H15   H     H_    0.340032 0.752694 0.280509 0.261800
H16   H     H_    0.350943 0.925199 0.267225 0.248331
H17   H     H_    0.322641 0.766660 0.409622 0.262592
H18   H     H_    0.247688 0.917716 0.386711 0.212299
C37   C     C_3   0.390775 0.146372 0.367867 -0.319486
C38   C     C_3   0.491463 0.148613 0.307790 -0.768062
H19   H     H_    0.579321 0.189379 0.331821 0.286924
H20   H     H_    0.454860 0.207108 0.256742 0.242343
H21   H     H_    0.519800 0.047653 0.287849 0.241641
H22   H     H_    0.307303 0.102289 0.340961 0.178904
H23   H     H_    0.348263 0.244634 0.382560 0.237583
C39   C     C_3   0.671305 0.852679 0.605678 -0.431715
C40   C     C_3   0.801161 0.874671 0.577641 -0.717293
H24   H     H_    0.825097 0.978928 0.587396 0.282956
H25   H     H_    0.872680 0.808616 0.609735 0.225800
H26   H     H_    0.804210 0.851659 0.515259 0.291086
H27   H     H_    0.667765 0.882771 0.666826 0.178451
H28   H     H_    0.662237 0.745886 0.607089 0.270211
C41   C     C_2   0.154050 0.307925 0.600124 0.421639
H29   H     H_    0.227270 0.346805 0.637825 0.054979
O13   O     O_2   0.142915 0.187907 0.598494 -0.569649
C42   C     C_2   0.866393 0.663529 0.389340 0.468746
H30   H     H_    0.765690 0.664821 0.378718 0.061806
O14   O     O_2   0.927084 0.713945 0.340797 -0.528641
C43   C     C_2   0.896010 0.259123 0.556194 0.516057
H31   H     H_    0.905980 0.227622 0.615935 0.046075
O15   O     O_2   0.850198 0.185581 0.507785 -0.528523
C44   C     C_2   0.090791 0.759099 0.487307 0.407049
H32   H     H_    0.168720 0.784931 0.525693 0.099097
O16   O     O_2   0.031525 0.850301 0.453237 -0.518807

loop_
_geom_bond_atom_site_label_1
_geom_bond_atom_site_label_2
_ccdc_geom_bond_type
C17   H1    S    
C14   C18   A    
C19   H3    S    
C15   C28   A    
C33   H12   S    
C41   H29   S    
C7    C11   A    
C9    O8    A    
C26   C39   S    
C37   H22   S    
C9    C22   S    
C34   H10   S    
C9    O5    A    
C6    C42   S    
C10   O6    A    
C23   C26   A    
C39   H27   S    
C36   H15   S    
C25   C37   S    
C35   H18   S    
O1    Zn1   S    
C43   H31   S    
C16   C20   A    
C25   N2    A    
C5    C41   S    
C23   N2    A    
C34   H11   S    
C30   O10   D    
C24   C35   S    
C10   O7    A    
O7    Zn1   S    
C1    C12   S    
O8    Zn2   S    
C38   H21   S    
C2    C11   S    
C4    C28   S    
C33   H13   S    
C29   O9    D    
C10   C21   S    
C32   O12   D    
C41   O13   D    
C31   H7    S    
N1    Zn1   S    
C19   C22   A    
C8    C44   S    
C24   C25   A    
C5    C12   A    
C38   H20   S    
C6    C11   A    
C40   H25   S    
C39   C40   S    
C6    C8    A    
C34   H9    S    
C29   H5    S    
C17   C21   A    
C31   O11   D    
O3    Zn1   S    
C15   C19   A    
O4    Zn2   S    
C43   O15   D    
C26   N1    A    
C8    C12   A    
C36   H16   S    
C7    C43   S    
N2    Zn2   S    
C35   H17   S    
C20   C21   A    
C44   O16   D    
C1    O4    A    
C18   H2    S    
C30   H6    S    
C42   O14   D    
C15   C31   S    
O2    Zn2   S    
C3    C4    T    
C37   H23   S    
C1    O1    A    
C5    C7    A    
C20   H4    S    
C2    O2    A    
C23   C33   S    
C32   H8    S    
C18   C22   A    
C38   H19   S    
C40   H26   S    
O5    Zn1   S    
C24   N1    A    
C13   C17   A    
C35   C36   S    
C3    C27   S    
C37   C38   S    
C13   C29   S    
C2    O3    A    
C33   C34   S    
C16   C27   A    
C44   H32   S    
C16   C32   S    
C40   H24   S    
C39   H28   S    
O6    Zn2   S    
C42   H30   S    
C36   H14   S    
C14   C30   S    
C13   C27   A    
C14   C28   A    
