data_mof_unit_34701.cif
_audit_creation_date              2012-12-11T14:19:22-0500
_audit_creation_method            fapswitch 2.2
_symmetry_space_group_name_H-M    P1
_symmetry_Int_Tables_number       1
_space_group_crystal_system       triclinic
_cell_length_a                    19.382357
_cell_length_b                    7.241126
_cell_length_c                    17.76859
_cell_angle_alpha                 90.000564
_cell_angle_beta                  107.746424
_cell_angle_gamma                 89.999126
_cell_volume                      2375.15417909

loop_
_atom_site_label
_atom_site_type_symbol
_atom_type_description
_atom_site_fract_x
_atom_site_fract_y
_atom_site_fract_z
_atom_type_partial_charge
O1    O     O_R   0.414820 0.494320 0.416790 -0.534954
O2    O     O_R   0.585180 0.994320 0.583210 -0.534954
O3    O     O_R   0.560270 0.819500 0.430140 -0.544082
O4    O     O_R   0.439730 0.319500 0.569860 -0.544083
C1    C     C_R   0.583043 0.656372 0.416914 0.751356
C2    C     C_R   0.416956 0.156375 0.583085 0.751349
O5    O     O_R   0.413840 0.823740 0.407440 -0.496455
O6    O     O_R   0.586160 0.323740 0.592560 -0.496436
O7    O     O_R   0.437710 0.998590 0.560350 -0.548261
O8    O     O_R   0.562290 0.498590 0.439650 -0.548253
C3    C     C_R   0.388402 0.655252 0.384396 0.744023
C4    C     C_R   0.611597 0.155251 0.615605 0.743970
O9    O     O_3   0.508000 0.662290 0.550200 -0.383627
O10   O     O_3   0.492000 0.162290 0.449800 -0.383636
V1    V     V_3+5 0.498520 0.935380 0.490690 1.486216
V2    V     V_3+5 0.501480 0.435380 0.509310 1.486253
C5    C     C_2   0.786069 0.267332 0.787176 -0.326871
C6    C     C_2   0.213922 0.767335 0.212836 -0.326901
C7    C     C_2   0.826319 0.112517 0.810208 0.189856
C8    C     C_2   0.173682 0.612510 0.189790 0.189814
H1    H     H_    0.802589 0.393758 0.820687 0.155255
H2    H     H_    0.197393 0.893773 0.179334 0.155316
C9    C     C_2   0.721558 0.283361 0.715649 0.631992
C10   C     C_2   0.278434 0.783359 0.284361 0.632004
C11   C     C_2   0.675936 0.141538 0.686353 -0.387703
C12   C     C_2   0.324063 0.641540 0.313648 -0.387792
H3    H     H_    0.684857 0.008292 0.715402 0.171931
H4    H     H_    0.315146 0.508300 0.284594 0.171897
C13   C     C_R   0.306974 0.278954 0.615971 0.396585
C14   C     C_R   0.693029 0.778932 0.384035 0.396581
C15   C     C_R   0.365264 0.151306 0.630003 -0.181937
C16   C     C_R   0.634736 0.651297 0.369997 -0.181933
C17   C     C_R   0.374132 0.016253 0.688717 -0.314838
C18   C     C_R   0.625864 0.516259 0.311275 -0.314840
C19   C     C_R   0.327371 0.007799 0.735107 0.152281
C20   C     C_R   0.672624 0.507810 0.264883 0.152275
C21   C     C_R   0.269462 0.134112 0.722097 -0.043237
C22   C     C_R   0.730539 0.634104 0.277902 -0.043243
C23   C     C_R   0.257034 0.265551 0.660321 -0.131417
C24   C     C_R   0.742972 0.765524 0.339687 -0.131404
C25   C     C_R   0.337392 0.873115 0.794101 -0.202496
C26   C     C_R   0.662596 0.373150 0.205876 -0.202509
C27   C     C_R   0.291444 0.865082 0.841142 -0.159828
C28   C     C_R   0.708542 0.365126 0.158833 -0.159802
C29   C     C_R   0.234528 0.992625 0.830707 0.035188
C30   C     C_R   0.765465 0.492646 0.169280 0.035212
C31   C     C_R   0.223041 0.126333 0.770220 0.013899
C32   C     C_R   0.776959 0.626329 0.229779 0.013886
C33   C     C_R   0.164859 0.251366 0.757362 0.008184
C34   C     C_R   0.835147 0.751345 0.242647 0.008186
C35   C     C_R   0.150435 0.373833 0.693678 -0.231338
C36   C     C_R   0.849576 0.873789 0.306340 -0.231346
C37   C     C_R   0.194300 0.377493 0.644272 0.627158
C38   C     C_R   0.805710 0.877445 0.355745 0.627164
C39   C     C_R   0.188955 0.988799 0.879552 0.363257
C40   C     C_R   0.811039 0.488825 0.120435 0.363261
C41   C     C_R   0.131444 0.117418 0.867277 -0.164954
C42   C     C_R   0.868556 0.617424 0.132721 -0.164966
C43   C     C_R   0.120381 0.248284 0.806574 -0.230881
C44   C     C_R   0.879625 0.748269 0.193435 -0.230873
H5    H     H_    0.418425 0.918432 0.698962 0.133481
H6    H     H_    0.581567 0.418450 0.301024 0.133481
H7    H     H_    0.381022 0.773605 0.804010 0.114560
H8    H     H_    0.618962 0.273653 0.195959 0.114569
H9    H     H_    0.301006 0.758814 0.885972 0.160537
H10   H     H_    0.698975 0.258878 0.113993 0.160550
H11   H     H_    0.075599 0.344629 0.796211 0.143812
H12   H     H_    0.924411 0.844600 0.203805 0.143800
H13   H     H_    0.103944 0.465030 0.680943 0.158591
H14   H     H_    0.896071 0.964971 0.319082 0.158594
O11   O     O_R   0.937810 0.773680 0.060480 -0.540375
O12   O     O_R   0.062190 0.273680 0.939520 -0.540373
O13   O     O_R   0.086190 0.439740 0.092580 -0.521884
O14   O     O_R   0.913810 0.939740 0.907420 -0.521931
C45   C     C_R   0.111195 0.608276 0.116240 0.667422
C46   C     C_R   0.888805 0.108276 0.883760 0.667361
O15   O     O_R   0.939760 0.444210 0.069890 -0.517442
O16   O     O_R   0.060240 0.944210 0.930110 -0.517439
O17   O     O_R   0.914790 0.269640 0.916760 -0.551072
O18   O     O_R   0.085210 0.769640 0.083240 -0.551077
C47   C     C_R   0.918596 0.611955 0.084139 0.704715
C48   C     C_R   0.081405 0.111952 0.915861 0.704738
O19   O     O_3   0.992050 0.601530 0.949880 -0.377301
O20   O     O_3   0.007950 0.101530 0.050120 -0.377287
V3    V     V_3+5 0.001480 0.328340 0.009300 1.469162
V4    V     V_3+5 0.998520 0.828340 0.990700 1.469105
F1    F     F_    0.173096 0.487284 0.579599 -0.680713
F2    F     F_    0.826918 0.987211 0.420426 -0.680708
O21   O     O_3   0.809912 0.952143 0.765792 -0.545542
C49   C     C_3   0.849498 0.950817 0.710971 0.070928
H15   H     H_    0.908585 0.937478 0.742132 0.112207
H16   H     H_    0.839547 0.078649 0.674190 0.126251
C50   C     C_3   0.825519 0.786606 0.655732 -0.548373
H17   H     H_    0.766709 0.797315 0.623505 0.255113
H18   H     H_    0.856075 0.784418 0.612064 0.189785
H19   H     H_    0.835977 0.655882 0.690098 0.228458
O22   O     O_3   0.190094 0.452107 0.234186 -0.545514
C51   C     C_3   0.150566 0.450867 0.289078 0.071032
H20   H     H_    0.091449 0.438081 0.257979 0.112055
H21   H     H_    0.160726 0.578474 0.325992 0.126388
C52   C     C_3   0.174374 0.286313 0.344129 -0.548558
H22   H     H_    0.233243 0.296150 0.376103 0.255466
H23   H     H_    0.144044 0.284497 0.388015 0.189914
H24   H     H_    0.163495 0.155825 0.309650 0.227886
F3    F     F_    0.707757 0.453314 0.681785 -0.682399
F4    F     F_    0.292225 0.953302 0.318237 -0.682396
O23   O     O_3   0.294394 0.400315 0.552830 -0.536134
C53   C     C_3   0.316078 0.581317 0.580370 0.163712
H25   H     H_    0.375477 0.596991 0.593181 0.112792
H26   H     H_    0.302312 0.618035 0.635013 0.115102
C54   C     C_3   0.278528 0.718992 0.516010 -0.561058
H27   H     H_    0.219721 0.725641 0.508786 0.256171
H28   H     H_    0.301662 0.858686 0.531376 0.169084
H29   H     H_    0.285443 0.676977 0.458859 0.193985
O24   O     O_3   0.705607 0.900295 0.447176 -0.536198
C55   C     C_3   0.683931 0.081300 0.419634 0.163633
H30   H     H_    0.624531 0.096990 0.406816 0.112815
H31   H     H_    0.697705 0.118008 0.364995 0.115129
C56   C     C_3   0.721480 0.218971 0.483996 -0.561126
H32   H     H_    0.780294 0.225529 0.491256 0.256215
H33   H     H_    0.698378 0.358688 0.468608 0.169103
H34   H     H_    0.714526 0.177016 0.541135 0.193945
O25   O     O_3   0.199657 0.855343 0.937751 -0.550863
C57   C     C_3   0.245895 0.926431 0.009554 0.089087
H35   H     H_    0.213024 0.999776 0.041687 0.127028
H36   H     H_    0.287801 0.023401 0.001223 0.103842
C58   C     C_3   0.285526 0.766879 0.060215 -0.709591
H37   H     H_    0.322326 0.699249 0.031438 0.206698
H38   H     H_    0.318158 0.818846 0.119100 0.184381
H39   H     H_    0.246087 0.663117 0.067864 0.221776
O26   O     O_3   0.800318 0.355415 0.062214 -0.550882
C59   C     C_3   0.754124 0.426632 0.990410 0.089276
H40   H     H_    0.787047 0.499840 0.958286 0.126987
H41   H     H_    0.712254 0.523788 0.998737 0.103767
C60   C     C_3   0.714411 0.267165 0.939737 -0.709586
H42   H     H_    0.677553 0.199737 0.968493 0.206667
H43   H     H_    0.681826 0.319205 0.880849 0.184404
H44   H     H_    0.753796 0.163206 0.932097 0.221767

loop_
_geom_bond_atom_site_label_1
_geom_bond_atom_site_label_2
_ccdc_geom_bond_type
C60   H44   S    
C14   C16   A    
C52   H22   S    
C29   C39   A    
C25   C27   A    
C20   C26   A    
C54   H27   S    
O1    C3    A    
C46   O17   A    
O2    C4    A    
C2    O7    A    
O12   V3    S    
C60   H42   S    
C31   C33   A    
C55   H30   S    
O5    C3    A    
C50   H17   S    
O14   C46   A    
C6    C10   S    
C7    C46   S    
C19   C21   A    
C10   C12   D    
C41   C43   A    
C42   C44   A    
O24   C55   S    
C9    F3    S    
C18   H6    S    
C53   H25   S    
C29   C31   A    
O18   V4    S    
C43   H11   S    
C28   H10   S    
C8    O22   S    
C28   C30   A    
C59   H40   S    
C33   C35   A    
C34   C36   A    
O23   C53   S    
C15   C17   A    
C21   C31   A    
C45   O18   A    
C22   C32   A    
C27   H9    S    
C1    C16   S    
O16   V4    S    
C32   C34   A    
C2    C15   S    
O15   V3    S    
C50   H18   S    
C22   C24   A    
C13   C15   A    
O13   C45   A    
C26   C28   A    
C36   C38   A    
O22   C51   S    
C39   O25   S    
C14   O24   S    
C56   H33   S    
C30   C32   A    
C55   C56   S    
O25   C57   S    
O20   V3    S    
C37   F1    S    
C42   C47   S    
C5    C7    D    
C3    C12   S    
C5    H1    S    
C8    C45   S    
C35   C37   A    
C16   C18   A    
O4    V2    S    
C58   H38   S    
C7    O21   S    
O11   V4    S    
O16   C48   A    
C49   H16   S    
O10   V1    S    
O15   C47   A    
O6    C4    A    
C13   C23   A    
C14   C24   A    
C54   H28   S    
O1    V2    S    
C5    C9    S    
O14   V4    S    
O2    V1    S    
C27   C29   A    
O13   V3    S    
C55   H31   S    
C57   C58   S    
C17   H5    S    
C50   H19   S    
C24   C38   A    
C39   C41   A    
O4    C2    A    
C10   F4    S    
C25   H7    S    
O26   C59   S    
C26   H8    S    
O17   V3    S    
O3    V1    S    
C49   C50   S    
C57   H36   S    
C52   H23   S    
C56   H34   S    
C60   H43   S    
C6    H2    S    
C12   H4    S    
O3    C1    A    
C56   H32   S    
C53   H26   S    
C11   H3    S    
C51   C52   S    
C51   H21   S    
C33   C43   A    
C53   C54   S    
C4    C11   S    
C34   C44   A    
C20   C22   A    
O7    V1    S    
C58   H39   S    
C1    O8    A    
C21   C23   A    
O8    V2    S    
C38   F2    S    
C49   H15   S    
C23   C37   A    
C59   C60   S    
C59   H41   S    
O5    V1    S    
C17   C19   A    
C18   C20   A    
C40   C42   A    
C54   H29   S    
C6    C8    D    
C9    C11   D    
C19   C25   A    
C40   O26   S    
C36   H14   S    
O19   V4    S    
C44   H12   S    
O6    V2    S    
C51   H20   S    
O9    V2    S    
C30   C40   A    
C41   C48   S    
C13   O23   S    
C52   H24   S    
C35   H13   S    
O21   C49   S    
O12   C48   A    
C58   H37   S    
C57   H35   S    
O11   C47   A    
