data_mof_unit_25725.cif
_audit_creation_date              2012-12-10T20:42:38-0500
_audit_creation_method            fapswitch 2.2
_symmetry_space_group_name_H-M    P1
_symmetry_Int_Tables_number       1
_space_group_crystal_system       triclinic
_cell_length_a                    8.936269
_cell_length_b                    10.842449
_cell_length_c                    9.954778
_cell_angle_alpha                 91.764545
_cell_angle_beta                  91.095248
_cell_angle_gamma                 93.766607
_cell_volume                      961.772898864

loop_
_atom_site_label
_atom_site_type_symbol
_atom_type_description
_atom_site_fract_x
_atom_site_fract_y
_atom_site_fract_z
_atom_type_partial_charge
C1    C     C_R   0.501930 0.260642 0.497686 0.856604
C2    C     C_R   0.470291 0.927858 0.378218 -0.236212
C3    C     C_R   0.504808 0.870940 0.499029 -0.114497
C4    C     C_R   0.544573 0.945372 0.610198 0.106152
C5    C     C_3   0.603659 0.944280 0.751017 -0.250142
C6    C     C_3   0.580882 0.084684 0.755514 -0.035888
C7    C     C_R   0.423862 0.407658 0.066961 0.094681
C8    C     C_R   0.582997 0.587509 0.076596 -0.012479
C9    C     C_R   0.591716 0.582777 0.933060 0.136554
C10   C     C_R   0.424269 0.405746 0.925004 0.104093
C11   C     C_3   0.258663 0.363673 0.919073 0.385797
C12   C     C_R   0.218903 0.499770 0.499146 0.916716
C13   C     C_3   0.260508 0.373373 0.073068 -0.581075
C14   C     C_R   0.502744 0.739476 0.501167 0.944084
C15   C     C_R   0.781113 0.500487 0.500842 0.959865
C16   C     C_1   0.065362 0.499965 0.498773 -0.170462
C17   C     C_1   0.934642 0.500229 0.501077 -0.168098
C18   C     C_R   0.540367 0.068714 0.608516 -0.004343
C19   C     C_R   0.506514 0.129170 0.491927 -0.187586
C20   C     C_R   0.477614 0.057107 0.370635 0.223158
H1    H     H_    0.197735 0.450494 0.115030 0.211347
H2    H     H_    0.238201 0.284723 0.124351 0.210150
H3    H     H_    0.441675 0.871201 0.289235 0.173951
H4    H     H_    0.530342 0.889936 0.819668 0.120909
H5    H     H_    0.484869 0.111046 0.816879 0.174603
N1    N     N_R   0.499010 0.499140 0.142800 -0.137401
N2    N     N_R   0.499010 0.499180 0.857150 -0.157234
O1    O     O_R   0.500020 0.316790 0.614690 -0.625803
O2    O     O_R   0.500000 0.316760 0.385350 -0.612516
O3    O     O_R   0.285350 0.500020 0.614650 -0.609772
O4    O     O_R   0.285340 0.499980 0.385310 -0.616676
O5    O     O_R   0.500000 0.683240 0.614650 -0.647001
O6    O     O_R   0.499980 0.683210 0.385310 -0.620797
O7    O     O_R   0.714660 0.500020 0.614690 -0.655403
O8    O     O_R   0.714650 0.499980 0.385350 -0.559019
Zn1   Zn    Zn3+2 0.500010 0.500020 0.653130 0.936627
Zn2   Zn    Zn3+2 0.499990 0.499980 0.346870 0.980206
N3    N     N_2   0.465950 0.114190 0.243198 -0.270026
H6    H     H_    0.563175 0.163693 0.217484 0.248520
C21   C     C_3   0.394432 0.045423 0.129806 -0.858878
H7    H     H_    0.465905 0.971841 0.093564 0.224085
H8    H     H_    0.380698 0.108610 0.046005 0.248689
H9    H     H_    0.281893 0.005485 0.157220 0.258985
N4    N     N_2   0.228906 0.235173 0.869872 -0.318692
H10   H     H_    0.161281 0.180199 0.929783 0.216653
C22   C     C_3   0.201584 0.206196 0.727973 -0.720164
H11   H     H_    0.264439 0.125957 0.697281 0.224425
H12   H     H_    0.233404 0.284998 0.665308 0.280150
H13   H     H_    0.081438 0.177780 0.708132 0.224638
C23   C     C_2   0.767260 0.915635 0.755169 0.500049
H14   H     H_    0.834900 0.940958 0.844416 0.077407
O9    O     O_2   0.825794 0.866492 0.659220 -0.586166
N5    N     N_2   0.717331 0.161254 0.786054 -0.283442
H15   H     H_    0.729885 0.240977 0.732584 0.264530
C24   C     C_3   0.748557 0.180855 0.928945 -0.849435
H16   H     H_    0.691884 0.262527 0.967482 0.251013
H17   H     H_    0.871017 0.195623 0.947507 0.245081
H18   H     H_    0.709869 0.098754 0.986343 0.243209
C25   C     C_2   0.651731 0.696980 0.151224 0.519968
H19   H     H_    0.619636 0.788125 0.125239 0.000685
O10   O     O_2   0.752880 0.688006 0.233458 -0.548055
N6    N     N_2   0.694059 0.667761 0.868918 -0.324681
H20   H     H_    0.690351 0.664086 0.766633 0.316206
C26   C     C_3   0.846392 0.687809 0.923315 -0.821795
H21   H     H_    0.858761 0.776804 0.981428 0.236988
H22   H     H_    0.928160 0.694059 0.840770 0.256455
H23   H     H_    0.875656 0.613244 0.990803 0.264821
N7    N     N_2   0.164540 0.451476 0.856459 -0.254721
H24   H     H_    0.192977 0.542848 0.883400 0.219988
C27   C     C_3   0.004465 0.421950 0.855606 -0.779824
H25   H     H_    0.947608 0.490797 0.797434 0.263943
H26   H     H_    0.962557 0.419180 0.959765 0.234703
H27   H     H_    0.974905 0.333333 0.802341 0.261595

loop_
_geom_bond_atom_site_label_1
_geom_bond_atom_site_label_2
_ccdc_geom_bond_type
C10   N2    A    
C7    C10   A    
C23   O9    D    
C24   H16   S    
N1    Zn2   S    
N6    H20   S    
N2    Zn1   S    
C1    O1    A    
C8    N1    A    
C15   O7    A    
C19   C20   A    
O3    Zn1   S    
C4    C18   A    
C26   H21   S    
C14   O6    A    
C21   H8    S    
C2    C3    A    
C13   H1    S    
C25   H19   S    
C8    C25   S    
C26   H22   S    
N5    H15   S    
N4    H10   S    
N3    C21   S    
C11   C13   S    
C22   H13   S    
O1    Zn1   S    
C27   H25   S    
C3    C14   S    
C7    N1    A    
C27   H27   S    
C4    C5    S    
O5    Zn1   S    
C1    O2    A    
C21   H7    S    
O8    Zn2   S    
N4    C22   S    
C13   H2    S    
C23   H14   S    
O7    Zn1   S    
C24   H17   S    
C12   O4    A    
C5    C6    S    
C6    C18   S    
C22   H12   S    
C5    C23   S    
C25   O10   D    
C6    H5    S    
O2    Zn2   S    
C10   C11   S    
N5    C24   S    
C2    C20   A    
C9    N6    S    
C26   H23   S    
C12   C16   S    
C5    H4    S    
C11   N4    S    
C20   N3    S    
C11   N7    S    
C9    N2    A    
N7    C27   S    
C18   C19   A    
C24   H18   S    
C15   O8    A    
C2    H3    S    
C15   C17   S    
C22   H11   S    
C16   C17   T    
N6    C26   S    
C7    C13   S    
C6    N5    S    
C12   O3    A    
N7    H24   S    
C1    C19   S    
C14   O5    A    
C27   H26   S    
C21   H9    S    
O6    Zn2   S    
C3    C4    A    
O4    Zn2   S    
C8    C9    A    
N3    H6    S    
