data_mof_unit_38813.cif
_audit_creation_date              2012-12-11T14:54:26-0500
_audit_creation_method            fapswitch 2.2
_symmetry_space_group_name_H-M    P1
_symmetry_Int_Tables_number       1
_space_group_crystal_system       triclinic
_cell_length_a                    19.010967
_cell_length_b                    10.992601
_cell_length_c                    18.872477
_cell_angle_alpha                 90.074452
_cell_angle_beta                  90.861764
_cell_angle_gamma                 89.566115
_cell_volume                      3943.40783009

loop_
_atom_site_label
_atom_site_type_symbol
_atom_type_description
_atom_site_fract_x
_atom_site_fract_y
_atom_site_fract_z
_atom_type_partial_charge
C1    C     C_R   0.726266 0.371980 0.643897 0.564992
C2    C     C_R   0.269289 0.377228 0.353451 0.572214
C3    C     C_R   0.226266 0.871980 0.643897 0.564992
C4    C     C_R   0.769289 0.877228 0.353451 0.572214
C5    C     C_3   0.406890 0.291189 0.485089 -0.260028
C6    C     C_3   0.426781 0.281533 0.563139 -0.256632
C7    C     C_3   0.906890 0.791189 0.485089 -0.260028
C8    C     C_3   0.926780 0.781532 0.563139 -0.256632
C9    C     C_R   0.714832 0.842682 0.540264 -0.093004
C10   C     C_R   0.312273 0.911253 0.471871 -0.025440
C11   C     C_R   0.214832 0.342682 0.540264 -0.093003
C12   C     C_R   0.812273 0.411253 0.471871 -0.025440
C13   C     C_R   0.713892 0.830755 0.466749 -0.175544
C14   C     C_R   0.301844 0.896079 0.543514 -0.121580
C15   C     C_R   0.213892 0.330755 0.466749 -0.175544
C16   C     C_R   0.801843 0.396079 0.543514 -0.121579
C17   C     C_R   0.748166 0.915511 0.423818 -0.019745
C18   C     C_R   0.235094 0.902245 0.570342 -0.024128
C19   C     C_R   0.248166 0.415511 0.423818 -0.019745
C20   C     C_R   0.735094 0.402245 0.570342 -0.024128
C21   C     C_R   0.779696 0.017354 0.453859 0.162389
C22   C     C_R   0.175842 0.923563 0.524926 0.139349
C23   C     C_R   0.279696 0.517354 0.453859 0.162389
C24   C     C_R   0.675841 0.423563 0.524926 0.139349
C25   C     C_R   0.789113 0.022053 0.526949 0.152737
C26   C     C_R   0.184504 0.919351 0.452239 0.168778
C27   C     C_R   0.289113 0.522053 0.526949 0.152737
C28   C     C_R   0.684504 0.419351 0.452239 0.168778
C29   C     C_R   0.751187 0.940599 0.571181 0.001552
C30   C     C_R   0.252742 0.923988 0.425157 0.042263
C31   C     C_R   0.251187 0.440599 0.571181 0.001552
C32   C     C_R   0.752742 0.423988 0.425157 0.042263
C33   C     C_R   0.535095 0.058004 0.975576 0.152797
C34   C     C_R   0.534151 0.070842 0.048797 0.183255
C35   C     C_R   0.035095 0.558004 0.975576 0.152797
C36   C     C_R   0.034151 0.570842 0.048797 0.183255
C37   C     C_R   0.503673 0.173928 0.078753 0.001799
C38   C     C_R   0.515319 0.158123 0.930883 -0.012853
C39   C     C_R   0.003674 0.673928 0.078753 0.001799
C40   C     C_R   0.015319 0.658123 0.930883 -0.012853
C41   C     C_R   0.489576 0.278171 0.035912 -0.054127
C42   C     C_R   0.489600 0.266558 0.961453 -0.054462
C43   C     C_R   0.989576 0.778171 0.035912 -0.054127
C44   C     C_R   0.989600 0.766558 0.961453 -0.054462
C45   C     C_R   0.563013 0.150071 0.639414 0.551584
C46   C     C_R   0.469428 0.155133 0.352422 0.542853
C47   C     C_R   0.063013 0.650071 0.639414 0.551584
C48   C     C_R   0.969428 0.655133 0.352422 0.542853
C49   C     C_R   0.775297 0.031958 0.973938 -0.173600
C50   C     C_R   0.178545 0.901215 0.050416 -0.173071
C51   C     C_R   0.275297 0.531958 0.973938 -0.173600
C52   C     C_R   0.678545 0.401215 0.050416 -0.173071
C53   C     C_R   0.777030 0.011648 0.045738 -0.149342
C54   C     C_R   0.169745 0.879724 0.978570 -0.145263
C55   C     C_R   0.277030 0.511648 0.045738 -0.149341
C56   C     C_R   0.669745 0.379724 0.978570 -0.145263
C57   C     C_R   0.751828 0.902660 0.072302 0.037073
C58   C     C_R   0.228199 0.863594 0.935215 0.028978
C59   C     C_R   0.251828 0.402660 0.072302 0.037073
C60   C     C_R   0.728199 0.363594 0.935215 0.028977
C61   C     C_R   0.721354 0.814931 0.024882 0.026460
C62   C     C_R   0.296767 0.862235 0.965460 -0.023122
C63   C     C_R   0.221354 0.314931 0.024882 0.026460
C64   C     C_R   0.796767 0.362235 0.965460 -0.023122
C65   C     C_R   0.727737 0.830909 0.951872 0.180043
C66   C     C_R   0.304177 0.864509 0.039377 0.142509
C67   C     C_R   0.227737 0.330909 0.951872 0.180043
C68   C     C_R   0.804177 0.364509 0.039377 0.142509
C69   C     C_R   0.751161 0.941659 0.927309 0.039749
C70   C     C_R   0.245958 0.900036 0.080863 0.018721
C71   C     C_R   0.251161 0.441659 0.927309 0.039749
C72   C     C_R   0.745958 0.400036 0.080863 0.018721
C73   C     C_R   0.741167 0.973526 0.645750 0.544853
C74   C     C_R   0.260039 0.970893 0.353476 0.582152
C75   C     C_R   0.241167 0.473526 0.645750 0.544853
C76   C     C_R   0.760039 0.470894 0.353476 0.582152
C77   C     C_R   0.714114 0.337763 0.860370 0.555902
C78   C     C_R   0.270978 0.372986 0.145537 0.565082
C79   C     C_R   0.214114 0.837762 0.860370 0.555902
C80   C     C_R   0.770978 0.872986 0.145537 0.565082
C81   C     C_R   0.535594 0.155417 0.855662 0.546892
C82   C     C_R   0.469260 0.158590 0.147622 0.577434
C83   C     C_R   0.035594 0.655417 0.855662 0.546892
C84   C     C_R   0.969260 0.658590 0.147622 0.577434
C85   C     C_R   0.741649 0.974236 0.854478 0.579715
C86   C     C_R   0.257484 0.964519 0.148135 0.555735
C87   C     C_R   0.241649 0.474236 0.854478 0.579715
C88   C     C_R   0.757484 0.464519 0.148135 0.555735
C89   C     C_R   0.504665 0.165353 0.420780 0.037906
C90   C     C_R   0.543904 0.155502 0.564874 0.018932
C91   C     C_R   0.004665 0.665353 0.420780 0.037906
C92   C     C_R   0.043904 0.655502 0.564874 0.018932
C93   C     C_R   0.479988 0.251132 0.469046 0.093152
C94   C     C_R   0.498330 0.244935 0.539531 0.096580
C95   C     C_R   0.979987 0.751132 0.469046 0.093152
C96   C     C_R   0.998330 0.744935 0.539531 0.096580
C97   C     C_R   0.574785 0.075272 0.516104 -0.163312
C98   C     C_R   0.554983 0.079364 0.444167 -0.134294
C99   C     C_R   0.074785 0.575272 0.516104 -0.163312
C100  C     C_R   0.054983 0.579364 0.444167 -0.134294
Cr1   Cr    Cr6+3 0.771950 0.169480 0.750100 1.054864
Cr2   Cr    Cr6+3 0.228050 0.169480 0.249900 1.072363
Cr3   Cr    Cr6+3 0.271950 0.669480 0.750100 1.054864
Cr4   Cr    Cr6+3 0.728050 0.669480 0.249900 1.072363
Cr5   Cr    Cr6+3 0.614930 0.323340 0.749170 1.078249
Cr6   Cr    Cr6+3 0.385070 0.323340 0.250830 1.088120
Cr7   Cr    Cr6+3 0.114930 0.823340 0.749170 1.078249
Cr8   Cr    Cr6+3 0.885070 0.823340 0.250830 1.088120
Cr9   Cr    Cr6+3 0.616590 0.010620 0.750610 1.087887
Cr10  Cr    Cr6+3 0.383410 0.010620 0.249390 1.113261
Cr11  Cr    Cr6+3 0.116590 0.510620 0.750610 1.087888
Cr12  Cr    Cr6+3 0.883410 0.510620 0.249390 1.113261
H1    H     H_    0.611394 0.006483 0.534273 0.139813
H2    H     H_    0.575644 0.011742 0.408074 0.154568
H3    H     H_    0.111394 0.506483 0.534273 0.139813
H4    H     H_    0.075644 0.511743 0.408074 0.154568
H5    H     H_    0.793403 0.118378 0.954543 0.151725
H6    H     H_    0.133144 0.925282 0.081524 0.142782
H7    H     H_    0.293403 0.618378 0.954543 0.151725
H8    H     H_    0.633144 0.425282 0.081524 0.142782
H9    H     H_    0.799311 0.080130 0.080557 0.180522
H10   H     H_    0.117186 0.881123 0.956023 0.145471
H11   H     H_    0.299311 0.580129 0.080557 0.180522
H12   H     H_    0.617186 0.381123 0.956023 0.145471
H13   H     H_    0.866052 0.725260 0.467810 0.104970
H14   H     H_    0.926911 0.870463 0.591082 0.216815
H15   H     H_    0.366052 0.225260 0.467810 0.104970
H16   H     H_    0.426911 0.370464 0.591082 0.216815
H17   H     H_    0.398371 0.386053 0.467142 0.216020
H18   H     H_    0.399152 0.207000 0.590884 0.129589
H19   H     H_    0.898371 0.886053 0.467142 0.216020
H20   H     H_    0.899153 0.707000 0.590884 0.129589
H21   H     H_    0.690530 0.749977 0.443569 0.178544
H22   H     H_    0.346360 0.885309 0.579685 0.171674
H23   H     H_    0.190530 0.249977 0.443569 0.178544
H24   H     H_    0.846360 0.385309 0.579685 0.171674
O1    O     O_R   0.787510 0.042610 0.670410 -0.461606
O2    O     O_R   0.212490 0.042610 0.329590 -0.473990
O3    O     O_R   0.287510 0.542610 0.670410 -0.461606
O4    O     O_R   0.712490 0.542610 0.329590 -0.473990
O5    O     O_R   0.556450 0.252890 0.823790 -0.527552
O6    O     O_R   0.443550 0.252890 0.176210 -0.522189
O7    O     O_R   0.056450 0.752890 0.823790 -0.527552
O8    O     O_R   0.943550 0.752890 0.176210 -0.522189
O9    O     O_R   0.545750 0.051070 0.830560 -0.455857
O10   O     O_R   0.454250 0.051070 0.169440 -0.423872
O11   O     O_R   0.045750 0.551070 0.830560 -0.455857
O12   O     O_R   0.954250 0.551070 0.169440 -0.423872
O13   O     O_R   0.681210 0.959150 0.825320 -0.433870
O14   O     O_R   0.318790 0.959150 0.174680 -0.443203
O15   O     O_R   0.181210 0.459150 0.825320 -0.433870
O16   O     O_R   0.818790 0.459150 0.174680 -0.443203
O17   O     O_3   0.667820 0.167810 0.749960 -0.321295
O18   O     O_3   0.332180 0.167810 0.250040 -0.294718
O19   O     O_3   0.167820 0.667810 0.749960 -0.321295
O20   O     O_3   0.832180 0.667810 0.250040 -0.294718
O21   O     O_R   0.765670 0.292090 0.675090 -0.477078
O22   O     O_R   0.234330 0.292090 0.324910 -0.509923
O23   O     O_R   0.265670 0.792090 0.675090 -0.477078
O24   O     O_R   0.734330 0.792090 0.324910 -0.509923
O25   O     O_R   0.670220 0.409020 0.668560 -0.467197
O26   O     O_R   0.329780 0.409020 0.331440 -0.456003
O27   O     O_R   0.170220 0.909020 0.668560 -0.467197
O28   O     O_R   0.829780 0.909020 0.331440 -0.456003
O29   O     O_R   0.556580 0.251590 0.674980 -0.470393
O30   O     O_R   0.443420 0.251590 0.325020 -0.470199
O31   O     O_R   0.056580 0.751590 0.674980 -0.470393
O32   O     O_R   0.943420 0.751590 0.325020 -0.470199
O33   O     O_R   0.545890 0.049670 0.670030 -0.509925
O34   O     O_R   0.454110 0.049670 0.329970 -0.536460
O35   O     O_R   0.045890 0.549670 0.670030 -0.509925
O36   O     O_R   0.954110 0.549670 0.329970 -0.536460
O37   O     O_R   0.681340 0.957860 0.676500 -0.520339
O38   O     O_R   0.318660 0.957860 0.323500 -0.502107
O39   O     O_R   0.181340 0.457860 0.676500 -0.520339
O40   O     O_R   0.818660 0.457860 0.323500 -0.502107
O41   O     O_R   0.787380 0.044010 0.830940 -0.545455
O42   O     O_R   0.212620 0.044010 0.169060 -0.541324
O43   O     O_R   0.287380 0.544010 0.830940 -0.545455
O44   O     O_R   0.712620 0.544010 0.169060 -0.541324
O45   O     O_R   0.765540 0.293390 0.823910 -0.517106
O46   O     O_R   0.234460 0.293390 0.176090 -0.494239
O47   O     O_R   0.265540 0.793390 0.823910 -0.517106
O48   O     O_R   0.734460 0.793390 0.176090 -0.494239
O49   O     O_R   0.670090 0.410410 0.829090 -0.463945
O50   O     O_R   0.329910 0.410410 0.170910 -0.515115
O51   O     O_R   0.170090 0.910410 0.829090 -0.463945
O52   O     O_R   0.829910 0.910410 0.170910 -0.515115
C101  C     C_3   0.686053 0.701254 0.048635 -0.287693
H25   H     H_    0.646658 0.668202 0.009384 0.192487
H26   H     H_    0.727989 0.632617 0.054148 0.140510
H27   H     H_    0.654557 0.714588 0.096761 0.211681
C102  C     C_3   0.361891 0.868257 0.920575 -0.309284
H28   H     H_    0.406209 0.909540 0.950323 0.199234
H29   H     H_    0.377475 0.775930 0.902455 0.171223
H30   H     H_    0.353102 0.929865 0.874668 0.167213
C103  C     C_3   0.186053 0.201254 0.048635 -0.287693
H31   H     H_    0.146658 0.168202 0.009384 0.192487
H32   H     H_    0.227989 0.132617 0.054148 0.140510
H33   H     H_    0.154557 0.214588 0.096761 0.211681
C104  C     C_3   0.861891 0.368257 0.920575 -0.309284
H34   H     H_    0.906209 0.409540 0.950323 0.199234
H35   H     H_    0.877475 0.275930 0.902455 0.171223
H36   H     H_    0.853102 0.429866 0.874668 0.167213
Br1   Br    Br    0.709691 0.700386 0.884747 -0.488892
Br2   Br    Br    0.392605 0.808550 0.081048 -0.460045
Br3   Br    Br    0.209691 0.200386 0.884747 -0.488892
Br4   Br    Br    0.892605 0.308550 0.081048 -0.460045
C105  C     C_3   0.682465 0.743487 0.583359 -0.340611
H37   H     H_    0.702344 0.654988 0.563917 0.150422
H38   H     H_    0.697331 0.747147 0.640286 0.169709
H39   H     H_    0.624332 0.747775 0.577450 0.196453
C106  C     C_3   0.387351 0.923986 0.450126 -0.302044
H40   H     H_    0.425530 0.901914 0.493494 0.146756
H41   H     H_    0.400397 0.863332 0.405223 0.227493
H42   H     H_    0.394190 0.020395 0.437440 0.119596
C107  C     C_3   0.182465 0.243487 0.583359 -0.340611
H43   H     H_    0.202344 0.154989 0.563918 0.150421
H44   H     H_    0.197331 0.247148 0.640286 0.169710
H45   H     H_    0.124332 0.247775 0.577450 0.196453
C108  C     C_3   0.887351 0.423986 0.450126 -0.302044
H46   H     H_    0.925530 0.401914 0.493494 0.146756
H47   H     H_    0.900397 0.363332 0.405223 0.227493
H48   H     H_    0.894190 0.520395 0.437440 0.119596
Br5   Br    Br    0.816122 0.143576 0.393891 -0.445379
Br6   Br    Br    0.085345 0.983175 0.557293 -0.448056
Br7   Br    Br    0.316122 0.643576 0.393891 -0.445379
Br8   Br    Br    0.585345 0.483175 0.557293 -0.448056
Br9   Br    Br    0.866896 0.121584 0.560025 -0.448338
Br10  Br    Br    0.102094 0.912747 0.390436 -0.417507
Br11  Br    Br    0.366895 0.621584 0.560025 -0.448338
Br12  Br    Br    0.602094 0.412747 0.390436 -0.417507
Br13  Br    Br    0.556565 0.894933 0.942050 -0.428544
Br14  Br    Br    0.578034 0.949224 0.109530 -0.433586
Br15  Br    Br    0.056564 0.394933 0.942050 -0.428544
Br16  Br    Br    0.078035 0.449224 0.109530 -0.433586
C109  C     C_3   0.478453 0.403048 0.068181 -0.346564
H49   H     H_    0.501586 0.474775 0.034555 0.137490
H50   H     H_    0.506154 0.411772 0.120070 0.163650
H51   H     H_    0.421525 0.421961 0.073607 0.179286
C110  C     C_3   0.458859 0.367307 0.915308 -0.354022
H52   H     H_    0.499622 0.436110 0.904075 0.159016
H53   H     H_    0.413804 0.412409 0.941592 0.142320
H54   H     H_    0.437210 0.330910 0.864673 0.158859
C111  C     C_3   0.978452 0.903048 0.068181 -0.346564
H55   H     H_    0.001586 0.974775 0.034555 0.137489
H56   H     H_    0.006154 0.911772 0.120070 0.163650
H57   H     H_    0.921525 0.921961 0.073607 0.179286
C112  C     C_3   0.958858 0.867307 0.915308 -0.354022
H58   H     H_    0.999622 0.936111 0.904076 0.159015
H59   H     H_    0.913803 0.912408 0.941592 0.142320
H60   H     H_    0.937211 0.830910 0.864673 0.158860

loop_
_geom_bond_atom_site_label_1
_geom_bond_atom_site_label_2
_ccdc_geom_bond_type
C58   C62   A    
Cr5   O17   S    
C64   C104  S    
C83   O7    A    
C111  H56   S    
C93   C94   A    
C55   C59   A    
C101  H27   S    
C34   C37   A    
C77   O49   A    
C41   C42   A    
C14   C18   A    
Cr9   O13   S    
C95   C96   A    
C8    C96   S    
C100  H4    S    
C86   O42   A    
C82   O6    A    
C84   O12   A    
Cr2   O22   S    
C97   C98   A    
C45   O29   A    
C69   C85   S    
C7    C8    S    
C46   C89   S    
C41   C109  S    
C106  H40   S    
C26   Br10  S    
C107  H45   S    
C15   C19   A    
Cr8   O28   S    
C25   Br9   S    
C112  H58   S    
C50   C54   A    
C79   O51   A    
C75   O3    A    
Cr11  O39   S    
C64   C68   A    
C56   C60   A    
C43   C111  S    
C39   C84   S    
C74   O38   A    
C108  H48   S    
Cr11  O11   S    
C86   O14   A    
Cr2   O2    S    
C5    C6    S    
C30   C74   S    
Cr9   O37   S    
C98   H2    S    
C65   Br1   S    
C84   O8    A    
Cr7   O51   S    
C92   C96   A    
C105  H39   S    
C3    C18   S    
C103  H32   S    
C110  H52   S    
C104  H34   S    
Cr5   O49   S    
C101  H26   S    
C9    C13   A    
C36   Br16  S    
C21   C25   A    
C24   Br8   S    
C82   O10   A    
C48   O36   A    
C11   C15   A    
C49   H5    S    
C35   C36   A    
C15   H23   S    
C9    C105  S    
C6    C94   S    
C48   C91   S    
C48   O32   A    
C32   C76   S    
C8    H20   S    
C51   H7    S    
C4    O28   A    
Cr6   O6    S    
C78   O50   A    
C23   C27   A    
C91   C100  A    
C103  H31   S    
C18   C22   A    
Cr9   O17   S    
Cr2   O18   S    
C90   C97   A    
Cr3   O43   S    
C56   H12   S    
C6    H18   S    
C5    C93   S    
C81   O5    A    
Cr8   O32   S    
Cr11  O19   S    
C1    O25   A    
C49   C69   A    
C111  H55   S    
C12   C32   A    
C61   C101  S    
C104  H35   S    
C57   C80   S    
C40   C83   S    
Cr12  O36   S    
C51   C71   A    
Cr4   O24   S    
C47   C92   S    
C59   C78   S    
C72   C88   S    
Cr9   O33   S    
C90   C94   A    
Cr7   O31   S    
Cr1   O21   S    
Cr12  O12   S    
C25   C29   A    
C63   C67   A    
C60   C77   S    
C112  H59   S    
C62   C66   A    
C27   C31   A    
Cr2   O46   S    
C12   C16   A    
C28   C32   A    
C76   O40   A    
Cr6   O50   S    
C105  H37   S    
C10   C14   A    
Cr10  O10   S    
C77   O45   A    
Cr1   O1    S    
C39   C43   A    
C14   H22   S    
C51   C55   A    
Cr6   O18   S    
C107  H43   S    
C75   O39   A    
C89   C93   A    
C17   C21   A    
C63   C103  S    
C45   O33   A    
C68   C72   A    
C110  H53   S    
Cr4   O44   S    
C103  H33   S    
C19   C23   A    
C43   C44   A    
C68   Br4   S    
C108  H46   S    
Cr10  O18   S    
C88   O44   A    
Cr3   O3    S    
C47   O31   A    
C10   C30   A    
C31   C75   S    
C99   C100  A    
Cr8   O20   S    
Cr1   O17   S    
C16   C20   A    
C102  H30   S    
C52   C72   A    
C5    H15   S    
C102  H29   S    
C33   C34   A    
C80   O52   A    
C3    O23   A    
C7    H13   S    
C45   C90   S    
C58   C79   S    
C54   H10   S    
C34   Br14  S    
C83   O11   A    
C4    C17   S    
C52   H8    S    
C8    H14   S    
Cr12  O20   S    
Cr12  O40   S    
C87   O43   A    
Cr7   O27   S    
C26   C30   A    
C81   O9    A    
C21   Br5   S    
C109  H50   S    
C38   C81   S    
C71   C87   S    
Cr2   O42   S    
C104  H36   S    
Cr3   O47   S    
C37   C82   S    
Cr4   O20   S    
C35   Br15  S    
C76   O4    A    
C97   H1    S    
C70   C86   S    
C55   H11   S    
Cr10  O34   S    
Cr8   O8    S    
C33   Br13  S    
C54   C58   A    
C106  H42   S    
Cr3   O19   S    
C65   C69   A    
C28   Br12  S    
C109  H51   S    
C1    C20   S    
C53   C57   A    
C46   O30   A    
Cr4   O48   S    
C2    C19   S    
C50   H6    S    
C13   H21   S    
Cr8   O52   S    
C36   C39   A    
Cr9   O9    S    
C24   C28   A    
C3    O27   A    
Cr10  O14   S    
Cr11  O15   S    
Cr12  O16   S    
C88   O16   A    
C47   O35   A    
C10   C106  S    
C57   C61   A    
C22   Br6   S    
Cr6   O26   S    
C9    C29   A    
C107  H44   S    
C7    C95   S    
C89   C98   A    
C42   C110  S    
C59   C63   A    
C33   C38   A    
C73   O37   A    
C13   C17   A    
C67   Br3   S    
C60   C64   A    
C110  H54   S    
C23   Br7   S    
Cr5   O5    S    
C1    O21   A    
C35   C40   A    
C50   C70   A    
C106  H41   S    
C6    H16   S    
C7    H19   S    
C108  H47   S    
C53   H9    S    
C11   C107  S    
C4    O24   A    
C74   O2    A    
Cr3   O23   S    
C66   C70   A    
Cr10  O38   S    
C73   O1    A    
Cr6   O30   S    
C66   Br2   S    
C99   H3    S    
C5    H17   S    
C105  H38   S    
C79   O47   A    
C67   C71   A    
C80   O48   A    
C61   C65   A    
C37   C41   A    
C101  H25   S    
Cr1   O45   S    
C85   O13   A    
C12   C108  S    
C112  H60   S    
C49   C53   A    
Cr1   O41   S    
C11   C31   A    
C27   Br11  S    
C38   C42   A    
C46   O34   A    
C44   C112  S    
C40   C44   A    
C29   C73   S    
C2    O22   A    
C91   C95   A    
C85   O41   A    
C102  H28   S    
C22   C26   A    
C111  H57   S    
Cr5   O29   S    
Cr5   O25   S    
C87   O15   A    
C62   C102  S    
C78   O46   A    
C109  H49   S    
Cr7   O7    S    
C20   C24   A    
Cr7   O19   S    
C52   C56   A    
C92   C99   A    
Cr4   O4    S    
C2    O26   A    
Cr11  O35   S    
C16   H24   S    
