data_mof_unit_6430.cif
_audit_creation_date              2012-12-10T16:53:06-0500
_audit_creation_method            fapswitch 2.2
_symmetry_space_group_name_H-M    P1
_symmetry_Int_Tables_number       1
_space_group_crystal_system       triclinic
_cell_length_a                    10.780277
_cell_length_b                    10.925393
_cell_length_c                    9.693909
_cell_angle_alpha                 89.514297
_cell_angle_beta                  89.974318
_cell_angle_gamma                 89.91679
_cell_volume                      1141.69427374

loop_
_atom_site_label
_atom_site_type_symbol
_atom_type_description
_atom_site_fract_x
_atom_site_fract_y
_atom_site_fract_z
_atom_type_partial_charge
C1    C     C_R   0.503401 0.265331 0.500631 0.885053
C2    C     C_R   0.065319 0.604890 0.574118 0.094341
C3    C     C_R   0.128835 0.513006 0.499850 -0.093820
C4    C     C_R   0.064102 0.427332 0.422053 -0.202887
C5    C     C_R   0.936166 0.427362 0.421922 -0.203313
C6    C     C_R   0.871046 0.513118 0.499514 -0.094405
C7    C     C_2   0.533168 0.934509 0.387742 0.477446
C8    C     C_2   0.496755 0.867394 0.497871 -0.409123
C9    C     C_2   0.519100 0.068527 0.387616 -0.271349
C10   C     C_2   0.516155 0.133539 0.503979 -0.400705
C11   C     C_2   0.427328 0.430756 0.922786 -0.056605
C12   C     C_R   0.262601 0.504355 0.500039 0.780623
C13   C     C_2   0.429172 0.428884 0.078514 -0.064252
C14   C     C_R   0.500561 0.734833 0.499225 0.851535
C15   C     C_R   0.737363 0.504354 0.499890 0.781512
C16   C     C_R   0.128877 0.698862 0.644383 -0.172918
C17   C     C_R   0.063700 0.789407 0.714556 -0.133561
C18   C     C_R   0.934688 0.789527 0.714231 -0.146024
C19   C     C_R   0.870026 0.699128 0.643675 -0.186863
C20   C     C_R   0.934093 0.605001 0.573831 0.097566
Cu1   Cu    Cu3+1 0.500020 0.500020 0.638630 0.934362
Cu2   Cu    Cu3+1 0.499980 0.499980 0.361370 0.961890
H1    H     H_    0.113041 0.358168 0.363660 0.145700
H2    H     H_    0.528766 0.091281 0.604546 0.153695
H3    H     H_    0.362220 0.370442 0.871994 0.153150
H4    H     H_    0.562376 0.554357 0.893356 0.195857
H5    H     H_    0.367522 0.365096 0.130523 0.148886
H6    H     H_    0.555416 0.561221 0.105445 0.202998
H7    H     H_    0.228911 0.705034 0.643863 0.148948
H8    H     H_    0.113559 0.860726 0.767912 0.134933
H9    H     H_    0.884444 0.860887 0.767402 0.133166
H10   H     H_    0.769991 0.705513 0.642542 0.144620
H11   H     H_    0.887538 0.358167 0.363517 0.148249
H12   H     H_    0.461231 0.909233 0.590779 0.115331
H13   H     H_    0.513614 0.114239 0.287811 0.184294
N1    N     N_2   0.498640 0.498660 0.846910 -0.280493
N2    N     N_2   0.498610 0.498630 0.153040 -0.276939
O1    O     O_R   0.500020 0.321960 0.617040 -0.576524
O2    O     O_R   0.499980 0.321920 0.382900 -0.579895
O3    O     O_R   0.319670 0.500020 0.617100 -0.581138
O4    O     O_R   0.319630 0.499980 0.382950 -0.572481
O5    O     O_R   0.500020 0.678080 0.617100 -0.603453
O6    O     O_R   0.499980 0.678040 0.382960 -0.509861
O7    O     O_R   0.680370 0.500020 0.617050 -0.581124
O8    O     O_R   0.680330 0.499980 0.382900 -0.579311
O9    O     O_3   0.571449 0.877321 0.267675 -0.553358
C21   C     C_3   0.696195 0.908257 0.240221 0.072373
H14   H     H_    0.755663 0.895123 0.333418 0.134331
H15   H     H_    0.703171 0.004796 0.203557 0.139885
C22   C     C_3   0.745713 0.825283 0.127514 -0.781571
H16   H     H_    0.689252 0.836298 0.032376 0.240687
H17   H     H_    0.843493 0.849399 0.103716 0.199060
H18   H     H_    0.741854 0.728227 0.162378 0.251486

loop_
_geom_bond_atom_site_label_1
_geom_bond_atom_site_label_2
_ccdc_geom_bond_type
C12   O3    A    
C22   H17   S    
C12   O4    A    
C3    C12   S    
Cu1   O7    S    
C6    C20   A    
C9    C10   D    
C13   N2    D    
C21   H14   S    
C14   O5    A    
C10   H2    S    
C17   C18   A    
C6    C15   S    
C7    C8    D    
C21   H15   S    
Cu1   N1    S    
C8    H12   S    
Cu1   Cu2   S    
C17   H8    S    
C11   C13   S    
Cu1   O5    S    
Cu1   O3    S    
H6    N2    S    
C19   H10   S    
C1    O1    A    
H4    N1    S    
C11   N1    D    
C15   O7    A    
C2    C3    A    
C21   C22   S    
C5    C6    A    
Cu2   O4    S    
C16   C17   A    
C1    O2    A    
C2    C20   A    
C3    C4    A    
C22   H18   S    
C7    O9    S    
Cu1   O1    S    
Cu2   O8    S    
C2    C16   A    
C7    C9    S    
C18   C19   A    
C9    H13   S    
C4    H1    S    
C11   H3    S    
O9    C21   S    
C14   O6    A    
C8    C14   S    
C18   H9    S    
C22   H16   S    
C16   H7    S    
Cu2   N2    S    
Cu2   O2    S    
Cu2   O6    S    
C13   H5    S    
C1    C10   S    
C19   C20   A    
C4    C5    A    
C15   O8    A    
C5    H11   S    
