data_mof_unit_15645.cif
_audit_creation_date              2012-12-11T18:06:50-0500
_audit_creation_method            fapswitch 2.2
_symmetry_space_group_name_H-M    P1
_symmetry_Int_Tables_number       1
_space_group_crystal_system       triclinic
_cell_length_a                    8.254043
_cell_length_b                    12.929096
_cell_length_c                    26.889179
_cell_angle_alpha                 97.213343
_cell_angle_beta                  92.764167
_cell_angle_gamma                 81.819447
_cell_volume                      2816.5153842

loop_
_atom_site_label
_atom_site_type_symbol
_atom_type_description
_atom_site_fract_x
_atom_site_fract_y
_atom_site_fract_z
_atom_type_partial_charge
Ba1   Ba    Ba6+2 0.859560 0.448380 0.523550 1.642216
Ba2   Ba    Ba6+2 0.330270 0.551530 0.476440 1.652875
C1    C     C_3   0.798447 0.146092 0.727739 -0.420182
C2    C     C_R   0.948759 0.613588 0.183647 0.589689
C3    C     C_2   0.771872 0.579329 0.273850 -0.091259
C4    C     C_3   0.228599 0.225367 0.659007 0.266401
C5    C     C_3   0.743233 0.606943 0.329289 -0.063973
C6    C     C_1   0.986818 0.480644 0.343803 0.042456
C7    C     C_2   0.030182 0.474192 0.296210 -0.079869
C8    C     C_2   0.916252 0.524556 0.257936 0.214392
C9    C     C_R   0.041305 0.516345 0.103964 -0.080311
C10   C     C_R   0.061938 0.423049 0.127031 -0.033723
C11   C     C_R   0.122044 0.328186 0.098555 -0.060727
C12   C     C_3   0.804040 0.212727 0.685200 0.334646
C13   C     C_R   0.983679 0.612042 0.132602 -0.028092
C14   C     C_2   0.850249 0.536323 0.361341 -0.264369
C15   C     C_2   0.348547 0.477679 0.640305 -0.243956
C16   C     C_3   0.268202 0.182628 0.709102 -0.373304
C17   C     C_R   0.190081 0.417239 0.973604 0.019949
C18   C     C_R   0.077742 0.604995 0.976794 0.020269
C19   C     C_R   0.152210 0.510163 0.949639 0.049151
C20   C     C_R   0.273516 0.326792 0.945740 -0.101521
C21   C     C_R   0.314115 0.326922 0.896004 -0.066851
C22   C     C_R   0.272032 0.416780 0.871388 -0.032151
C23   C     C_3   0.486135 0.740157 0.641348 0.372779
C24   C     C_R   0.189827 0.508405 0.898025 -0.079875
C25   C     C_R   0.146745 0.598611 0.873195 -0.028558
C26   C     C_R   0.184552 0.595630 0.822153 0.580465
C27   C     C_R   0.311602 0.416922 0.820734 0.584123
C28   C     C_3   0.211444 0.224832 0.415851 0.288764
C29   C     C_2   0.458696 0.488188 0.728621 -0.072439
C30   C     C_3   0.497030 0.491145 0.673973 -0.056799
C31   C     C_1   0.204911 0.522527 0.656684 0.039698
C32   C     C_2   0.167408 0.520196 0.704191 -0.158981
C33   C     C_2   0.301536 0.503094 0.743433 0.216366
C34   C     C_3   0.613364 0.709951 0.683195 -0.153441
C35   C     C_R   0.145126 0.417990 0.024443 0.019713
C36   C     C_R   0.078657 0.514148 0.052287 0.049841
C37   C     C_R   0.049300 0.608290 0.029032 0.019548
C38   C     C_R   0.163347 0.325595 0.048629 -0.101129
C39   C     C_R   0.962862 0.704913 0.109799 -0.062299
C40   C     C_3   0.212974 0.106583 0.403730 -0.353973
C41   C     C_R   0.033197 0.693464 0.950411 -0.102244
C42   C     C_R   0.066710 0.690113 0.899887 -0.069043
C43   C     C_R   0.994046 0.703205 0.059269 -0.102155
C44   C     C_R   0.750397 0.823012 0.479690 -0.269504
C45   C     C_3   0.941356 0.854821 0.345261 0.293090
C46   C     C_R   0.423370 0.187944 0.515632 -0.285072
C47   C     C_R   0.422464 0.021226 0.545030 0.008678
C48   C     C_R   0.342039 0.121443 0.538961 -0.003473
C49   C     C_R   0.571014 0.151486 0.491779 0.065057
C50   C     C_R   0.634369 0.041283 0.487873 -0.055183
C51   C     C_R   0.554646 0.973175 0.513755 -0.025743
C52   C     C_3   0.980008 0.770162 0.577725 0.270389
C53   C     C_R   0.615730 0.861867 0.509060 0.046364
C54   C     C_R   0.839596 0.889951 0.459602 -0.032231
C55   C     C_R   0.779325 0.998010 0.461902 -0.092392
C56   C     C_3   0.970665 0.884663 0.293917 -0.302554
C57   C     C_3   0.981021 0.889258 0.585763 -0.402903
C58   C     C_3   0.696168 0.313512 0.376176 0.295527
C59   C     C_3   0.715333 0.285546 0.319917 -0.363438
C60   C     C_3   0.342642 0.818387 0.665567 -0.255243
C61   C     C_3   0.266908 0.787911 0.711340 -0.384910
C62   C     C_3   0.702104 0.801708 0.707467 -0.211964
C63   C     C_3   0.832003 0.765292 0.745957 -0.374276
C64   C     C_3   0.412359 0.991316 0.596077 -0.206716
C65   C     C_3   0.566642 0.011246 0.627395 -0.394090
C66   C     C_3   0.471583 0.821213 0.343741 0.392926
C67   C     C_3   0.451319 0.899721 0.305540 -0.377975
C68   C     C_R   0.019931 0.426314 0.177876 0.592983
H1    H     H_    0.906422 0.258653 0.695222 0.087132
H2    H     H_    0.809938 0.340728 0.392898 0.011369
H3    H     H_    0.592281 0.377665 0.382630 0.086074
H4    H     H_    0.910707 0.087491 0.728133 0.082753
H5    H     H_    0.824177 0.225286 0.312382 0.130630
H6    H     H_    0.731085 0.356518 0.302392 0.074535
H7    H     H_    0.604470 0.254056 0.302777 0.132206
H8    H     H_    0.829143 0.160440 0.649681 0.079771
H9    H     H_    0.689795 0.104203 0.723406 0.125444
H10   H     H_    0.439687 0.668790 0.621922 -0.018903
H11   H     H_    0.555975 0.677930 0.713196 0.044162
H12   H     H_    0.285747 0.077379 0.370002 0.114549
H13   H     H_    0.703982 0.645871 0.667252 0.130958
H14   H     H_    0.791837 0.197326 0.764182 0.140614
H15   H     H_    0.170869 0.214666 0.736149 0.117121
H16   H     H_    0.911599 0.773069 0.340676 0.022565
H17   H     H_    0.836240 0.910571 0.361106 -0.027967
H18   H     H_    0.071807 0.828903 0.275822 0.166654
H19   H     H_    0.857535 0.881951 0.269993 0.114010
H20   H     H_    0.003270 0.965795 0.297655 0.097155
H21   H     H_    0.604157 0.808123 0.354383 -0.126211
H22   H     H_    0.404176 0.856294 0.377926 0.082299
H23   H     H_    0.268098 0.065385 0.435486 0.076720
H24   H     H_    0.514153 0.864012 0.270619 0.126371
H25   H     H_    0.506799 0.970919 0.320871 0.070733
H26   H     H_    0.171959 0.308636 0.665888 0.066760
H27   H     H_    0.319630 0.923056 0.296633 0.127518
H28   H     H_    0.150005 0.434478 0.284985 0.121171
H29   H     H_    0.137914 0.254800 0.114887 0.120004
H30   H     H_    0.558708 0.479655 0.756205 0.088035
H31   H     H_    0.378691 0.255408 0.876704 0.115747
H32   H     H_    0.313136 0.254696 0.961684 0.067251
H33   H     H_    0.205940 0.248890 0.029595 0.067061
H34   H     H_    0.085932 0.088340 0.396348 0.131561
H35   H     H_    0.685046 0.615963 0.247499 0.103133
H36   H     H_    0.920913 0.780103 0.131017 0.118429
H37   H     H_    0.968471 0.766529 0.967486 0.066869
H38   H     H_    0.346232 0.222158 0.639898 0.006555
H39   H     H_    0.029589 0.760339 0.881727 0.113912
H40   H     H_    0.041193 0.533153 0.715223 0.118737
H41   H     H_    0.977195 0.778646 0.045317 0.067990
H42   H     H_    0.825947 0.546464 0.401090 0.074027
H43   H     H_    0.359214 0.431356 0.603693 0.069128
H44   H     H_    0.848353 0.047086 0.444056 0.096259
H45   H     H_    0.854984 0.752858 0.568758 0.030543
H46   H     H_    0.795909 0.739740 0.476322 0.046885
H47   H     H_    0.370287 0.269462 0.515806 0.058728
H48   H     H_    0.279148 0.095426 0.704448 0.106411
H49   H     H_    0.386945 0.205048 0.724432 0.177473
H50   H     H_    0.338496 0.241809 0.422756 0.003589
H51   H     H_    0.137963 0.251695 0.449765 0.063755
H52   H     H_    0.246079 0.705531 0.705003 0.138382
H53   H     H_    0.346726 0.800262 0.745378 0.144526
H54   H     H_    0.147740 0.838317 0.718374 0.146062
H55   H     H_    0.380653 0.895983 0.677701 0.107700
H56   H     H_    0.058417 0.737853 0.545501 0.087689
H57   H     H_    0.246070 0.829750 0.636960 0.128013
H58   H     H_    0.777935 0.726507 0.774538 0.136928
H59   H     H_    0.930368 0.709535 0.726760 0.164557
H60   H     H_    0.886203 0.834074 0.765150 0.138522
H61   H     H_    0.763062 0.835356 0.678549 0.161857
H62   H     H_    0.613631 0.864758 0.726886 0.106209
H63   H     H_    0.673705 0.957501 0.613005 0.145245
H64   H     H_    0.589117 0.093078 0.625707 0.129086
H65   H     H_    0.552867 0.001500 0.667065 0.108460
H66   H     H_    0.312273 0.032081 0.617886 0.115004
H67   H     H_    0.887736 0.929657 0.561457 0.090855
H68   H     H_    0.370910 0.916522 0.592094 0.123790
H69   H     H_    0.100029 0.908705 0.575365 0.115301
H70   H     H_    0.957866 0.921430 0.625450 0.120830
N1    N     N_R   0.962830 0.521056 0.205741 -0.421745
N2    N     N_R   0.264321 0.504926 0.796157 -0.420319
O1    O     O_2   0.907040 0.557650 0.617910 -0.468203
O2    O     O_2   0.177279 0.882899 0.468764 -0.480986
O3    O     O_3   0.083197 0.861940 0.375688 -0.584408
O4    O     O_3   0.139040 0.557570 0.557730 -0.491287
O5    O     O_3   0.571310 0.369620 0.475470 -0.494760
O6    O     O_2   0.348200 0.764910 0.523260 -0.477077
O7    O     O_3   0.567273 0.789858 0.607734 -0.663185
O8    O     O_2   0.442799 0.524282 0.324379 -0.485403
O9    O     O_3   0.407725 0.728984 0.322956 -0.567143
O10   O     O_2   0.032231 0.344565 0.197003 -0.599419
O11   O     O_2   0.388469 0.338484 0.798555 -0.616734
O12   O     O_3   0.666128 0.224029 0.396714 -0.642647
O13   O     O_2   0.906670 0.697973 0.208588 -0.626831
O14   O     O_2   0.149273 0.674620 0.801180 -0.630247
O15   O     O_3   0.684960 0.360550 0.588460 -0.458091
O16   O     O_2   0.835381 0.426298 0.674316 -0.527080
O17   O     O_3   0.033932 0.727125 0.621942 -0.643653
O18   O     O_3   0.651854 0.275590 0.680246 -0.624085
O19   O     O_2   0.841490 0.235060 0.476710 -0.468454
O20   O     O_3   0.099640 0.305100 0.564190 -0.472964
O21   O     O_2   0.994680 0.123250 0.540164 -0.474089
O22   O     O_3   0.117653 0.165829 0.630978 -0.624450
O23   O     O_2   0.282660 0.442310 0.382060 -0.454840
O24   O     O_3   0.050670 0.442340 0.442260 -0.503316
O25   O     O_3   0.504750 0.639360 0.411530 -0.466878
O26   O     O_3   0.144597 0.273166 0.374501 -0.629324
O27   O     O_3   0.618400 0.630290 0.524520 -0.466826
O28   O     O_3   0.090070 0.694820 0.435810 -0.466787
P1    P     P_3+3 0.072810 0.589830 0.610360 0.977261
P2    P     P_3+3 0.661990 0.251250 0.462170 0.974726
P3    P     P_3+3 0.139713 0.172929 0.567190 0.948611
P4    P     P_3+3 0.116900 0.410080 0.389630 0.989223
P5    P     P_3+3 0.044522 0.832663 0.435386 0.956183
P6    P     P_3+3 0.671422 0.390611 0.653630 0.960782
P7    P     P_3+3 0.533861 0.761643 0.541636 0.939230
P8    P     P_3+3 0.524578 0.621087 0.346477 0.978459

loop_
_geom_bond_atom_site_label_1
_geom_bond_atom_site_label_2
_ccdc_geom_bond_type
C19   C24   A    
C45   O3    S    
O6    P7    D    
C40   H23   S    
C53   P7    S    
C12   H1    S    
C40   H12   S    
C1    H9    S    
C61   H52   S    
C61   H54   S    
C15   H43   S    
O20   P3    S    
C3    H35   S    
C59   H5    S    
O26   P4    S    
C52   H56   S    
C24   C25   A    
C7    H28   S    
O17   P1    S    
C48   P3    S    
C57   H70   S    
C49   P2    S    
C17   C19   A    
C22   C24   A    
C32   C33   S    
C35   C38   A    
C36   C37   A    
C6    P4    S    
C58   H2    S    
C34   H13   S    
Ba2   O6    S    
C23   H10   S    
C58   H3    S    
C66   H21   S    
C54   C55   A    
C23   O7    S    
Ba1   Ba2   S    
C1    H4    S    
C12   O18   S    
C22   C27   A    
C11   C38   A    
C17   C35   A    
C52   O17   S    
O19   P2    D    
C9    C13   A    
C25   C42   A    
C46   C49   A    
C62   H62   S    
C59   H7    S    
C6    C7    D    
C44   C53   A    
C21   C22   A    
C28   H51   S    
C7    C8    S    
Ba2   O24   S    
C37   C43   A    
C42   H39   S    
C46   C48   A    
C64   C65   S    
Ba1   O19   S    
O28   P5    S    
C6    C14   D    
O4    P1    S    
O18   P6    S    
Ba1   O4    S    
C15   C31   D    
O27   P7    S    
C33   N2    S    
C63   H60   S    
C52   C57   S    
C51   C53   A    
C59   H6    S    
C4    C16   S    
O24   P4    S    
C16   H15   S    
C39   H36   S    
C54   P5    S    
C49   C50   A    
C63   H58   S    
O3    P5    S    
C65   H64   S    
C68   O10   D    
C13   C39   A    
C67   H24   S    
C47   C64   S    
C2    N1    Am   
C3    C5    S    
C18   C37   A    
C66   C67   S    
O9    P8    S    
O15   P6    S    
Ba2   O5    S    
Ba1   P1    S    
C5    P8    S    
C40   H34   S    
C58   C59   S    
C8    N1    S    
C45   H17   S    
C11   H29   S    
C9    C36   A    
C65   H65   S    
C41   C42   A    
C45   H16   S    
C35   C36   A    
Ba1   O1    S    
C30   P6    S    
C63   H59   S    
C29   C30   S    
C64   H68   S    
C62   H61   S    
C57   H69   S    
C34   H11   S    
C52   H45   S    
C17   C20   A    
C60   C61   S    
O7    P7    S    
C31   C32   D    
O12   P2    S    
O22   P3    S    
C41   H37   S    
C29   H30   S    
C18   C19   A    
C56   H20   S    
Ba2   O23   S    
C46   H47   S    
C1    C12   S    
Ba2   O28   S    
C64   H66   S    
O16   P6    D    
C5    C14   S    
C4    O22   S    
Ba1   O20   S    
C47   C48   A    
C4    H26   S    
C32   H40   S    
C29   C33   D    
Ba1   O5    S    
C26   N2    Am   
O21   P3    D    
C25   C26   A    
C18   C41   A    
C50   C51   A    
C14   H42   S    
C27   O11   D    
C10   C68   A    
O5    P2    S    
C68   N1    Am   
C39   C43   A    
C65   H63   S    
C23   C34   S    
C67   H25   S    
C56   H18   S    
C60   H55   S    
C61   H53   S    
C9    C10   A    
C43   H41   S    
C55   H44   S    
Ba2   O4    S    
Ba1   P2    S    
C20   H32   S    
C44   H46   S    
C62   C63   S    
C2    C13   A    
Ba1   O15   S    
O23   P4    D    
O1    P1    D    
C3    C8    D    
C66   O9    S    
O8    P8    D    
Ba2   P4    S    
C45   C56   S    
C16   H48   S    
C21   H31   S    
C28   H50   S    
Ba1   O24   S    
C47   C51   A    
C27   N2    Am   
Ba2   O25   S    
O2    P5    D    
Ba1   O27   S    
C66   H22   S    
C23   C60   S    
C12   H8    S    
C56   H19   S    
C58   O12   S    
C50   C55   A    
Ba2   O27   S    
C28   O26   S    
C60   H57   S    
O25   P8    S    
C10   C11   A    
C2    O13   D    
C44   C54   A    
C1    H14   S    
C26   O14   D    
C15   C30   S    
C4    H38   S    
C20   C21   A    
C28   C40   S    
C34   C62   S    
C16   H49   S    
C57   H67   S    
C67   H27   S    
C38   H33   S    
C31   P1    S    
