data_mof_unit_33177.cif
_audit_creation_date              2012-12-11T15:03:57-0500
_audit_creation_method            fapswitch 2.2
_symmetry_space_group_name_H-M    P1
_symmetry_Int_Tables_number       1
_space_group_crystal_system       triclinic
_cell_length_a                    8.423471
_cell_length_b                    15.057349
_cell_length_c                    18.796945
_cell_angle_alpha                 100.620464
_cell_angle_beta                  91.873275
_cell_angle_gamma                 99.375003
_cell_volume                      2307.13471281

loop_
_atom_site_label
_atom_site_type_symbol
_atom_type_description
_atom_site_fract_x
_atom_site_fract_y
_atom_site_fract_z
_atom_type_partial_charge
Ba1   Ba    Ba6+2 0.854120 0.540280 0.465540 1.600668
Ba2   Ba    Ba6+2 0.335710 0.459790 0.534460 1.609008
C1    C     C_3   0.710713 0.862124 0.283891 -0.374467
C2    C     C_R   0.897117 0.407826 0.090665 0.059719
C3    C     C_R   0.734952 0.371853 0.066902 -0.080470
C4    C     C_3   0.131933 0.718713 0.270186 0.356547
C5    C     C_R   0.672804 0.381070 0.999291 -0.101914
C6    C     C_R   0.772429 0.423528 0.952564 0.035382
C7    C     C_R   0.933736 0.461416 0.975820 0.016417
C8    C     C_R   0.713768 0.426337 0.882447 -0.115507
C9    C     C_R   0.816379 0.461491 0.832454 -0.041955
C10   C     C_R   0.977890 0.501629 0.855964 -0.002589
C11   C     C_R   0.034982 0.502510 0.928309 -0.007422
C12   C     C_3   0.663386 0.769453 0.305621 0.352662
C13   C     C_R   0.763380 0.455605 0.759234 -0.026087
C14   C     C_R   0.871783 0.487550 0.710497 -0.284560
C15   C     C_R   0.029862 0.532128 0.733025 0.054553
C16   C     C_3   0.121781 0.741735 0.194920 -0.372592
C17   C     C_R   0.082419 0.541166 0.807714 -0.051358
C18   C     C_R   0.154637 0.495626 0.070246 -0.010579
C19   C     C_R   0.213093 0.494374 0.141884 -0.016508
C20   C     C_R   0.112563 0.448249 0.188500 -0.051551
C21   C     C_R   0.965128 0.392424 0.156406 0.071703
C22   C     C_R   0.235673 0.588527 0.836254 -0.042998
C23   C     C_3   0.399078 0.248917 0.306432 0.346457
C24   C     C_R   0.294560 0.586477 0.906606 0.033290
C25   C     C_R   0.194836 0.542146 0.952611 0.005846
C26   C     C_R   0.254673 0.538780 0.023332 0.018955
C27   C     C_R   0.452966 0.627198 0.931454 -0.084791
C28   C     C_3   0.295772 0.756342 0.649914 0.314460
C29   C     C_R   0.513398 0.622160 0.000452 -0.092375
C30   C     C_R   0.415131 0.578350 0.046812 0.033751
C31   C     C_R   0.373767 0.537282 0.165737 -0.045874
C32   C     C_R   0.474250 0.575761 0.116764 -0.109421
C33   C     C_R   0.426826 0.544830 0.238854 0.015720
C34   C     C_3   0.345648 0.167861 0.242621 -0.185335
C35   C     C_R   0.313873 0.518338 0.288161 -0.208744
C36   C     C_R   0.162894 0.462249 0.264553 0.044816
C37   C     C_R   0.756094 0.237071 0.532099 -0.276004
C38   C     C_R   0.853217 0.177598 0.551236 0.010169
C39   C     C_R   0.796395 0.082555 0.537166 -0.129005
C40   C     C_3   0.393587 0.843785 0.696686 -0.323151
C41   C     C_R   0.639148 0.045604 0.504255 0.003063
C42   C     C_R   0.544807 0.108664 0.485506 -0.121937
C43   C     C_R   0.605560 0.202406 0.496526 0.070844
C44   C     C_R   0.422588 0.906920 0.449839 -0.133807
C45   C     C_3   0.060085 0.279904 0.727878 0.389782
C46   C     C_R   0.350651 0.815549 0.445911 0.009630
C47   C     C_R   0.585569 0.788309 0.510761 0.084387
C48   C     C_R   0.654516 0.881106 0.518301 -0.126472
C49   C     C_R   0.573218 0.943462 0.489484 0.003551
C50   C     C_R   0.431704 0.758016 0.478010 -0.276976
C51   C     C_3   0.922032 0.262636 0.378491 0.301992
C52   C     C_3   0.882575 0.158149 0.360844 -0.407623
C53   C     C_3   0.717614 0.690362 0.694640 0.332952
C54   C     C_3   0.621739 0.695023 0.761893 -0.362100
C55   C     C_3   0.890367 0.722881 0.719177 -0.307948
C56   C     C_3   0.061214 0.255494 0.802833 -0.378028
C57   C     C_3   0.472688 0.332667 0.276342 -0.330895
C58   C     C_3   0.270448 0.080345 0.267831 -0.377270
C59   C     C_3   0.420992 0.092092 0.675431 -0.367553
C60   C     C_3   0.912333 0.299310 0.175136 -0.375694
C61   C     C_3   0.357734 0.556966 0.366297 -0.258130
C62   C     C_3   0.185121 0.786844 0.597344 -0.317163
C63   C     C_3   0.596167 0.242673 0.733104 0.318291
C64   C     C_3   0.525127 0.145682 0.742381 -0.195682
C65   C     C_R   0.994397 0.456515 0.046191 -0.011900
H1    H     H_    0.722641 0.773304 0.360147 0.081132
H2    H     H_    0.639696 0.638542 0.790048 0.074604
H3    H     H_    0.494526 0.687858 0.745403 0.149084
H4    H     H_    0.530167 0.756171 0.308242 -0.058399
H5    H     H_    0.669982 0.916349 0.324017 0.073046
H6    H     H_    0.290842 0.263475 0.335288 0.076574
H7    H     H_    0.451697 0.153509 0.211409 0.106925
H8    H     H_    0.653341 0.860839 0.229580 0.108847
H9    H     H_    0.220197 0.799324 0.190716 0.105271
H10   H     H_    0.153712 0.341448 0.729080 0.098207
H11   H     H_    0.939639 0.296178 0.715068 -0.095969
H12   H     H_    0.476106 0.881379 0.663121 0.082589
H13   H     H_    0.181376 0.240357 0.817635 0.138300
H14   H     H_    0.035085 0.313717 0.843617 0.073405
H15   H     H_    0.967777 0.194410 0.803405 0.104123
H16   H     H_    0.695892 0.269736 0.775502 -0.029347
H17   H     H_    0.624353 0.108145 0.752249 0.064392
H18   H     H_    0.039383 0.657280 0.271264 0.096835
H19   H     H_    0.451582 0.149707 0.790521 0.118453
H20   H     H_    0.655110 0.337137 0.101007 0.067506
H21   H     H_    0.547659 0.352503 0.982702 0.069851
H22   H     H_    0.829743 0.481320 0.654490 0.070107
H23   H     H_    0.311329 0.889349 0.722064 0.095757
H24   H     H_    0.588648 0.397742 0.866856 0.100898
H25   H     H_    0.311624 0.626205 0.803919 0.099280
H26   H     H_    0.636704 0.653480 0.017872 0.071140
H27   H     H_    0.355019 0.947863 0.423536 0.068987
H28   H     H_    0.878484 0.039428 0.550743 0.077039
H29   H     H_    0.426373 0.087128 0.458690 0.073897
H30   H     H_    0.134676 0.680826 0.153326 0.077205
H31   H     H_    0.003078 0.761914 0.184266 0.144955
H32   H     H_    0.376995 0.714356 0.620083 0.058364
H33   H     H_    0.465781 0.829109 0.741649 0.122966
H34   H     H_    0.809327 0.290854 0.383996 0.059987
H35   H     H_    0.984504 0.128852 0.380566 0.099422
H36   H     H_    0.916759 0.798337 0.740526 0.115292
H37   H     H_    0.929706 0.686914 0.761164 0.053961
H38   H     H_    0.947623 0.707478 0.668167 0.124741
H39   H     H_    0.843722 0.878705 0.282186 0.149286
H40   H     H_    0.384019 0.349092 0.237999 0.019115
H41   H     H_    0.511698 0.391871 0.321265 0.110432
H42   H     H_    0.579340 0.319074 0.246246 0.105764
H43   H     H_    0.355376 0.060562 0.306347 0.143039
H44   H     H_    0.157665 0.090304 0.294427 0.119273
H45   H     H_    0.997696 0.284537 0.430283 0.055043
H46   H     H_    0.240487 0.023421 0.220124 0.112960
H47   H     H_    0.255755 0.185884 0.205291 0.066687
H48   H     H_    0.645010 0.239876 0.678537 -0.004052
H49   H     H_    0.498787 0.064666 0.633354 0.109194
H50   H     H_    0.338202 0.033859 0.689813 0.111078
H51   H     H_    0.347775 0.136358 0.652842 0.208552
H52   H     H_    0.018982 0.271913 0.192095 0.121702
H53   H     H_    0.823837 0.302445 0.216889 0.147646
H54   H     H_    0.855620 0.248138 0.127069 0.081743
H55   H     H_    0.530777 0.662490 0.897512 0.063004
H56   H     H_    0.858156 0.132954 0.301424 0.138546
H57   H     H_    0.598017 0.606755 0.132933 0.109448
H58   H     H_    0.254108 0.702914 0.280223 -0.058237
H59   H     H_    0.263711 0.568348 0.400510 0.158699
H60   H     H_    0.430017 0.514233 0.391466 0.141692
H61   H     H_    0.409784 0.629574 0.369775 0.037141
H62   H     H_    0.767567 0.903428 0.550010 0.078946
H63   H     H_    0.369605 0.691415 0.483183 0.046628
H64   H     H_    0.803122 0.309696 0.539334 0.057414
H65   H     H_    0.136166 0.726876 0.554640 0.148437
H66   H     H_    0.088128 0.817873 0.625478 0.118499
H67   H     H_    0.774002 0.132796 0.387388 0.084068
H68   H     H_    0.251454 0.842075 0.572987 0.053785
H69   H     H_    0.696553 0.617812 0.664764 0.043612
H70   H     H_    0.657362 0.761784 0.800053 0.087089
O1    O     O_2   0.871030 0.438240 0.324420 -0.455203
O2    O     O_2   0.185417 0.181769 0.544562 -0.483768
O3    O     O_3   0.094230 0.205626 0.677080 -0.600603
O4    O     O_3   0.120590 0.445310 0.413740 -0.502161
O5    O     O_3   0.582100 0.611510 0.537680 -0.490423
O6    O     O_2   0.334040 0.276520 0.462890 -0.463139
O7    O     O_3   0.517856 0.225550 0.350573 -0.654456
O8    O     O_2   0.434479 0.467024 0.756654 -0.490546
O9    O     O_3   0.476109 0.297950 0.742657 -0.588990
O10   O     O_3   0.663040 0.605930 0.370050 -0.484360
O11   O     O_2   0.758469 0.531616 0.242000 -0.483955
O12   O     O_3   0.676840 0.751914 0.652599 -0.649898
O13   O     O_3   0.003947 0.292425 0.321560 -0.656100
O14   O     O_3   0.714850 0.701260 0.254305 -0.606169
O15   O     O_2   0.855660 0.723510 0.537160 -0.480036
O16   O     O_3   0.086340 0.654970 0.406630 -0.507666
O17   O     O_2   0.020215 0.820956 0.455318 -0.477831
O18   O     O_3   0.102670 0.793808 0.321600 -0.596791
O19   O     O_2   0.318670 0.561790 0.675630 -0.463804
O20   O     O_3   0.069120 0.554770 0.586270 -0.496068
O21   O     O_3   0.526680 0.394150 0.629950 -0.453035
O22   O     O_3   0.204271 0.707969 0.695850 -0.650072
O23   O     O_3   0.607620 0.388570 0.462320 -0.480429
O24   O     O_3   0.103380 0.345110 0.593380 -0.482874
P1    P     P_3+3 0.038110 0.412300 0.335300 0.959063
P2    P     P_3+3 0.679950 0.711710 0.558590 0.964080
P3    P     P_3+3 0.140603 0.772520 0.408475 0.937903
P4    P     P_3+3 0.151600 0.587780 0.664700 0.951718
P5    P     P_3+3 0.059294 0.226619 0.589893 0.956708
P6    P     P_3+3 0.640484 0.594123 0.275151 0.941286
P7    P     P_3+3 0.513473 0.272925 0.443238 0.940728
P8    P     P_3+3 0.553231 0.405440 0.723406 0.951051

loop_
_geom_bond_atom_site_label_1
_geom_bond_atom_site_label_2
_ccdc_geom_bond_type
C55   H38   S    
C52   H56   S    
C28   C62   S    
C63   H48   S    
C12   H4    S    
C18   C65   A    
C53   C54   S    
C34   H47   S    
C5    C6    A    
C51   C52   S    
C24   C25   A    
C4    H18   S    
O7    P7    S    
O17   P3    D    
C33   C35   A    
C22   C24   A    
C56   H15   S    
C63   H16   S    
C19   C31   A    
C13   C14   A    
C20   C36   A    
C13   P8    S    
Ba1   O15   S    
Ba1   Ba2   S    
C7    C11   A    
Ba1   O5    S    
C31   C33   A    
C9    C13   A    
C59   C64   S    
C21   C60   S    
C62   H65   S    
C51   H34   S    
C6    C7    A    
C45   O3    S    
C33   P6    S    
O12   P2    S    
C16   H30   S    
C1    H8    S    
C38   P5    S    
C61   H61   S    
C56   H13   S    
C37   C43   A    
C62   H68   S    
C40   H12   S    
C19   C20   A    
Ba2   O6    S    
C39   C41   A    
C58   H46   S    
C55   H36   S    
C22   H25   S    
Ba2   O24   S    
C35   C61   S    
C53   O12   S    
O8    P8    D    
Ba1   O23   S    
C1    H39   S    
O3    P5    S    
C28   O22   S    
O13   P1    S    
C4    C16   S    
C44   C46   A    
O16   P3    S    
C59   H50   S    
O15   P2    D    
C26   C30   A    
Ba1   O4    S    
C56   H14   S    
O20   P4    S    
C37   C38   A    
C3    C5    A    
C2    C21   A    
C14   C15   A    
C18   C26   A    
C29   H26   S    
C36   P1    S    
C44   C49   A    
C57   H40   S    
O22   P4    S    
C14   H22   S    
C40   H23   S    
C30   C32   A    
C12   O14   S    
O2    P5    D    
C41   C42   A    
C7    C65   A    
C64   H19   S    
C35   C36   A    
C42   H29   S    
C48   H62   S    
C40   H33   S    
O24   P5    S    
C5    H21   S    
C44   H27   S    
C46   C50   A    
Ba2   O21   S    
C47   C50   A    
C27   H55   S    
C59   H49   S    
C48   C49   A    
O1    P1    D    
C10   C11   A    
Ba1   O16   S    
Ba2   P4    S    
C60   H52   S    
C1    C12   S    
O10   P6    S    
C51   H45   S    
C6    C8    A    
C38   C39   A    
Ba1   P1    S    
C47   C48   A    
C54   H3    S    
C53   C55   S    
C51   O13   S    
Ba2   O5    S    
Ba1   O10   S    
C23   O7    S    
C63   C64   S    
C45   H10   S    
C15   C17   A    
O5    P2    S    
C32   H57   S    
C42   C43   A    
O11   P6    D    
C55   H37   S    
C62   H66   S    
C34   H7    S    
Ba2   O19   S    
C59   H51   S    
C60   H53   S    
C52   H35   S    
C29   C30   A    
C28   C40   S    
C4    O18   S    
C4    H58   S    
C2    C3    A    
C34   C58   S    
C8    H24   S    
C2    C65   A    
C9    C10   A    
O21   P8    S    
C46   P3    S    
O18   P3    S    
C23   C57   S    
C57   H41   S    
C50   H63   S    
Ba1   O20   S    
C17   C22   A    
C27   C29   A    
C58   H44   S    
C15   P4    S    
C45   C56   S    
C54   H70   S    
C41   C49   S    
C39   H28   S    
C37   H64   S    
O19   P4    D    
Ba2   O20   S    
O14   P6    S    
C28   H32   S    
C10   C17   A    
C57   H42   S    
C31   C32   A    
C1    H5    S    
C23   H6    S    
O23   P7    S    
C43   P7    S    
O6    P7    D    
C47   P2    S    
C61   H59   S    
C58   H43   S    
C8    C9    A    
C23   C34   S    
C64   H17   S    
C3    H20   S    
O4    P1    S    
C18   C19   A    
Ba1   P2    S    
C24   C27   A    
Ba2   O23   S    
C54   H2    S    
O9    P8    S    
C25   C26   A    
Ba2   O4    S    
C12   H1    S    
C20   C21   A    
C11   C25   A    
C16   H31   S    
C45   H11   S    
C63   O9    S    
C60   H54   S    
C61   H60   S    
Ba1   O1    S    
C53   H69   S    
C16   H9    S    
C52   H67   S    
