data_mof_unit_57272.cif
_audit_creation_date              2012-12-10T18:14:25-0500
_audit_creation_method            fapswitch 2.2
_symmetry_space_group_name_H-M    P1
_symmetry_Int_Tables_number       1
_space_group_crystal_system       triclinic
_cell_length_a                    12.593483
_cell_length_b                    13.140876
_cell_length_c                    19.210893
_cell_angle_alpha                 90.697303
_cell_angle_beta                  102.676925
_cell_angle_gamma                 82.263295
_cell_volume                      3072.96920772

loop_
_atom_site_label
_atom_site_type_symbol
_atom_type_description
_atom_site_fract_x
_atom_site_fract_y
_atom_site_fract_z
_atom_type_partial_charge
C1    C     C_R   0.438700 0.691182 0.490456 0.854885
C2    C     C_R   0.507284 0.465082 0.146950 0.084598
C3    C     C_R   0.692447 0.065908 0.442691 -0.198218
C4    C     C_R   0.501150 0.499437 0.634331 0.868888
C5    C     C_R   0.596893 0.200531 0.501129 -0.044632
C6    C     C_R   0.307690 0.835707 0.515170 -0.192856
C7    C     C_R   0.284228 0.939082 0.529086 -0.166303
C8    C     C_R   0.355093 0.007172 0.518695 -0.181930
C9    C     C_R   0.449460 0.972961 0.491285 0.088921
C10   C     C_R   0.464667 0.870642 0.468730 0.077113
C11   C     C_R   0.529510 0.036493 0.485699 0.076510
C12   C     C_R   0.505377 0.493420 0.710526 -0.083325
C13   C     C_R   0.614888 0.001699 0.449929 0.173897
C14   C     C_R   0.620155 0.904414 0.420472 -0.246778
C15   C     C_R   0.545700 0.839742 0.429399 -0.202787
C16   C     C_R   0.561128 0.308905 0.507147 0.865567
C17   C     C_R   0.527368 0.133864 0.515032 -0.259613
C18   C     C_R   0.682307 0.166118 0.467194 -0.203274
C19   C     C_R   0.399766 0.800688 0.487375 -0.106712
C20   C     C_R   0.086068 0.352377 0.395707 0.398970
C21   C     C_R   0.800142 0.629268 0.584684 0.021204
C22   C     C_R   0.905274 0.656601 0.602801 -0.251521
C23   C     C_R   0.509604 0.459676 0.071481 0.287513
C24   C     C_R   0.986757 0.606904 0.571045 -0.198747
C25   C     C_R   0.963150 0.528953 0.520767 0.050465
C26   C     C_R   0.854609 0.504044 0.504261 0.244735
C27   C     C_R   0.042036 0.475912 0.485740 -0.069140
C28   C     C_R   0.499735 0.498247 0.365808 0.841043
C29   C     C_R   0.010020 0.401994 0.433136 0.070246
C30   C     C_R   0.902745 0.378710 0.418721 -0.269884
C31   C     C_R   0.827232 0.427639 0.454739 -0.240734
C32   C     C_R   0.151840 0.494083 0.500145 -0.083471
C33   C     C_R   0.192479 0.377014 0.411353 -0.100285
C34   C     C_R   0.514905 0.466474 0.932061 0.280222
C35   C     C_R   0.421039 0.455085 0.734471 -0.200272
C36   C     C_R   0.426651 0.445448 0.806840 -0.184381
C37   C     C_R   0.516425 0.474050 0.856595 0.046508
C38   C     C_R   0.601682 0.513632 0.832662 0.111291
C39   C     C_R   0.595180 0.522751 0.759759 -0.166591
C40   C     C_3   0.074725 0.185929 0.360451 0.056795
C41   C     C_3   0.185630 0.136125 0.346950 -0.357422
C42   C     C_3   0.191754 0.019459 0.342894 -0.910747
C43   C     C_R   0.407363 0.468492 0.168420 -0.160721
C44   C     C_R   0.404517 0.479995 0.239907 -0.190928
C45   C     C_R   0.501460 0.488840 0.290507 -0.032997
C46   C     C_R   0.601426 0.484649 0.269063 -0.202550
C47   C     C_R   0.604386 0.472398 0.197793 -0.158553
H1    H     H_    0.351083 0.431397 0.697390 0.164279
H2    H     H_    0.876648 0.321593 0.379850 0.182283
H3    H     H_    0.360572 0.414960 0.823959 0.156748
H4    H     H_    0.184201 0.547007 0.539821 0.140107
H5    H     H_    0.736360 0.667511 0.609155 0.140447
H6    H     H_    0.066554 0.631806 0.586483 0.135878
H7    H     H_    0.923540 0.716285 0.641190 0.154212
H8    H     H_    0.747495 0.404264 0.442389 0.209473
H9    H     H_    0.660518 0.553302 0.741772 0.165307
H10   H     H_    0.331381 0.462755 0.130064 0.152296
H11   H     H_    0.326549 0.482431 0.255405 0.161675
H12   H     H_    0.682618 0.877809 0.391114 0.151590
H13   H     H_    0.677598 0.490303 0.307247 0.166522
H14   H     H_    0.682444 0.470515 0.182521 0.156640
H15   H     H_    0.736534 0.217923 0.455846 0.142640
H16   H     H_    0.008278 0.146903 0.327745 0.178189
H17   H     H_    0.071185 0.173593 0.417303 0.110537
H18   H     H_    0.198109 0.166080 0.295881 0.244339
H19   H     H_    0.252881 0.155830 0.390794 0.204430
H20   H     H_    0.170139 0.987823 0.390432 0.271165
H21   H     H_    0.276353 0.985085 0.340433 0.271311
H22   H     H_    0.133902 0.997929 0.294277 0.260134
H23   H     H_    0.757451 0.040271 0.415164 0.133241
H24   H     H_    0.664396 0.601715 0.915058 0.198993
H25   H     H_    0.741448 0.485667 0.909597 0.208935
H26   H     H_    0.468342 0.162573 0.546012 0.144097
H27   H     H_    0.256554 0.782532 0.528984 0.151565
H28   H     H_    0.332091 0.086222 0.530903 0.128599
H29   H     H_    0.212754 0.966126 0.550223 0.142587
H30   H     H_    0.551830 0.765255 0.404817 0.169646
H31   H     H_    0.251848 0.343172 0.381792 0.149603
N1    N     N_R   0.609203 0.445716 0.982276 -0.186568
N2    N     N_R   0.606673 0.442805 0.050883 -0.178601
N3    N     N_R   0.415064 0.477895 0.021110 -0.177525
N4    N     N_R   0.417689 0.481058 0.952548 -0.172131
N5    N     N_R   0.222200 0.444680 0.463280 -0.126112
N6    N     N_R   0.776960 0.554780 0.536340 -0.131681
N7    N     N_3   0.693435 0.548534 0.880370 -0.466276
O1    O     O_R   0.366740 0.627160 0.482470 -0.608323
O2    O     O_R   0.544830 0.662520 0.505920 -0.613431
O3    O     O_R   0.410920 0.482320 0.590130 -0.620635
O4    O     O_R   0.589010 0.517690 0.613590 -0.620053
O5    O     O_R   0.455170 0.337480 0.494080 -0.612828
O6    O     O_R   0.633260 0.372840 0.517530 -0.631555
O7    O     O_R   0.410990 0.482310 0.386410 -0.613363
O8    O     O_R   0.589080 0.517680 0.409870 -0.643017
O9    O     O_3   0.053519 0.290413 0.338360 -0.647805
Zn1   Zn    Zn3+2 0.381090 0.476390 0.484340 0.937434
Zn2   Zn    Zn3+2 0.618910 0.523610 0.515660 0.931003

loop_
_geom_bond_atom_site_label_1
_geom_bond_atom_site_label_2
_ccdc_geom_bond_type
C1    O2    A    
C42   H21   S    
C16   O5    A    
C27   C29   A    
C34   C37   S    
C41   C42   S    
C35   C36   A    
H25   N7    S    
C7    C8    A    
C22   H7    S    
C15   H30   S    
C45   C46   A    
C14   H12   S    
C29   C30   A    
C40   H16   S    
C36   C37   A    
C10   C15   A    
C30   C31   A    
C33   H31   S    
C5    C17   A    
C3    C18   A    
N6    Zn2   S    
C5    C16   S    
O6    Zn2   S    
H24   N7    S    
C44   H11   S    
C8    C9    A    
C23   N2    A    
C4    C12   S    
C9    C10   A    
C10   C19   A    
C7    H29   S    
C3    C13   A    
O3    Zn1   S    
C26   C31   A    
C13   C14   A    
C17   H26   S    
C35   H1    S    
C6    H27   S    
C20   C29   A    
C28   C45   S    
C1    C19   S    
C38   N7    S    
O5    Zn1   S    
C3    H23   S    
C24   C25   A    
C43   H10   S    
C18   H15   S    
C41   H18   S    
C5    C18   A    
C24   H6    S    
O7    Zn1   S    
N3    N4    A    
C28   O8    A    
C43   C44   A    
C32   H4    S    
C37   C38   A    
C6    C19   A    
C34   N1    A    
C33   N5    A    
C39   H9    S    
C21   N6    A    
C2    C43   A    
N5    Zn1   S    
O2    Zn2   S    
C28   O7    A    
C12   C35   A    
C9    C11   A    
C6    C7    A    
C20   C33   A    
C40   C41   S    
C30   H2    S    
O8    Zn2   S    
C42   H20   S    
C22   C24   A    
C36   H3    S    
C44   C45   A    
C4    O4    A    
C1    O1    A    
C32   N5    A    
C20   O9    S    
C46   C47   A    
C11   C17   A    
C26   N6    A    
C23   N3    A    
C46   H13   S    
C27   C32   A    
C40   O9    S    
C47   H14   S    
C41   H19   S    
C4    O3    A    
C2    C47   A    
C25   C27   A    
C40   H17   S    
C12   C39   A    
C25   C26   A    
C11   C13   A    
C38   C39   A    
O4    Zn2   S    
C42   H22   S    
O1    Zn1   S    
C8    H28   S    
N1    N2    A    
C16   O6    A    
C2    C23   S    
C14   C15   A    
C34   N4    A    
C31   H8    S    
C21   C22   A    
C21   H5    S    
