data_mof_unit_29975.cif
_audit_creation_date              2012-12-10T17:57:49-0500
_audit_creation_method            fapswitch 2.2
_symmetry_space_group_name_H-M    P1
_symmetry_Int_Tables_number       1
_space_group_crystal_system       triclinic
_cell_length_a                    10.890615
_cell_length_b                    9.518677
_cell_length_c                    14.982542
_cell_angle_alpha                 89.998701
_cell_angle_beta                  90.837694
_cell_angle_gamma                 89.999437
_cell_volume                      1552.98792906

loop_
_atom_site_label
_atom_site_type_symbol
_atom_type_description
_atom_site_fract_x
_atom_site_fract_y
_atom_site_fract_z
_atom_type_partial_charge
C1    C     C_R   0.261992 0.499992 0.500200 0.807497
C2    C     C_R   0.738008 0.499991 0.499798 0.807502
C3    C     C_R   0.275271 0.446513 0.041468 -0.082426
C4    C     C_R   0.724735 0.446480 0.958534 -0.082431
C5    C     C_R   0.063690 0.372460 0.500054 -0.144303
C6    C     C_R   0.936312 0.627521 0.499929 -0.146642
C7    C     C_R   0.936311 0.372460 0.499903 -0.144339
C8    C     C_R   0.063687 0.627521 0.500105 -0.146670
C9    C     C_R   0.871883 0.499988 0.499808 -0.018309
C10   C     C_R   0.128117 0.499989 0.500189 -0.018310
C11   C     C_R   0.421304 0.074420 0.445563 -0.005927
C12   C     C_R   0.578699 0.925570 0.554435 -0.006282
C13   C     C_R   0.578696 0.074415 0.554437 -0.005931
C14   C     C_R   0.421301 0.925575 0.445564 -0.006285
C15   C     C_R   0.497220 0.499852 0.328875 0.847578
C16   C     C_R   0.502780 0.499849 0.671125 0.847583
C17   C     C_R   0.615577 0.506077 0.815994 0.107153
C18   C     C_R   0.384431 0.506113 0.184003 0.107212
C19   C     C_R   0.504747 0.497317 0.767735 -0.087390
C20   C     C_R   0.495258 0.497327 0.232265 -0.087399
C21   C     C_R   0.394713 0.472222 0.810257 -0.243791
C22   C     C_R   0.605289 0.472202 0.189746 -0.243811
C23   C     C_R   0.390289 0.465145 0.903387 0.068714
C24   C     C_R   0.609717 0.465128 0.096616 0.068688
C25   C     C_R   0.501532 0.470363 0.953068 0.028512
C26   C     C_R   0.498475 0.470365 0.046933 0.028505
C27   C     C_R   0.615877 0.475357 0.908707 0.042455
C28   C     C_R   0.384130 0.475381 0.091293 0.042464
C29   C     C_R   0.278310 0.443070 0.947318 -0.073562
C30   C     C_R   0.721695 0.443035 0.052686 -0.073559
Cu1   Cu    Cu3+1 0.500000 0.640660 0.500000 0.978360
Cu2   Cu    Cu3+1 0.500000 0.359340 0.500000 0.979584
H1    H     H_    0.312393 0.462759 0.769290 0.131607
H2    H     H_    0.687604 0.462717 0.230717 0.131593
H3    H     H_    0.111479 0.272663 0.500046 0.155583
H4    H     H_    0.888519 0.727315 0.499965 0.157659
H5    H     H_    0.888522 0.272663 0.499879 0.155584
H6    H     H_    0.111479 0.727316 0.500102 0.157657
H7    H     H_    0.358282 0.130534 0.401947 0.143531
H8    H     H_    0.641726 0.869451 0.598046 0.148407
H9    H     H_    0.641718 0.130525 0.598053 0.143535
H10   H     H_    0.358274 0.869460 0.401954 0.148414
N1    N     N_R   0.500000 0.852070 0.500000 -0.169409
N2    N     N_R   0.500000 0.147930 0.500000 -0.170616
O1    O     O_R   0.319640 0.618740 0.499990 -0.586078
O2    O     O_R   0.680360 0.381260 0.500010 -0.590159
O3    O     O_R   0.680360 0.618740 0.500010 -0.586078
O4    O     O_R   0.319640 0.381260 0.499990 -0.590161
O5    O     O_R   0.499970 0.618800 0.370260 -0.568555
O6    O     O_R   0.500030 0.381200 0.629740 -0.570924
O7    O     O_R   0.500030 0.618800 0.629740 -0.568558
O8    O     O_R   0.499970 0.381200 0.370260 -0.570933
I1    I     I_    0.769872 0.596633 0.748567 -0.371557
I2    I     I_    0.230153 0.596733 0.251412 -0.371507
C31   C     C_2   0.166551 0.405242 0.894791 0.315030
H11   H     H_    0.130158 0.476561 0.844470 0.081605
O9    O     O_2   0.117291 0.291419 0.905670 -0.469697
C32   C     C_2   0.833453 0.405190 0.105214 0.315075
H12   H     H_    0.869820 0.476473 0.155561 0.081623
O10   O     O_2   0.882739 0.291393 0.094305 -0.469719
C33   C     C_2   0.160754 0.403775 0.085619 0.550986
H13   H     H_    0.074253 0.448179 0.063240 0.048976
O11   O     O_2   0.162284 0.314999 0.144480 -0.478705
C34   C     C_2   0.839250 0.403721 0.914382 0.551036
H14   H     H_    0.925751 0.448159 0.936733 0.048967
O12   O     O_2   0.837716 0.314888 0.855556 -0.478653

loop_
_geom_bond_atom_site_label_1
_geom_bond_atom_site_label_2
_ccdc_geom_bond_type
C12   H8    S    
C31   H11   S    
C8    C10   A    
C1    O4    A    
C2    O3    A    
C25   C27   A    
C4    C34   S    
C26   C28   A    
Cu1   Cu2   S    
C16   O7    A    
C20   C22   A    
C14   H10   S    
Cu2   O6    S    
C34   H14   S    
C6    C9    A    
C31   O9    D    
Cu2   N2    S    
C11   N2    A    
Cu1   O3    S    
C15   O8    A    
C2    O2    A    
C11   H7    S    
Cu2   O4    S    
C1    O1    A    
C15   C20   S    
Cu1   N1    S    
C8    H6    S    
Cu1   O5    S    
C16   C19   S    
C23   C29   A    
C13   H9    S    
C3    C28   A    
C19   C21   A    
C6    H4    S    
C12   N1    A    
C18   C20   A    
C15   O5    A    
C21   C23   A    
C7    H5    S    
C33   H13   S    
C22   H2    S    
C11   C14   A    
C22   C24   A    
C32   H12   S    
C24   C30   A    
C21   H1    S    
C18   I2    S    
C3    C33   S    
C32   O10   D    
C17   C27   A    
C17   I1    S    
C5    C10   A    
C4    C27   A    
C18   C28   A    
C12   C13   A    
C5    C7    A    
C23   C25   A    
Cu1   O1    S    
Cu1   O7    S    
C7    C9    A    
Cu2   O8    S    
C3    C29   A    
C6    C8    A    
C29   C31   S    
C17   C19   A    
C25   C26   A    
C30   C32   S    
C2    C9    S    
Cu2   O2    S    
C5    H3    S    
C13   N2    A    
C4    C30   A    
C1    C10   S    
C24   C26   A    
C16   O6    A    
C14   N1    A    
C33   O11   D    
C34   O12   D    
