data_mof_unit_68117.cif
_audit_creation_date              2013-03-05T15:58:26-0500
_audit_creation_method            fapswitch 2.2
_symmetry_space_group_name_H-M    P1
_symmetry_Int_Tables_number       1
_space_group_crystal_system       triclinic
_cell_length_a                    7.29392
_cell_length_b                    14.025893
_cell_length_c                    16.376123
_cell_angle_alpha                 90.019654
_cell_angle_beta                  89.887612
_cell_angle_gamma                 89.951442
_cell_volume                      1675.33472945

loop_
_atom_site_label
_atom_site_type_symbol
_atom_site_description
_atom_site_fract_x
_atom_site_fract_y
_atom_site_fract_z
_atom_type_partial_charge
O1    O     O_R   0.388780 0.834790 0.412340 -0.584229
O2    O     O_R   0.111220 0.165210 0.912340 -0.585291
O3    O     O_R   0.888780 0.665210 0.587660 -0.581371
O4    O     O_R   0.611220 0.334790 0.087660 -0.581705
O5    O     O_R   0.059040 0.845930 0.587040 -0.615494
O6    O     O_R   0.440960 0.154070 0.087040 -0.608897
O7    O     O_R   0.559040 0.654070 0.412960 -0.602549
O8    O     O_R   0.940960 0.345930 0.912960 -0.602681
C1    C     C_R   0.226828 0.871045 0.612565 0.939723
C2    C     C_R   0.273112 0.129956 0.113380 0.933862
C3    C     C_R   0.726967 0.627309 0.388809 0.959861
C4    C     C_R   0.773112 0.372224 0.888407 0.961546
O9    O     O_R   0.059070 0.845930 0.412970 -0.610043
O10   O     O_R   0.440930 0.154070 0.912970 -0.608672
O11   O     O_R   0.559070 0.654070 0.587030 -0.621904
O12   O     O_R   0.940930 0.345930 0.087030 -0.621246
O13   O     O_R   0.888760 0.665210 0.412340 -0.590390
O14   O     O_R   0.611240 0.334790 0.912340 -0.588242
O15   O     O_R   0.388760 0.834790 0.587660 -0.573131
O16   O     O_R   0.111240 0.165210 0.087660 -0.581279
C5    C     C_R   0.229422 0.866223 0.383879 0.928019
C6    C     C_R   0.270823 0.132833 0.884486 0.926108
C7    C     C_R   0.728953 0.632650 0.615421 0.921686
C8    C     C_R   0.770844 0.367170 0.115519 0.923360
O17   O     O_3   0.222280 0.690700 0.500000 -0.294958
O18   O     O_3   0.277720 0.309300 0.000000 -0.293014
O19   O     O_3   0.722280 0.809300 0.500000 -0.283855
O20   O     O_3   0.777720 0.190700 0.000000 -0.286746
V1    V     V_3+5 0.947430 0.761000 0.500000 1.122532
V2    V     V_3+5 0.552570 0.239000 0.000000 1.123228
V3    V     V_3+5 0.447430 0.739000 0.500000 1.119223
V4    V     V_3+5 0.052570 0.261000 0.000000 1.114195
C9    C     C_3   0.941845 0.567865 0.729785 -0.396818
C10   C     C_3   0.557526 0.431618 0.230362 -0.398768
C11   C     C_3   0.441035 0.928545 0.265548 -0.365821
C12   C     C_3   0.058765 0.069755 0.768422 -0.326975
H1    H     H_    0.046768 0.542473 0.686229 0.165014
H2    H     H_    0.452662 0.457134 0.187031 0.164799
H3    H     H_    0.552350 0.947097 0.308328 0.157154
H4    H     H_    0.950192 0.047758 0.811499 0.152210
H5    H     H_    0.984605 0.642137 0.741338 0.157158
H6    H     H_    0.514729 0.357320 0.241852 0.156883
H7    H     H_    0.475215 0.855263 0.246450 0.172582
H8    H     H_    0.021231 0.143717 0.754533 0.177522
C13   C     C_3   0.952348 0.505518 0.809416 0.089062
C14   C     C_3   0.547102 0.493870 0.310149 0.090975
C15   C     C_3   0.450769 0.996609 0.189507 0.075218
C16   C     C_3   0.048997 0.004700 0.690332 0.065175
H9    H     H_    0.065931 0.453925 0.798664 0.144297
H10   H     H_    0.433616 0.545564 0.299714 0.145306
H11   H     H_    0.564708 0.047716 0.200958 0.147637
H12   H     H_    0.934930 0.953685 0.702034 0.135899
H13   H     H_    0.871045 0.348251 0.726737 0.195599
H14   H     H_    0.629759 0.651802 0.227593 0.199046
H15   H     H_    0.372300 0.152855 0.275851 0.196590
H16   H     H_    0.125601 0.847334 0.774608 0.195960
C17   C     C_3   0.700460 0.460077 0.666227 0.011727
C18   C     C_3   0.799115 0.539397 0.166651 0.009562
C19   C     C_3   0.208211 0.038532 0.335689 0.004637
C20   C     C_3   0.293242 0.959825 0.835221 -0.003060
C21   C     C_3   0.608248 0.597363 0.759697 -0.116273
C22   C     C_3   0.891041 0.401900 0.259708 -0.115534
C23   C     C_3   0.105396 0.904576 0.241601 -0.111790
C24   C     C_3   0.392349 0.095890 0.741147 -0.135326
C25   C     C_3   0.745850 0.566434 0.690203 -0.018462
C26   C     C_3   0.753583 0.433076 0.190481 -0.018207
C27   C     C_3   0.247901 0.932320 0.309134 -0.021166
C28   C     C_3   0.252777 0.066399 0.809914 -0.032551
H17   H     H_    0.469043 0.602428 0.732130 0.092462
H18   H     H_    0.030303 0.396788 0.231960 0.092443
H19   H     H_    0.967736 0.905260 0.271147 0.078456
H20   H     H_    0.530325 0.100809 0.769734 0.088158
C29   C     C_3   0.768336 0.446262 0.819041 -0.108976
C30   C     C_3   0.731320 0.552940 0.319604 -0.108442
C31   C     C_3   0.268535 0.055904 0.182837 -0.124170
C32   C     C_3   0.231766 0.944677 0.682236 -0.140509
C33   C     C_3   0.745989 0.390976 0.737830 -0.611094
C34   C     C_3   0.753774 0.608182 0.238551 -0.610004
C35   C     C_3   0.248064 0.109323 0.264831 -0.610814
C36   C     C_3   0.250963 0.890032 0.763775 -0.596853
C37   C     C_3   0.599751 0.515543 0.825503 0.538907
C38   C     C_3   0.899698 0.483546 0.325687 0.537789
C39   C     C_3   0.103424 0.985613 0.174685 0.537808
C40   C     C_3   0.401321 0.013329 0.675887 0.542402
H21   H     H_    0.473640 0.473310 0.813542 0.038836
H22   H     H_    0.026083 0.525638 0.313751 0.037908
H23   H     H_    0.975498 0.027727 0.182831 0.047424
H24   H     H_    0.527270 0.970854 0.688083 0.056413
H25   H     H_    0.548794 0.457433 0.658210 0.079977
H26   H     H_    0.950782 0.541972 0.158322 0.079998
H27   H     H_    0.057579 0.042523 0.347014 0.085091
H28   H     H_    0.444201 0.956004 0.845320 0.085327
H29   H     H_    0.637857 0.337088 0.742466 0.186291
H30   H     H_    0.863027 0.660906 0.243991 0.183981
H31   H     H_    0.137443 0.162079 0.261653 0.183279
H32   H     H_    0.359933 0.836327 0.760026 0.181403
C41   C     C_3   0.009121 0.567575 0.884768 -0.442156
C42   C     C_3   0.139578 0.519936 0.944832 -0.779452
H33   H     H_    0.064337 0.475762 0.989443 0.261819
H34   H     H_    0.245053 0.476673 0.913274 0.289789
H35   H     H_    0.207859 0.576474 0.980658 0.234395
H36   H     H_    0.081333 0.633093 0.864259 0.196756
H37   H     H_    0.889647 0.591554 0.920061 0.236041
C43   C     C_3   0.490219 0.431696 0.385447 -0.441221
C44   C     C_3   0.360759 0.479436 0.446060 -0.786432
H38   H     H_    0.436258 0.524768 0.489572 0.263405
H39   H     H_    0.253114 0.521415 0.414862 0.290736
H40   H     H_    0.295453 0.422934 0.483094 0.233988
H41   H     H_    0.417119 0.366483 0.364932 0.197219
H42   H     H_    0.609618 0.407282 0.420332 0.236668
C45   C     C_3   0.500359 0.943450 0.108748 -0.324713
C46   C     C_3   0.696828 0.909225 0.106034 -0.944315
H43   H     H_    0.782361 0.969837 0.085872 0.315517
H44   H     H_    0.741148 0.882714 0.166428 0.256104
H45   H     H_    0.710822 0.850614 0.060852 0.254577
H46   H     H_    0.412924 0.881781 0.097291 0.223746
H47   H     H_    0.482869 0.990330 0.055215 0.201021
C47   C     C_3   0.993244 0.056854 0.609661 -0.338541
C48   C     C_3   0.846319 0.133629 0.619199 -0.941319
H48   H     H_    0.740268 0.109670 0.662633 0.278703
H49   H     H_    0.906762 0.201745 0.640439 0.250137
H50   H     H_    0.782137 0.148131 0.559241 0.268582
H51   H     H_    0.111285 0.089108 0.578543 0.221305
H52   H     H_    0.937483 0.003742 0.566112 0.216790
C49   C     C_3   0.775497 0.422497 0.583806 -0.273403
C50   C     C_3   0.983801 0.414033 0.575623 -0.792611
H53   H     H_    0.042148 0.483935 0.557533 0.274872
H54   H     H_    0.052867 0.388876 0.631510 0.218473
H55   H     H_    0.015855 0.361130 0.527254 0.273409
H56   H     H_    0.714755 0.350922 0.572684 0.183766
H57   H     H_    0.725997 0.469562 0.534437 0.189052
C51   C     C_3   0.724027 0.577325 0.084465 -0.270342
C52   C     C_3   0.515717 0.585875 0.076609 -0.787700
H58   H     H_    0.457079 0.516008 0.058657 0.273239
H59   H     H_    0.446866 0.611254 0.132633 0.219696
H60   H     H_    0.483862 0.638623 0.028174 0.268695
H61   H     H_    0.784703 0.648983 0.073543 0.179981
H62   H     H_    0.773572 0.530498 0.034818 0.187890
C53   C     C_3   0.293044 0.072875 0.417267 -0.273386
C54   C     C_3   0.502776 0.075903 0.421804 -0.756664
H63   H     H_    0.558063 0.005066 0.439235 0.272115
H64   H     H_    0.567479 0.099542 0.364282 0.213028
H65   H     H_    0.543492 0.127718 0.469464 0.261272
H66   H     H_    0.240028 0.145804 0.430061 0.179225
H67   H     H_    0.242211 0.026557 0.467070 0.184578
C55   C     C_3   0.210519 0.923870 0.916881 -0.262750
C56   C     C_3   0.001016 0.919421 0.923201 -0.778917
H68   H     H_    0.944766 0.989984 0.941019 0.268048
H69   H     H_    0.934542 0.895049 0.866418 0.217726
H70   H     H_    0.963223 0.867581 0.971421 0.267070
H71   H     H_    0.265659 0.851184 0.928734 0.178949
H72   H     H_    0.260835 0.969775 0.966666 0.193445
C57   C     C_3   0.643853 0.696910 0.800862 -0.218625
C58   C     C_3   0.695167 0.780343 0.745101 -1.046614
H73   H     H_    0.837999 0.775452 0.722945 0.264862
H74   H     H_    0.602803 0.784674 0.692320 0.301804
H75   H     H_    0.684231 0.847989 0.779900 0.233557
H76   H     H_    0.517578 0.716950 0.834935 0.198995
H77   H     H_    0.752744 0.693282 0.846907 0.213339
C59   C     C_3   0.854974 0.302277 0.300667 -0.217162
C60   C     C_3   0.804308 0.219004 0.244661 -1.050755
H78   H     H_    0.661738 0.224004 0.222416 0.265149
H79   H     H_    0.897433 0.214876 0.191996 0.302180
H80   H     H_    0.814912 0.151209 0.279217 0.234574
H81   H     H_    0.980811 0.282195 0.334800 0.199844
H82   H     H_    0.745517 0.305756 0.346625 0.213211
C61   C     C_3   0.124703 0.802151 0.202341 -0.212178
C62   C     C_3   0.192402 0.719417 0.255736 -1.053502
H83   H     H_    0.337700 0.726016 0.273305 0.261656
H84   H     H_    0.109277 0.712277 0.311337 0.302219
H85   H     H_    0.181401 0.651872 0.220785 0.233167
H86   H     H_    0.989192 0.782320 0.177196 0.183986
H87   H     H_    0.213780 0.801321 0.148661 0.224300
C63   C     C_3   0.356978 0.195224 0.699118 -0.213235
C64   C     C_3   0.304479 0.279562 0.754013 -1.058915
H88   H     H_    0.161364 0.275661 0.775819 0.263134
H89   H     H_    0.395428 0.284472 0.807276 0.301250
H90   H     H_    0.315943 0.346735 0.718606 0.235947
H91   H     H_    0.482981 0.215412 0.665172 0.202507
H92   H     H_    0.248690 0.190524 0.652744 0.226040
F1    F     F_    0.580078 0.550796 0.903601 -0.770169
F2    F     F_    0.918940 0.448066 0.403626 -0.770380
F3    F     F_    0.100164 0.948400 0.096778 -0.775648
F4    F     F_    0.422416 0.047934 0.597580 -0.762845

loop_
_geom_bond_atom_site_label_1
_geom_bond_atom_site_label_2
_geom_bond_distance
_ccdc_geom_bond_type
O17   V3    1.777001 S    
C39   H23   1.111694 S    
O1    C5    1.328169 A    
C50   H53   1.109307 S    
O19   V1    1.775939 S    
C9    C13   1.572313 S    
C16   C32   1.581397 S    
O3    C7    1.331620 A    
C45   C46   1.511478 S    
C10   H6    1.104198 S    
C54   H65   1.107431 S    
C37   F1    1.378217 S    
C11   C15   1.570877 S    
C10   C26   1.571090 S    
C46   H44   1.105539 S    
C60   H78   1.104711 S    
C9    C25   1.570961 S    
C64   H89   1.099046 S    
O7    C3    1.339691 A    
C44   H39   1.106870 S    
C17   H25   1.114909 S    
C24   C28   1.572317 S    
C13   C29   1.586874 S    
C56   H69   1.103839 S    
C30   C38   1.569753 S    
C17   C49   1.547671 S    
C43   H41   1.111343 S    
O4    C8    1.331467 A    
C62   H84   1.097585 S    
C51   H62   1.105018 S    
O1    V3    2.012862 S    
O13   V1    2.012721 S    
C22   H18   1.114198 S    
O2    V4    2.011008 S    
C53   H66   1.112929 S    
C33   H29   1.095404 S    
C57   H76   1.111801 S    
O3    V1    2.012149 S    
C47   C48   1.526342 S    
C24   C40   1.576735 S    
C19   C27   1.578138 S    
C63   C64   1.533365 S    
C49   H56   1.112752 S    
C18   C26   1.577058 S    
C62   H85   1.109727 S    
C3    O13   1.351460 A    
C56   H68   1.109796 S    
C2    O16   1.347971 A    
C51   C52   1.529691 S    
O2    C6    1.329041 A    
C52   H60   1.109634 S    
C45   H46   1.091499 S    
C10   C14   1.572922 S    
C1    C32   1.539168 S    
C59   H82   1.097171 S    
C36   H32   1.096215 S    
C11   H7    1.102487 S    
C58   H74   1.098595 S    
C41   H36   1.111317 S    
C8    C26   1.541341 S    
C61   H87   1.092136 S    
C23   C61   1.579775 S    
C22   C38   1.575553 S    
O15   V3    2.011037 S    
O12   C8    1.357384 A    
C4    C29   1.539762 S    
C5    C27   1.541502 S    
C32   C40   1.571326 S    
C20   C55   1.550648 S    
O10   V2    2.029372 S    
C29   C37   1.569985 S    
C46   H43   1.105105 S    
C60   H79   1.098254 S    
C1    O15   1.347931 A    
C41   C42   1.523956 S    
C64   H90   1.109587 S    
O5    V1    2.029396 S    
C20   H28   1.115001 S    
C44   H40   1.105709 S    
C23   C27   1.568373 S    
O7    V3    2.026343 S    
C22   C26   1.576609 S    
O9    C5    1.360230 A    
O8    V4    2.029162 S    
C31   C39   1.562920 S    
C17   C33   1.557681 S    
C12   H4    1.103792 S    
C56   H70   1.108199 S    
C54   H63   1.109604 S    
C58   H75   1.109356 S    
C19   C53   1.550125 S    
C19   C35   1.554612 S    
C61   C62   1.535062 S    
O18   V4    1.777000 S    
C16   C47   1.564611 S    
C50   H55   1.109614 S    
C51   H61   1.112910 S    
C38   H22   1.112140 S    
C14   C43   1.566024 S    
C9    H1    1.103867 S    
C23   C39   1.579193 S    
C40   H24   1.112934 S    
C35   H31   1.095646 S    
C57   H77   1.097396 S    
H13   C33   1.105658 S    
O5    C1    1.341346 A    
H15   C35   1.108162 S    
C2    C31   1.540910 S    
C49   H57   1.104938 S    
C64   H88   1.104002 S    
C40   F4    1.379675 S    
O8    C4    1.340816 A    
C17   C25   1.577977 S    
C13   H9    1.113250 S    
C39   F3    1.378542 S    
C19   H27   1.115234 S    
C59   H81   1.111708 S    
C48   H48   1.102548 S    
C18   H26   1.114974 S    
C6    C28   1.541741 S    
C58   H73   1.104574 S    
C41   H37   1.097247 S    
C48   H49   1.108695 S    
C55   H72   1.102329 S    
C62   H83   1.102656 S    
O6    V2    2.027727 S    
C23   H19   1.113754 S    
C42   H34   1.106610 S    
C49   C50   1.529498 S    
C22   C59   1.572305 S    
C12   H8    1.096702 S    
C24   C63   1.575487 S    
C47   H52   1.109152 S    
C63   H92   1.098799 S    
C14   C30   1.586970 S    
C60   H80   1.109417 S    
C55   C56   1.532722 S    
O16   V4    2.012893 S    
C48   H50   1.107432 S    
O9    V1    2.027701 S    
C38   F2    1.377459 S    
C53   H67   1.106470 S    
C50   H54   1.103453 S    
C18   C51   1.548312 S    
C20   C36   1.556730 S    
C10   H2    1.103844 S    
C32   C36   1.546392 S    
C54   H64   1.103961 S    
C3    C30   1.540268 S    
C21   C57   1.572265 S    
C43   C44   1.523187 S    
O6    C2    1.340901 A    
C15   H11   1.114087 S    
C53   C54   1.532347 S    
C12   C28   1.571666 S    
O11   V3    2.029134 S    
C61   H86   1.107182 S    
O12   V4    2.026314 S    
C42   H35   1.105698 S    
C44   H38   1.103206 S    
C14   H10   1.113421 S    
H16   C36   1.107509 S    
C45   H47   1.103566 S    
C21   H17   1.114215 S    
C59   C60   1.530763 S    
C7    C25   1.542298 S    
O20   V2    1.775939 S    
C9    H5    1.104037 S    
C21   C37   1.575715 S    
C43   H42   1.097111 S    
O10   C6    1.359617 A    
C52   H58   1.109353 S    
C34   H30   1.091353 S    
C15   C45   1.559752 S    
C11   H3    1.104628 S    
O11   C7    1.357770 A    
C12   C16   1.572465 S    
C47   H51   1.097597 S    
C24   H20   1.112961 S    
O4    V2    2.012688 S    
C11   C27   1.578799 S    
C18   C34   1.556823 S    
O14   V2    2.012180 S    
C15   C31   1.571347 S    
C55   H71   1.112893 S    
C21   C25   1.576428 S    
C16   H12   1.114182 S    
C20   C28   1.579072 S    
C42   H33   1.103667 S    
C30   C34   1.545648 S    
C4    O14   1.350064 A    
C52   H59   1.103767 S    
C29   C33   1.548191 S    
C13   C41   1.566421 S    
C57   C58   1.530847 S    
C31   C35   1.544327 S    
C63   H91   1.110141 S    
C46   H45   1.110324 S    
C37   H21   1.112163 S    
H14   C34   1.106568 S    
