data_mof_unit_41690.cif
_audit_creation_date              2012-12-11T18:13:28-0500
_audit_creation_method            fapswitch 2.2
_symmetry_space_group_name_H-M    P1
_symmetry_Int_Tables_number       1
_space_group_crystal_system       triclinic
_cell_length_a                    8.246404
_cell_length_b                    12.696244
_cell_length_c                    18.724722
_cell_angle_alpha                 99.319792
_cell_angle_beta                  91.598182
_cell_angle_gamma                 97.779479
_cell_volume                      1914.27526841

loop_
_atom_site_label
_atom_site_type_symbol
_atom_type_description
_atom_site_fract_x
_atom_site_fract_y
_atom_site_fract_z
_atom_type_partial_charge
Ba1   Ba    Ba6+2 0.852780 0.548340 0.465070 1.676557
Ba2   Ba    Ba6+2 0.337060 0.451750 0.534940 1.719122
C1    C     C_3   0.667908 0.915200 0.253021 -0.349361
C2    C     C_R   0.890830 0.400797 0.095864 0.036156
C3    C     C_R   0.729963 0.354652 0.072381 -0.079476
C4    C     C_3   0.127527 0.761156 0.264574 0.409506
C5    C     C_R   0.668222 0.361354 0.003227 -0.092889
C6    C     C_R   0.767467 0.412105 0.955432 0.033180
C7    C     C_R   0.928853 0.459182 0.978210 0.012720
C8    C     C_R   0.708751 0.413541 0.884723 -0.094687
C9    C     C_R   0.811155 0.457105 0.834372 -0.083288
C10   C     C_R   0.971912 0.508206 0.857645 -0.006285
C11   C     C_R   0.029502 0.509501 0.930028 0.004767
C12   C     C_3   0.659544 0.820252 0.293619 0.330176
C13   C     C_R   0.761014 0.445323 0.760475 -0.025207
C14   C     C_R   0.874873 0.477520 0.710842 0.071415
C15   C     C_R   0.025016 0.542191 0.733669 0.027744
C16   C     C_3   0.115255 0.790977 0.189367 -0.354819
C17   C     C_R   0.075819 0.556691 0.808614 -0.090092
C18   C     C_R   0.150034 0.503067 0.072692 -0.006994
C19   C     C_R   0.208800 0.502498 0.144698 -0.005510
C20   C     C_R   0.106935 0.451087 0.193039 -0.049948
C21   C     C_R   0.952529 0.394825 0.165650 -0.039860
C22   C     C_R   0.230759 0.612404 0.835572 -0.037180
C23   C     C_3   0.461808 0.298022 0.314937 0.340973
C24   C     C_R   0.290387 0.609362 0.906166 0.036657
C25   C     C_R   0.189928 0.557480 0.953550 0.006821
C26   C     C_R   0.250417 0.553757 0.024587 0.013135
C27   C     C_R   0.451377 0.655254 0.929591 -0.085577
C28   C     C_3   0.238948 0.786592 0.620624 0.269012
C29   C     C_R   0.512075 0.649898 0.999164 -0.089515
C30   C     C_R   0.412085 0.600183 0.047194 0.031019
C31   C     C_R   0.369879 0.552839 0.167822 -0.041488
C32   C     C_R   0.471315 0.597662 0.117621 -0.111445
C33   C     C_R   0.423786 0.558313 0.240775 -0.009716
C34   C     C_3   0.433896 0.266910 0.233120 -0.363713
C35   C     C_R   0.316853 0.517329 0.289781 -0.298219
C36   C     C_R   0.162022 0.459770 0.267176 0.043180
C37   C     C_R   0.767002 0.175878 0.515742 -0.283975
C38   C     C_R   0.423479 0.807441 0.472656 -0.343665
C39   C     C_R   0.414766 0.972485 0.426743 0.275587
C40   C     C_3   0.242551 0.908173 0.634020 -0.328431
C41   C     C_R   0.338693 0.871606 0.436203 0.006681
C42   C     C_R   0.575378 0.847715 0.508520 0.052290
C43   C     C_R   0.641985 0.957917 0.510678 -0.091569
C44   C     C_R   0.558810 0.022291 0.469671 -0.083355
C45   C     C_3   0.059820 0.234729 0.730875 0.344465
C46   C     C_R   0.621501 0.133710 0.475565 0.038592
C47   C     C_R   0.856207 0.112663 0.550529 -0.000524
C48   C     C_R   0.790564 0.005001 0.550806 -0.079320
C49   C     C_3   0.941529 0.210835 0.373580 0.266354
C50   C     C_3   0.967104 0.093426 0.367206 -0.306823
C51   C     C_3   0.725821 0.705138 0.682644 0.310270
C52   C     C_3   0.749749 0.742441 0.764160 -0.420856
C53   C     C_3   0.079706 0.209824 0.807115 -0.380945
C54   C     C_3   0.556018 0.178629 0.698242 0.313167
C55   C     C_3   0.605787 0.093404 0.739489 -0.420601
C56   C     C_R   0.989773 0.454895 0.049097 0.004222
Cl1   Cl    Cl    0.838596 0.424003 0.619246 -0.694564
Cl2   Cl    Cl    0.351342 0.011276 0.345862 -0.752648
H1    H     H_    0.740292 0.843474 0.343766 0.084651
H2    H     H_    0.839444 0.676958 0.661801 0.035036
H3    H     H_    0.622450 0.637902 0.672110 0.080741
H4    H     H_    0.656277 0.990146 0.290931 0.133195
H5    H     H_    0.857495 0.806563 0.776553 0.131964
H6    H     H_    0.770327 0.673918 0.791630 0.049336
H7    H     H_    0.638627 0.775011 0.785462 0.119886
H8    H     H_    0.531076 0.800626 0.308849 -0.027504
H9    H     H_    0.567322 0.900186 0.210350 0.127104
H10   H     H_    0.347657 0.320537 0.338677 0.011720
H11   H     H_    0.561571 0.367190 0.327137 0.045750
H12   H     H_    0.312819 0.943876 0.685409 0.116856
H13   H     H_    0.322892 0.205496 0.219926 0.144270
H14   H     H_    0.541870 0.232561 0.209799 0.116246
H15   H     H_    0.786752 0.926378 0.226892 0.121249
H16   H     H_    0.165467 0.730880 0.149418 0.061678
H17   H     H_    0.146786 0.308265 0.727151 0.097983
H18   H     H_    0.932315 0.250404 0.722013 -0.036405
H19   H     H_    0.208532 0.199044 0.818794 0.151038
H20   H     H_    0.047421 0.277309 0.847174 0.075087
H21   H     H_    0.998260 0.134785 0.812595 0.114071
H22   H     H_    0.665885 0.211331 0.671446 -0.006486
H23   H     H_    0.301104 0.943742 0.589203 0.067067
H24   H     H_    0.461078 0.140109 0.655380 0.079322
H25   H     H_    0.647561 0.027244 0.701372 0.095960
H26   H     H_    0.051478 0.681765 0.264071 0.059967
H27   H     H_    0.500788 0.059961 0.768703 0.132991
H28   H     H_    0.651138 0.313989 0.107724 0.063149
H29   H     H_    0.543413 0.325152 0.986682 0.071653
H30   H     H_    0.584505 0.376361 0.869033 0.107058
H31   H     H_    0.875848 0.348664 0.198727 0.097199
H32   H     H_    0.309887 0.654907 0.801412 0.092331
H33   H     H_    0.531237 0.694306 0.893796 0.062692
H34   H     H_    0.115722 0.927829 0.637947 0.141349
H35   H     H_    0.637174 0.685514 0.015626 0.071546
H36   H     H_    0.596589 0.632677 0.132585 0.115290
H37   H     H_    0.257860 0.754767 0.277110 -0.058224
H38   H     H_    0.359248 0.524345 0.345778 0.064795
H39   H     H_    0.857458 0.959498 0.582133 0.099231
H40   H     H_    0.816563 0.258631 0.516281 0.120413
H41   H     H_    0.368183 0.725822 0.474735 0.071435
H42   H     H_    0.985225 0.792654 0.173095 0.134850
H43   H     H_    0.186920 0.871596 0.189095 0.148074
H44   H     H_    0.364704 0.767845 0.612728 0.006827
H45   H     H_    0.809444 0.215216 0.368720 0.017488
H46   H     H_    0.159134 0.753118 0.571219 0.064119
H47   H     H_    0.416834 0.338109 0.207933 0.043434
H48   H     H_    0.706881 0.130023 0.779796 0.115131
H49   H     H_    0.995539 0.253293 0.427222 0.047580
H50   H     H_    0.962537 0.054898 0.309366 0.155309
H51   H     H_    0.872897 0.047580 0.396118 0.054303
H52   H     H_    0.088698 0.089949 0.392886 0.189645
O1    O     O_2   0.873090 0.425890 0.325140 -0.473454
O2    O     O_2   0.196147 0.120878 0.550590 -0.487405
O3    O     O_3   0.093965 0.146690 0.680544 -0.608267
O4    O     O_3   0.122420 0.434370 0.414380 -0.482139
O5    O     O_3   0.578370 0.633800 0.536380 -0.477038
O6    O     O_2   0.341510 0.231850 0.465510 -0.443098
O7    O     O_3   0.505655 0.208770 0.341423 -0.584045
O8    O     O_2   0.420341 0.452880 0.757413 -0.503930
O9    O     O_3   0.489615 0.256467 0.746652 -0.605249
O10   O     O_3   0.659500 0.627100 0.368810 -0.478553
O11   O     O_2   0.753050 0.534765 0.243171 -0.488034
O12   O     O_3   0.691566 0.792259 0.650452 -0.647234
O13   O     O_3   0.015399 0.253950 0.316642 -0.636303
O14   O     O_3   0.715069 0.734304 0.248597 -0.606097
O15   O     O_2   0.848200 0.768190 0.534530 -0.468078
O16   O     O_3   0.081160 0.685950 0.404810 -0.495747
O17   O     O_2   0.003922 0.878641 0.451336 -0.485028
O18   O     O_3   0.069994 0.840732 0.314778 -0.553627
O19   O     O_2   0.316610 0.574140 0.674900 -0.479836
O20   O     O_3   0.067290 0.565720 0.585630 -0.421141
O21   O     O_3   0.530210 0.372990 0.631200 -0.399955
O22   O     O_3   0.179969 0.746334 0.681545 -0.648266
O23   O     O_3   0.611340 0.366290 0.463630 -0.455365
O24   O     O_3   0.108550 0.314140 0.595200 -0.432646
P1    P     P_3+3 0.041040 0.394770 0.336330 0.981238
P2    P     P_3+3 0.672880 0.754030 0.556100 0.982234
P3    P     P_3+3 0.124771 0.821859 0.402345 1.003446
P4    P     P_3+3 0.148670 0.605320 0.663680 1.020307
P5    P     P_3+3 0.061452 0.173825 0.592868 0.971978
P6    P     P_3+3 0.635849 0.612697 0.275093 0.936829
P7    P     P_3+3 0.519377 0.232774 0.436215 1.022598
P8    P     P_3+3 0.550271 0.384526 0.725088 0.991233

loop_
_geom_bond_atom_site_label_1
_geom_bond_atom_site_label_2
_ccdc_geom_bond_type
O3    P5    S    
O7    P7    S    
O5    P2    S    
O8    P8    D    
Ba1   O16   S    
C4    O18   S    
Ba1   O20   S    
Ba2   O6    S    
C5    C6    A    
C52   H5    S    
C1    H4    S    
C45   O3    S    
C48   H39   S    
C35   C36   A    
O12   P2    S    
C1    H9    S    
O16   P3    S    
C32   H36   S    
C7    C56   A    
O22   P4    S    
C19   C31   A    
C50   H52   S    
C2    C56   A    
C13   C14   A    
C20   C36   A    
C22   H32   S    
C54   C55   S    
O11   P6    D    
Ba1   Ba2   S    
C16   H42   S    
C7    C11   A    
Ba1   O10   S    
O19   P4    D    
C31   C33   A    
C38   H41   S    
C3    H28   S    
Ba2   O4    S    
C38   C41   A    
C6    C7    A    
C28   O22   S    
C47   P5    S    
Ba2   O20   S    
C39   C44   A    
C41   P3    S    
C23   H11   S    
O15   P2    D    
C53   H21   S    
C1    H15   S    
O23   P7    S    
C49   H49   S    
C19   C20   A    
C28   H46   S    
C34   H47   S    
C39   C41   A    
O9    P8    S    
Ba1   O1    S    
O18   P3    S    
C23   O7    S    
C35   H38   S    
Ba2   O5    S    
C33   P6    S    
C54   H24   S    
C4    C16   S    
C44   C46   A    
Ba2   O21   S    
Ba2   O19   S    
C49   C50   S    
C49   O13   S    
C4    H37   S    
C26   C30   A    
O6    P7    D    
C8    C9    A    
C3    C5    A    
C2    C21   A    
C14   C15   A    
C52   H7    S    
C18   C26   A    
C50   H51   S    
O13   P1    S    
C51   C52   S    
C12   H1    S    
O14   P6    S    
Ba2   O24   S    
C55   H27   S    
C46   P7    S    
C14   Cl1   S    
C30   C32   A    
O2    P5    D    
O24   P5    S    
C53   H19   S    
C51   H2    S    
C29   C30   A    
O17   P3    D    
C50   H50   S    
C49   H45   S    
C40   H12   S    
C31   C32   A    
C24   C25   A    
Ba1   O5    S    
C10   C11   A    
C1    C12   S    
C34   H14   S    
C37   C47   A    
C9    C13   A    
C21   H31   S    
O10   P6    S    
C18   C56   A    
Ba1   P1    S    
C42   C43   A    
C45   C53   S    
O4    P1    S    
Ba1   O4    S    
O21   P8    S    
C42   P2    S    
C33   C35   A    
C40   H34   S    
C28   C40   S    
C40   H23   S    
Ba1   O15   S    
C39   Cl2   S    
C22   C24   A    
C2    C3    A    
C51   O12   S    
C12   O14   S    
C9    C10   A    
C54   H22   S    
C52   H6    S    
O20   P4    S    
Ba2   O23   S    
C4    H26   S    
Ba2   P4    S    
C54   O9    S    
C17   C22   A    
C27   C29   A    
C27   H33   S    
C53   H20   S    
C51   H3    S    
C37   H40   S    
C43   C48   A    
C29   H35   S    
C10   C17   A    
C15   C17   A    
C36   P1    S    
C55   H25   S    
C15   P4    S    
O1    P1    D    
C16   H43   S    
C12   H8    S    
C34   H13   S    
C23   C34   S    
C13   P8    S    
C43   C44   A    
C38   C42   A    
C55   H48   S    
C18   C19   A    
C8    H30   S    
C24   C27   A    
C6    C8    A    
C47   C48   A    
C28   H44   S    
C25   C26   A    
C45   H17   S    
C20   C21   A    
C11   C25   A    
C23   H10   S    
C45   H18   S    
Ba1   O23   S    
Ba1   P2    S    
C16   H16   S    
C37   C46   A    
C5    H29   S    
