data_mof_unit_32888.cif
_audit_creation_date              2012-12-10T18:33:37-0500
_audit_creation_method            fapswitch 2.2
_symmetry_space_group_name_H-M    P1
_symmetry_Int_Tables_number       1
_space_group_crystal_system       triclinic
_cell_length_a                    10.51629
_cell_length_b                    14.996079
_cell_length_c                    15.411211
_cell_angle_alpha                 82.479592
_cell_angle_beta                  89.278602
_cell_angle_gamma                 104.178137
_cell_volume                      2333.57316029

loop_
_atom_site_label
_atom_site_type_symbol
_atom_type_description
_atom_site_fract_x
_atom_site_fract_y
_atom_site_fract_z
_atom_type_partial_charge
C1    C     C_R   0.484742 0.442027 0.662231 0.871967
C2    C     C_R   0.521771 0.558192 0.337725 0.871837
C3    C     C_R   0.516895 0.473060 0.812384 -0.272205
C4    C     C_R   0.565962 0.532844 0.187876 -0.276538
C5    C     C_R   0.562507 0.454451 0.895352 0.059869
C6    C     C_R   0.595585 0.562788 0.098886 0.061198
C7    C     C_R   0.573893 0.363150 0.925013 0.091989
C8    C     C_R   0.606588 0.657753 0.066304 0.091110
C9    C     C_R   0.590766 0.524319 0.950663 0.092755
C10   C     C_R   0.601946 0.498106 0.040697 0.089834
C11   C     C_R   0.616815 0.407843 0.069436 -0.235764
C12   C     C_R   0.608164 0.619489 0.918722 -0.233412
C13   C     C_R   0.606729 0.342510 0.011895 -0.231242
C14   C     C_R   0.618798 0.685171 0.975576 -0.232587
C15   C     C_R   0.685993 0.840235 0.642396 -0.319584
C16   C     C_R   0.310799 0.158869 0.359619 -0.317558
C17   C     C_R   0.657410 0.752076 0.617813 0.022582
C18   C     C_R   0.340966 0.247459 0.383178 0.024499
C19   C     C_R   0.516634 0.794364 0.509305 -0.066246
C20   C     C_R   0.483277 0.205647 0.490854 -0.066306
C21   C     C_R   0.541379 0.885341 0.530990 -0.002988
C22   C     C_R   0.456384 0.114098 0.470517 -0.002806
C23   C     C_R   0.742225 0.500515 0.499789 0.873772
C24   C     C_R   0.257692 0.499415 0.500377 0.876344
C25   C     C_R   0.628030 0.907216 0.599314 0.182203
C26   C     C_R   0.368576 0.091890 0.402876 0.179632
C27   C     C_R   0.483248 0.954360 0.487954 0.081870
C28   C     C_R   0.513597 0.044850 0.514131 0.082729
C29   C     C_R   0.599639 0.062992 0.583088 -0.242120
C30   C     C_R   0.395755 0.935841 0.419840 -0.241244
C31   C     C_R   0.655693 0.995370 0.624526 -0.206061
C32   C     C_R   0.339369 0.003344 0.378595 -0.207051
C33   C     C_3   0.929625 0.417913 0.478497 -0.178044
C34   C     C_3   0.070074 0.581969 0.521847 -0.177948
C35   C     C_3   0.014641 0.431296 0.558150 0.275629
C36   C     C_3   0.984995 0.568561 0.442212 0.274573
C37   C     C_3   0.122791 0.499623 0.500156 -0.078187
C38   C     C_3   0.876971 0.500223 0.500199 -0.075835
C39   C     C_3   0.039704 0.488197 0.419135 -0.268705
C40   C     C_3   0.959973 0.511688 0.581201 -0.266147
C41   C     C_R   0.500686 0.408832 0.753886 -0.109988
C42   C     C_R   0.551396 0.594336 0.245034 -0.113079
C43   C     C_R   0.553208 0.295267 0.866920 0.219814
C44   C     C_R   0.599424 0.722271 0.124728 0.222196
C45   C     C_R   0.518664 0.320083 0.780584 -0.232055
C46   C     C_R   0.571259 0.688954 0.214335 -0.227007
H1    H     H_    0.549535 0.230096 0.540047 0.124512
H2    H     H_    0.452067 0.770343 0.459126 0.125315
H3    H     H_    0.297414 0.300163 0.350232 0.135229
H4    H     H_    0.700683 0.699277 0.650895 0.132610
H5    H     H_    0.752193 0.855792 0.694785 0.142353
H6    H     H_    0.243360 0.142926 0.307965 0.144306
H7    H     H_    0.625774 0.128833 0.607418 0.133038
H8    H     H_    0.368004 0.869608 0.396389 0.133190
H9    H     H_    0.869507 0.350864 0.462148 0.157266
H10   H     H_    0.130170 0.649017 0.538212 0.158073
H11   H     H_    0.076366 0.480302 0.353408 0.147983
H12   H     H_    0.923162 0.519591 0.646892 0.150510
H13   H     H_    0.621259 0.275061 0.036998 0.156435
H14   H     H_    0.629143 0.756696 0.947364 0.155265
H15   H     H_    0.547183 0.460119 0.213287 0.169411
H16   H     H_    0.492746 0.538344 0.791967 0.167520
H17   H     H_    0.564006 0.735940 0.260667 0.171142
H18   H     H_    0.506220 0.271209 0.733747 0.169587
H19   H     H_    0.640919 0.387136 0.135727 0.148202
H20   H     H_    0.616773 0.645217 0.849518 0.144978
H21   H     H_    0.721192 0.012297 0.677051 0.145086
H22   H     H_    0.272543 0.986060 0.326841 0.144038
N1    N     N_R   0.574200 0.731700 0.552740 -0.098771
N2    N     N_R   0.425800 0.268300 0.447260 -0.100072
O1    O     O_R   0.462600 0.383110 0.605620 -0.617561
O2    O     O_R   0.537400 0.616890 0.394380 -0.619048
O3    O     O_R   0.510210 0.531900 0.639510 -0.622992
O4    O     O_R   0.489790 0.468100 0.360490 -0.624057
O5    O     O_R   0.662240 0.425610 0.483080 -0.630082
O6    O     O_R   0.337760 0.574390 0.516920 -0.627174
O7    O     O_R   0.709860 0.574400 0.516970 -0.606771
O8    O     O_R   0.290140 0.425600 0.483030 -0.606064
Zn1   Zn    Zn3+2 0.468210 0.400660 0.477370 0.937599
Zn2   Zn    Zn3+2 0.531790 0.599340 0.522630 0.938815
N3    N     N_2   0.037037 0.356880 0.621103 -0.289432
H23   H     H_    0.109967 0.379452 0.663035 0.216777
C47   C     C_3   0.919503 0.296566 0.665944 -0.798605
H24   H     H_    0.945685 0.239404 0.709585 0.242534
H25   H     H_    0.850152 0.265356 0.618002 0.239804
H26   H     H_    0.870844 0.336039 0.706286 0.236807
N4    N     N_2   0.961652 0.642770 0.379406 -0.290499
H27   H     H_    0.889288 0.619849 0.337194 0.218458
C48   C     C_3   0.078661 0.704251 0.335110 -0.793322
H28   H     H_    0.051479 0.761013 0.291449 0.241063
H29   H     H_    0.128878 0.665594 0.294883 0.232156
H30   H     H_    0.146872 0.735932 0.383427 0.240558
N5    N     N_2   0.567536 0.203765 0.896411 -0.310173
H31   H     H_    0.507978 0.169503 0.950292 0.219320
C49   C     C_3   0.587614 0.144601 0.833067 -0.811994
H32   H     H_    0.617144 0.083460 0.867292 0.244015
H33   H     H_    0.667402 0.182622 0.784154 0.246278
H34   H     H_    0.495216 0.119335 0.799788 0.240004
N6    N     N_2   0.619472 0.818909 0.091976 -0.311693
H35   H     H_    0.704983 0.847378 0.054201 0.217187
C50   C     C_3   0.582892 0.881307 0.146283 -0.802168
H36   H     H_    0.589714 0.949573 0.106145 0.242056
H37   H     H_    0.650700 0.892194 0.200770 0.238054
H38   H     H_    0.479876 0.853328 0.172484 0.247249

loop_
_geom_bond_atom_site_label_1
_geom_bond_atom_site_label_2
_ccdc_geom_bond_type
C18   N2    A    
C38   C40   S    
N4    H27   S    
C17   N1    A    
N5    H31   S    
C34   C37   S    
C49   H32   S    
O1    Zn1   S    
N3    H23   S    
C35   N3    S    
C49   H34   S    
C34   H10   S    
C30   H8    S    
C1    O1    A    
C4    C42   A    
C34   C40   S    
C28   C29   A    
C35   C37   S    
C44   N6    S    
O7    Zn2   S    
C39   H11   S    
C42   C46   A    
C43   N5    S    
N6    H35   S    
C7    C43   A    
C48   H29   S    
C9    C10   A    
C2    O4    A    
C32   H22   S    
C21   C27   A    
C50   H37   S    
C22   C28   A    
C27   C30   A    
C20   N2    A    
C2    O2    A    
N3    C47   S    
C44   C46   A    
C36   N4    S    
C16   C26   A    
C40   H12   S    
C50   H36   S    
C16   H6    S    
C4    C6    A    
C23   O5    A    
C5    C7    A    
O8    Zn1   S    
C24   O6    A    
C6    C8    A    
C12   H20   S    
C4    H15   S    
O2    Zn2   S    
C31   H21   S    
C5    C9    A    
C47   H24   S    
C29   C31   A    
C24   C37   S    
C33   H9    S    
C16   C18   A    
C33   C39   S    
C23   O7    A    
C48   H30   S    
C43   C45   A    
C13   H13   S    
C24   O8    A    
N6    C50   S    
C20   C22   A    
C50   H38   S    
C15   H5    S    
O4    Zn1   S    
N4    C48   S    
C19   N1    A    
O6    Zn2   S    
C3    H16   S    
C1    C41   S    
C15   C17   A    
C21   C25   A    
C3    C41   A    
C8    C14   A    
C47   H25   S    
N2    Zn1   S    
C19   H2    S    
C25   C31   A    
C36   C39   S    
C8    C44   A    
C12   C14   A    
C3    C5    A    
C17   H4    S    
C6    C10   A    
C49   H33   S    
C26   C32   A    
C23   C38   S    
C14   H14   S    
C45   H18   S    
C33   C38   S    
C46   H17   S    
C1    O3    A    
C36   C38   S    
C35   C40   S    
C37   C39   S    
C30   C32   A    
C11   C13   A    
C29   H7    S    
C2    C42   S    
C33   C35   S    
O3    Zn2   S    
C34   C36   S    
C9    C12   A    
C20   H1    S    
C15   C25   A    
C10   C11   A    
C7    C13   A    
C47   H26   S    
N5    C49   S    
C22   C26   A    
C27   C28   A    
C41   C45   A    
N1    Zn2   S    
C48   H28   S    
O5    Zn1   S    
C11   H19   S    
C18   H3    S    
C19   C21   A    
