data_mof_unit_64354.cif
_audit_creation_date              2012-10-26T17:55:13-0400
_audit_creation_method            fapswitch 2.2
_symmetry_space_group_name_H-M    P1
_symmetry_Int_Tables_number       1
_space_group_crystal_system       triclinic
_cell_length_a                    21.749636
_cell_length_b                    21.749641
_cell_length_c                    29.358735
_cell_angle_alpha                 89.999294
_cell_angle_beta                  90.000176
_cell_angle_gamma                 89.999956
_cell_volume                      13888.0549052

loop_
_atom_site_label
_atom_site_type_symbol
_atom_type_description
_atom_site_fract_x
_atom_site_fract_y
_atom_site_fract_z
_atom_type_partial_charge
C1    C     C_R   0.381466 0.000007 0.000392 0.550462
C2    C     C_R   0.120278 0.000146 0.999889 0.553914
C3    C     C_R   0.133277 0.137626 0.860732 -0.111442
C4    C     C_R   0.138653 0.073835 0.856564 -0.111425
C5    C     C_R   0.167318 0.039763 0.890903 -0.056083
C6    C     C_R   0.930675 0.189828 0.930049 0.044384
C7    C     C_R   0.866453 0.185720 0.933511 -0.103031
C8    C     C_R   0.832471 0.156941 0.899158 -0.112395
C9    C     C_R   0.862275 0.133300 0.860776 -0.111432
C10   C     C_R   0.926069 0.138625 0.856600 -0.111421
C11   C     C_R   0.960169 0.167280 0.890927 -0.056044
C12   C     C_R   0.810176 0.930666 0.930060 0.044399
C13   C     C_R   0.999859 0.120278 0.999888 0.553862
C14   C     C_R   0.814318 0.866448 0.933535 -0.103010
C15   C     C_R   0.843095 0.832467 0.899181 -0.112397
C16   C     C_R   0.866702 0.862270 0.860785 -0.111430
C17   C     C_R   0.861345 0.926060 0.856599 -0.111420
C18   C     C_R   0.832691 0.960159 0.890927 -0.056060
C19   C     C_R   0.069313 0.810177 0.930047 0.044438
C20   C     C_R   0.133530 0.814342 0.933515 -0.102926
C21   C     C_R   0.167495 0.843124 0.899154 -0.112406
C22   C     C_R   0.137678 0.866710 0.860758 -0.111445
C23   C     C_R   0.073888 0.861331 0.856579 -0.111424
C24   C     C_R   0.879722 0.999862 0.999888 0.553805
C25   C     C_R   0.039805 0.832674 0.890915 -0.056085
C26   C     C_R   0.811713 0.072652 0.068344 0.046627
C27   C     C_R   0.850960 0.121101 0.055880 -0.055694
C28   C     C_R   0.880700 0.155990 0.089251 -0.094026
C29   C     C_R   0.871444 0.142802 0.135313 -0.103834
C30   C     C_R   0.832161 0.094920 0.148052 -0.113201
C31   C     C_R   0.802192 0.060047 0.114744 -0.094545
C32   C     C_R   0.072587 0.188275 0.068373 0.046658
C33   C     C_R   0.121093 0.149087 0.055931 -0.055731
C34   C     C_R   0.155924 0.119308 0.089318 -0.093993
C35   C     C_R   0.500145 0.379721 0.499889 0.553891
C36   C     C_R   0.142614 0.128462 0.135371 -0.103803
C37   C     C_R   0.094671 0.167685 0.148088 -0.113187
C38   C     C_R   0.059860 0.197697 0.114765 -0.094458
C39   C     C_R   0.188275 0.927477 0.068406 0.046673
C40   C     C_R   0.149108 0.878944 0.055985 -0.055744
C41   C     C_R   0.119315 0.844151 0.089386 -0.093968
C42   C     C_R   0.128435 0.857524 0.135433 -0.103786
C43   C     C_R   0.167635 0.905496 0.148129 -0.113205
C44   C     C_R   0.197660 0.940271 0.114792 -0.094437
C45   C     C_R   0.927370 0.811706 0.068361 0.046626
C46   C     C_R   0.620279 0.500148 0.499889 0.553924
C47   C     C_R   0.878937 0.850980 0.055906 -0.055654
C48   C     C_R   0.844044 0.880701 0.089284 -0.094027
C49   C     C_R   0.857207 0.871394 0.135344 -0.103853
C50   C     C_R   0.905071 0.832083 0.148074 -0.113232
C51   C     C_R   0.939950 0.802138 0.114759 -0.094598
C52   C     C_R   0.689833 0.569283 0.430026 0.044426
C53   C     C_R   0.685702 0.633504 0.433474 -0.102936
C54   C     C_R   0.656932 0.667466 0.399105 -0.112427
C55   C     C_R   0.633320 0.637639 0.360722 -0.111449
C56   C     C_R   0.638663 0.573844 0.356563 -0.111410
C57   C     C_R   0.499861 0.620278 0.499888 0.553867
C58   C     C_R   0.667311 0.539766 0.390906 -0.056080
C59   C     C_R   0.430757 0.689830 0.430010 0.044457
C60   C     C_R   0.366540 0.685631 0.433451 -0.102885
C61   C     C_R   0.332614 0.656860 0.399064 -0.112439
C62   C     C_R   0.362472 0.633315 0.360671 -0.111427
C63   C     C_R   0.426262 0.638722 0.356523 -0.111388
C64   C     C_R   0.460305 0.667369 0.390884 -0.056105
C65   C     C_R   0.310179 0.430828 0.429980 0.044539
C66   C     C_R   0.314504 0.366619 0.433414 -0.102735
C67   C     C_R   0.343313 0.332755 0.399011 -0.112424
C68   C     C_R   0.379721 0.499865 0.499889 0.553835
C69   C     C_R   0.366768 0.362665 0.360609 -0.111429
C70   C     C_R   0.361228 0.426445 0.356467 -0.111384
C71   C     C_R   0.332549 0.460426 0.390847 -0.056155
C72   C     C_R   0.569242 0.310174 0.430009 0.044470
C73   C     C_R   0.633458 0.314379 0.433459 -0.102857
C74   C     C_R   0.667387 0.343174 0.399084 -0.112420
C75   C     C_R   0.637536 0.366735 0.360694 -0.111451
C76   C     C_R   0.573747 0.361314 0.356533 -0.111402
C77   C     C_R   0.539700 0.332645 0.390883 -0.056104
C78   C     C_R   0.311713 0.572586 0.568385 0.046651
C79   C     C_R   0.500000 1.000000 0.084619 0.536958
C80   C     C_R   0.350935 0.621063 0.555936 -0.055669
C81   C     C_R   0.380690 0.655920 0.589318 -0.094003
C82   C     C_R   0.371472 0.642673 0.635375 -0.103841
C83   C     C_R   0.332211 0.594765 0.648099 -0.113215
C84   C     C_R   0.302229 0.559923 0.614780 -0.094539
C85   C     C_R   0.572548 0.688269 0.568392 0.046680
C86   C     C_R   0.621094 0.649129 0.555953 -0.055775
C87   C     C_R   0.655902 0.619326 0.589340 -0.093982
C88   C     C_R   0.642527 0.628406 0.635392 -0.103781
C89   C     C_R   0.594542 0.667580 0.648105 -0.113184
C90   C     C_R   1.000000 0.500000 0.084619 0.536959
C91   C     C_R   0.559755 0.697618 0.614781 -0.094409
C92   C     C_R   0.688271 0.427479 0.568405 0.046685
C93   C     C_R   0.649121 0.378934 0.555980 -0.055744
C94   C     C_R   0.619318 0.344144 0.589378 -0.093962
C95   C     C_R   0.628410 0.357535 0.635426 -0.103786
C96   C     C_R   0.667593 0.405519 0.648125 -0.113200
C97   C     C_R   0.697629 0.440289 0.614791 -0.094414
C98   C     C_R   0.427487 0.311720 0.568416 0.046672
C99   C     C_R   0.378965 0.350904 0.555998 -0.055676
C100  C     C_R   0.344172 0.380691 0.589401 -0.093951
C101  C     C_R   0.500000 0.000000 0.915382 0.539108
C102  C     C_R   0.357531 0.371546 0.635448 -0.103813
C103  C     C_R   0.405489 0.332326 0.648141 -0.113217
C104  C     C_R   0.440265 0.302309 0.614802 -0.094471
C105  C     C_R   0.999993 0.381465 0.000391 0.550463
C106  C     C_R   1.000000 0.500000 0.915382 0.539109
C107  C     C_R   1.000000 0.500000 0.584619 0.536952
C108  C     C_R   0.500000 0.000000 0.584619 0.536952
C109  C     C_R   0.000000 0.500000 0.415382 0.539104
C110  C     C_R   0.500000 1.000000 0.415382 0.539105
C111  C     C_1   0.500000 0.999999 0.135890 -0.043120
C112  C     C_1   0.000000 0.500000 0.135890 -0.043122
C113  C     C_1   0.500000 0.000001 0.864110 -0.041922
C114  C     C_1   1.000000 0.500000 0.864110 -0.041921
C115  C     C_1   1.000000 0.499999 0.635891 -0.043115
C116  C     C_R   0.618534 0.999993 0.000390 0.550461
C117  C     C_1   0.500000 0.000000 0.635891 -0.043113
C118  C     C_1   0.000000 0.500001 0.364110 -0.041924
C119  C     C_1   0.500000 1.000000 0.364110 -0.041923
C120  C     C_1   0.500000 0.999999 0.178373 -0.043344
C121  C     C_1   0.000000 0.500001 0.178373 -0.043347
C122  C     C_1   0.500000 0.000001 0.821627 -0.042230
C123  C     C_1   1.000000 0.499999 0.821627 -0.042230
C124  C     C_1   1.000000 0.499999 0.678373 -0.043339
C125  C     C_1   0.500000 0.000001 0.678373 -0.043336
C126  C     C_1   0.000000 0.500001 0.321627 -0.042233
C127  C     C_R   0.000007 0.618534 0.000388 0.550460
C128  C     C_1   0.500000 0.999999 0.321627 -0.042231
C129  C     C_1   0.499999 0.999999 0.228758 -0.006905
C130  C     C_1   0.000000 0.500001 0.228758 -0.006908
C131  C     C_1   0.500000 0.000001 0.771242 -0.006468
C132  C     C_1   0.999999 0.499999 0.771242 -0.006469
C133  C     C_1   1.000000 0.499999 0.728758 -0.006901
C134  C     C_1   0.500000 0.000001 0.728758 -0.006899
C135  C     C_1   0.000000 0.500001 0.271242 -0.006473
C136  C     C_1   0.499999 0.999999 0.271242 -0.006471
C137  C     C_R   0.284021 0.034327 0.967897 -0.141448
C138  C     C_R   0.881466 0.500007 0.500394 0.550461
C139  C     C_R   0.965653 0.284020 0.967909 -0.141443
C140  C     C_R   0.715982 0.965639 0.967918 -0.141439
C141  C     C_R   0.034353 0.715982 0.967911 -0.141454
C142  C     C_R   0.716330 0.034680 0.032711 -0.144842
C143  C     C_R   0.034660 0.283667 0.032724 -0.144853
C144  C     C_R   0.283668 0.965370 0.032742 -0.144853
C145  C     C_R   0.965334 0.716329 0.032717 -0.144835
C146  C     C_R   0.784023 0.534324 0.467897 -0.141451
C147  C     C_R   0.465677 0.784022 0.467899 -0.141437
C148  C     C_R   0.215981 0.465686 0.467892 -0.141453
C149  C     C_R   0.499993 0.881466 0.500395 0.550460
C150  C     C_R   0.534314 0.215979 0.467890 -0.141458
C151  C     C_R   0.216329 0.534633 0.532741 -0.144834
C152  C     C_R   0.534632 0.783666 0.532745 -0.144851
C153  C     C_R   0.783667 0.465372 0.532745 -0.144853
C154  C     C_R   0.465381 0.216330 0.532749 -0.144843
C155  C     C_R   0.220214 0.033203 0.966334 -0.047041
C156  C     C_R   0.966781 0.220213 0.966343 -0.047050
C157  C     C_R   0.779788 0.966772 0.966353 -0.047044
C158  C     C_R   0.033223 0.779788 0.966348 -0.047031
C159  C     C_R   0.780345 0.035206 0.033047 -0.046104
C160  C     C_R   0.118534 0.499993 0.500391 0.550458
C161  C     C_R   0.035180 0.219653 0.033058 -0.046128
C162  C     C_R   0.219654 0.964854 0.033076 -0.046126
C163  C     C_R   0.964811 0.780343 0.033057 -0.046079
C164  C     C_R   0.720216 0.533201 0.466334 -0.047045
C165  C     C_R   0.466807 0.720215 0.466334 -0.047051
C166  C     C_R   0.279787 0.466825 0.466328 -0.047046
C167  C     C_R   0.533187 0.279785 0.466329 -0.047047
C168  C     C_R   0.280343 0.535164 0.533075 -0.046100
C169  C     C_R   0.535154 0.719653 0.533075 -0.046125
C170  C     C_R   0.719653 0.464856 0.533077 -0.046119
C171  C     C_R   0.500007 0.118534 0.500392 0.550461
C172  C     C_R   0.464863 0.280344 0.533084 -0.046123
C173  C     C_R   0.187351 0.998873 0.999481 -0.004920
C174  C     C_R   0.001137 0.187349 0.999477 -0.004943
C175  C     C_R   0.812650 0.001143 0.999477 -0.004941
C176  C     C_R   0.998864 0.812650 0.999480 -0.004904
C177  C     C_R   0.687351 0.498874 0.499481 -0.004912
C178  C     C_R   0.501135 0.687351 0.499480 -0.004931
C179  C     C_R   0.312649 0.501144 0.499481 -0.004929
C180  C     C_R   0.498870 0.312649 0.499483 -0.004933
C181  C     C_R   0.315292 0.000056 0.000488 0.000346
C182  C     C_R   0.000145 0.879722 0.999889 0.553855
C183  C     C_R   0.999946 0.315291 0.000487 0.000332
C184  C     C_R   0.684709 0.999945 0.000486 0.000327
C185  C     C_R   0.000056 0.684708 0.000485 0.000332
C186  C     C_R   0.815292 0.500056 0.500490 0.000347
C187  C     C_R   0.499943 0.815292 0.500492 0.000351
C188  C     C_R   0.184708 0.499942 0.500490 0.000358
C189  C     C_R   0.500056 0.184707 0.500488 0.000356
C190  C     C_R   0.189827 0.069282 0.930026 0.044427
C191  C     C_R   0.185669 0.133501 0.933480 -0.102940
C192  C     C_R   0.156880 0.167456 0.899117 -0.112403
Cu1   Cu    Cu3+1 0.500000 0.938190 0.000000 0.929867
Cu2   Cu    Cu3+1 1.000000 0.000000 0.042460 0.973937
Cu3   Cu    Cu3+1 0.500000 0.500000 0.457540 0.941866
Cu4   Cu    Cu3+1 0.500000 0.500000 0.542460 0.973965
Cu5   Cu    Cu3+1 0.061810 0.500000 0.000000 0.929865
Cu6   Cu    Cu3+1 0.500000 0.061810 0.000000 0.929863
Cu7   Cu    Cu3+1 0.938190 0.500000 0.000000 0.929860
Cu8   Cu    Cu3+1 1.000000 0.438190 0.500000 0.929892
Cu9   Cu    Cu3+1 0.561810 0.000000 0.500000 0.929875
Cu10  Cu    Cu3+1 1.000000 0.561810 0.500000 0.929870
Cu11  Cu    Cu3+1 0.438190 0.000000 0.500000 0.929891
Cu12  Cu    Cu3+1 0.000000 0.000000 0.957540 0.941633
H1    H     H_    0.309525 0.060783 0.942893 0.125847
H2    H     H_    0.439224 0.809526 0.442893 0.125850
H3    H     H_    0.190480 0.439242 0.442880 0.125829
H4    H     H_    0.560759 0.190476 0.442881 0.125835
H5    H     H_    0.190973 0.561052 0.557835 0.122724
H6    H     H_    0.561049 0.809016 0.557843 0.122734
H7    H     H_    0.809016 0.438956 0.557844 0.122734
H8    H     H_    0.438973 0.190978 0.557851 0.122728
H9    H     H_    0.204763 0.157182 0.962666 0.098813
H10   H     H_    0.153090 0.216904 0.902151 0.111879
H11   H     H_    0.111042 0.163966 0.834143 0.101252
H12   H     H_    0.939177 0.309524 0.942917 0.125867
H13   H     H_    0.120683 0.050799 0.826722 0.094095
H14   H     H_    0.171500 0.990422 0.887334 0.113761
H15   H     H_    0.842793 0.204840 0.962696 0.098860
H16   H     H_    0.783020 0.153191 0.902199 0.111900
H17   H     H_    0.835913 0.111073 0.834195 0.101253
H18   H     H_    0.949085 0.120623 0.826760 0.094084
H19   H     H_    0.009512 0.171424 0.887350 0.113791
H20   H     H_    0.795223 0.842789 0.962731 0.098853
H21   H     H_    0.846872 0.783019 0.902231 0.111895
H22   H     H_    0.888926 0.835909 0.834203 0.101244
H23   H     H_    0.690480 0.939152 0.942932 0.125873
H24   H     H_    0.879319 0.949075 0.826748 0.094088
H25   H     H_    0.828522 0.009499 0.887342 0.113770
H26   H     H_    0.157201 0.795256 0.962708 0.098797
H27   H     H_    0.216943 0.846919 0.902199 0.111875
H28   H     H_    0.164026 0.888938 0.834171 0.101240
H29   H     H_    0.050861 0.879289 0.826728 0.094096
H30   H     H_    0.990466 0.828486 0.887336 0.113749
H31   H     H_    0.858968 0.131244 0.020381 0.095573
H32   H     H_    0.911049 0.193111 0.079406 0.111378
H33   H     H_    0.894686 0.169689 0.161118 0.104236
H34   H     H_    0.060831 0.690481 0.942919 0.125858
H35   H     H_    0.824994 0.084759 0.183747 0.105858
H36   H     H_    0.772159 0.022835 0.125055 0.096757
H37   H     H_    0.131324 0.141149 0.020438 0.095479
H38   H     H_    0.193090 0.089003 0.079490 0.111328
H39   H     H_    0.169453 0.105186 0.161188 0.104208
H40   H     H_    0.084412 0.174768 0.183776 0.105828
H41   H     H_    0.022596 0.227678 0.125056 0.096720
H42   H     H_    0.141197 0.868665 0.020496 0.095458
H43   H     H_    0.089024 0.806965 0.079573 0.111352
H44   H     H_    0.105147 0.830713 0.161260 0.104261
H45   H     H_    0.690975 0.061131 0.057787 0.122749
H46   H     H_    0.174687 0.915808 0.183812 0.105814
H47   H     H_    0.227619 0.977561 0.125067 0.096699
H48   H     H_    0.868810 0.859024 0.020409 0.095581
H49   H     H_    0.806938 0.911073 0.079445 0.111408
H50   H     H_    0.830313 0.894618 0.161154 0.104275
H51   H     H_    0.915211 0.824876 0.183768 0.105863
H52   H     H_    0.977147 0.772080 0.125064 0.096762
H53   H     H_    0.704806 0.657181 0.462657 0.098810
H54   H     H_    0.653167 0.716917 0.402134 0.111864
H55   H     H_    0.611099 0.663984 0.334129 0.101237
H56   H     H_    0.061095 0.309018 0.057811 0.122748
H57   H     H_    0.620683 0.550810 0.326723 0.094098
H58   H     H_    0.671473 0.490423 0.387342 0.113764
H59   H     H_    0.342838 0.704680 0.462643 0.098808
H60   H     H_    0.283166 0.653042 0.402085 0.111834
H61   H     H_    0.336154 0.611097 0.334063 0.101211
H62   H     H_    0.449320 0.620793 0.326676 0.094107
H63   H     H_    0.509645 0.671580 0.387329 0.113738
H64   H     H_    0.295520 0.342875 0.462611 0.098728
H65   H     H_    0.347235 0.283315 0.402028 0.111808
H66   H     H_    0.389017 0.336395 0.333989 0.101208
H67   H     H_    0.309019 0.938954 0.057840 0.122736
H68   H     H_    0.379082 0.449542 0.326612 0.094129
H69   H     H_    0.328240 0.509758 0.387299 0.113643
H70   H     H_    0.657156 0.295315 0.462647 0.098777
H71   H     H_    0.716834 0.347000 0.402114 0.111852
H72   H     H_    0.663856 0.388974 0.334097 0.101234
H73   H     H_    0.550694 0.379252 0.326687 0.094113
H74   H     H_    0.490361 0.328427 0.387320 0.113692
H75   H     H_    0.358913 0.631253 0.520441 0.095472
H76   H     H_    0.411022 0.693061 0.579484 0.111342
H77   H     H_    0.394726 0.669536 0.661188 0.104212
H78   H     H_    0.938889 0.690971 0.057796 0.122739
H79   H     H_    0.325074 0.584559 0.683789 0.105835
H80   H     H_    0.272215 0.522688 0.625078 0.096731
H81   H     H_    0.631372 0.641247 0.520459 0.095442
H82   H     H_    0.693100 0.589059 0.579514 0.111299
H83   H     H_    0.669347 0.605109 0.661209 0.104190
H84   H     H_    0.584230 0.674603 0.683792 0.105801
H85   H     H_    0.522456 0.727558 0.625069 0.096694
H86   H     H_    0.641230 0.368643 0.520490 0.095411
H87   H     H_    0.589043 0.306948 0.579563 0.111309
H88   H     H_    0.605114 0.330728 0.661251 0.104205
H89   H     H_    0.809528 0.560778 0.442893 0.125849
H90   H     H_    0.674624 0.415845 0.683809 0.105795
H91   H     H_    0.727576 0.477588 0.625068 0.096692
H92   H     H_    0.368696 0.358834 0.520509 0.095376
H93   H     H_    0.306997 0.410996 0.579590 0.111344
H94   H     H_    0.330720 0.394828 0.661277 0.104240
H95   H     H_    0.415788 0.325252 0.683824 0.105813
H96   H     H_    0.477543 0.272333 0.625076 0.096703
O1    O     O_R   0.409820 0.947800 0.000000 -0.503390
O2    O     O_R   0.552200 0.909820 0.500000 -0.503389
O3    O     O_R   0.090180 0.552200 0.500000 -0.503393
O4    O     O_R   0.447800 0.090180 0.500000 -0.503386
O5    O     O_R   0.090180 0.447800 0.500000 -0.505013
O6    O     O_R   0.447800 0.909820 0.500000 -0.505022
O7    O     O_R   0.909820 0.552200 0.500000 -0.505028
O8    O     O_R   0.552200 0.090180 0.500000 -0.505022
O9    O     O_R   0.499990 0.947800 0.061980 -0.491279
O10   O     O_R   0.052200 0.499990 0.061980 -0.491279
O11   O     O_R   0.500010 0.052200 0.061980 -0.491283
O12   O     O_R   0.052200 0.409820 0.000000 -0.503391
O13   O     O_R   0.947800 0.500010 0.061980 -0.491281
O14   O     O_R   0.500010 0.947800 0.938020 -0.490729
O15   O     O_R   0.947800 0.499990 0.938020 -0.490729
O16   O     O_R   0.499990 0.052200 0.938020 -0.490728
O17   O     O_R   0.052200 0.500010 0.938020 -0.490729
O18   O     O_R   0.999990 0.447800 0.561980 -0.491280
O19   O     O_R   0.552200 0.999990 0.561980 -0.491283
O20   O     O_R   0.000010 0.552200 0.561980 -0.491284
O21   O     O_R   0.447800 0.000010 0.561980 -0.491282
O22   O     O_R   0.000010 0.447800 0.438020 -0.490727
O23   O     O_R   0.590180 0.052200 0.000000 -0.503399
O24   O     O_R   0.447800 0.999990 0.438020 -0.490725
O25   O     O_R   0.999990 0.552200 0.438020 -0.490729
O26   O     O_R   0.552200 0.000010 0.438020 -0.490730
O27   O     O_R   0.000010 0.909720 0.964150 -0.503823
O28   O     O_R   0.090280 0.000010 0.964150 -0.503822
O29   O     O_R   0.999990 0.090280 0.964150 -0.503862
O30   O     O_R   0.909720 0.999990 0.964150 -0.503842
O31   O     O_R   0.999990 0.909720 0.035850 -0.498461
O32   O     O_R   0.909720 0.000010 0.035850 -0.498482
O33   O     O_R   0.000010 0.090280 0.035850 -0.498436
O34   O     O_R   0.947800 0.590180 0.000000 -0.503400
O35   O     O_R   0.090280 0.999990 0.035850 -0.498416
O36   O     O_R   0.500010 0.409720 0.464150 -0.503798
O37   O     O_R   0.590280 0.500010 0.464150 -0.503849
O38   O     O_R   0.499990 0.590280 0.464150 -0.503812
O39   O     O_R   0.409720 0.499990 0.464150 -0.503737
O40   O     O_R   0.499990 0.409720 0.535850 -0.498430
O41   O     O_R   0.409720 0.500010 0.535850 -0.498484
O42   O     O_R   0.500010 0.590280 0.535850 -0.498453
O43   O     O_R   0.590280 0.499990 0.535850 -0.498406
O44   O     O_R   0.590180 0.947800 0.000000 -0.505030
O45   O     O_R   0.947800 0.409820 0.000000 -0.505030
O46   O     O_R   0.409820 0.052200 0.000000 -0.505024
O47   O     O_R   0.052200 0.590180 0.000000 -0.505028
O48   O     O_R   0.909820 0.447800 0.500000 -0.503386

loop_
_geom_bond_atom_site_label_1
_geom_bond_atom_site_label_2
_ccdc_geom_bond_type
C107  O20   A    
C142  C184  A    
C101  C113  S    
C19   C20   A    
C55   C56   A    
C176  C182  S    
C16   H22   S    
C124  C133  S    
C62   H61   S    
Cu8   O22   S    
C57   C178  S    
C17   H24   S    
Cu12  O30   S    
C145  H78   S    
C3    H11   S    
Cu3   O38   S    
C46   O43   A    
C73   C74   A    
C192  H10   S    
Cu5   Cu7   S    
Cu11  O6    S    
C154  H8    S    
C50   H51   S    
C113  C122  T    
C92   C170  S    
C92   C97   A    
C12   C157  S    
C110  O26   A    
C119  C128  T    
C167  C180  A    
C59   C60   A    
C37   H40   S    
C97   H91   S    
C21   C22   A    
Cu2   O35   S    
C60   H59   S    
C152  C187  A    
C51   H52   S    
C109  C118  S    
C45   C47   A    
C151  C188  A    
C191  C192  A    
C99   H92   S    
Cu12  O28   S    
C11   H19   S    
C6    C11   A    
C1    C181  S    
C57   O38   A    
C72   C73   A    
C38   H41   S    
C65   C166  S    
Cu12  O27   S    
C85   C169  S    
C75   C76   A    
C37   C38   A    
C90   O13   A    
C139  H12   S    
C52   C58   A    
Cu11  O21   S    
C154  C189  A    
C54   H54   S    
C91   H85   S    
C36   H39   S    
Cu7   O15   S    
C4    C5    A    
C64   H63   S    
C6    C7    A    
C148  C188  A    
Cu2   O32   S    
C56   H57   S    
C45   C163  S    
C150  H4    S    
C105  O12   A    
C161  C174  A    
C127  C185  S    
C110  O24   A    
C69   C70   A    
C160  O3    A    
C10   H18   S    
Cu3   Cu4   S    
C20   C21   A    
Cu8   Cu10  S    
C98   C99   A    
Cu2   O33   S    
C22   C23   A    
C100  H93   S    
C143  C161  A    
C90   O10   A    
C31   H36   S    
C190  C191  A    
C68   O41   A    
C123  C132  S    
C33   H37   S    
C121  C130  S    
Cu9   O26   S    
C7    C8    A    
C85   C86   A    
C42   H44   S    
C1    O46   A    
C93   H86   S    
C15   H21   S    
C36   C37   A    
C79   O11   A    
C78   C80   A    
C137  C181  A    
C182  O31   A    
C137  C155  A    
Cu1   O14   S    
C147  C165  A    
C148  H3    S    
C71   H69   S    
C69   H66   S    
Cu5   O47   S    
C47   C48   A    
C153  C170  A    
C80   H75   S    
Cu3   O39   S    
Cu1   O44   S    
C89   C91   A    
C9    C10   A    
C59   C165  S    
C98   C172  S    
C66   C67   A    
C142  H45   S    
C32   C161  S    
Cu9   Cu11  S    
C46   C177  S    
C24   O30   A    
Cu7   O13   S    
Cu8   O18   S    
C106  O15   A    
Cu8   O48   S    
C171  O8    A    
C120  C129  S    
C39   C40   A    
C145  C163  A    
C146  C164  A    
C182  O27   A    
C145  C185  A    
C77   H74   S    
C29   C30   A    
C44   H47   S    
C83   C84   A    
C73   H70   S    
C104  H96   S    
Cu2   Cu12  S    
C17   C18   A    
C138  O48   A    
C88   C89   A    
C39   C162  S    
Cu4   O41   S    
C28   H32   S    
C114  C123  T    
C25   H30   S    
C82   C83   A    
C3    C4    A    
C122  C131  S    
C52   C53   A    
Cu9   O2    S    
C152  H6    S    
C144  C181  A    
C108  O21   A    
Cu9   O8    S    
C108  C117  S    
Cu10  O7    S    
C79   O9    A    
C110  C119  S    
C102  H94   S    
C39   C44   A    
C68   C179  S    
C78   C168  S    
Cu5   O10   S    
C116  O44   A    
C48   H49   S    
C109  O22   A    
C3    C192  A    
C49   H50   S    
C116  C184  S    
C56   C58   A    
Cu3   O37   S    
C34   C36   A    
C61   C62   A    
C13   O33   A    
C10   C11   A    
C101  O14   A    
C23   H29   S    
C49   C50   A    
Cu5   O17   S    
C14   C15   A    
C24   O32   A    
C116  O23   A    
C117  C125  T    
C6    C156  S    
C125  C134  S    
C87   C88   A    
C108  O19   A    
C141  H34   S    
C46   O37   A    
C148  C166  A    
C41   C42   A    
C35   O36   A    
C130  C135  T    
C142  C159  A    
C131  C134  T    
C162  C173  A    
C57   O42   A    
C103  H95   S    
C156  C174  A    
C26   C27   A    
C140  C184  A    
C76   H73   S    
C28   C29   A    
C138  C186  S    
C128  C136  S    
C2    C173  S    
C30   C31   A    
C160  O5    A    
C153  C186  A    
Cu1   Cu6   S    
C74   H71   S    
Cu4   O43   S    
C54   C55   A    
C68   O39   A    
C16   C17   A    
C35   O40   A    
Cu10  O25   S    
C70   C71   A    
C109  O25   A    
Cu11  O24   S    
C172  C180  A    
Cu11  O4    S    
Cu10  O3    S    
C58   H58   S    
C19   C158  S    
C94   H87   S    
C13   C174  S    
C53   H53   S    
C170  C177  A    
Cu6   O11   S    
C20   H26   S    
C88   H83   S    
Cu12  O29   S    
Cu5   O12   S    
C147  C187  A    
C53   C54   A    
C60   C61   A    
C143  C183  A    
C147  H2    S    
C62   C63   A    
C155  C190  S    
C101  O16   A    
C5    H14   S    
C50   C51   A    
C26   C159  S    
Cu1   O9    S    
C105  C183  S    
Cu6   O46   S    
C52   C164  S    
C107  O18   A    
C149  O6    A    
C126  C135  S    
C149  C187  S    
C86   H81   S    
C42   C43   A    
Cu4   O40   S    
C66   H64   S    
C115  C124  T    
C86   C87   A    
C146  C186  A    
Cu6   O23   S    
C18   H25   S    
C40   H42   S    
Cu6   O16   S    
C168  C179  A    
Cu7   O45   S    
C32   C33   A    
C127  O47   A    
C191  H9    S    
C150  C189  A    
C152  C169  A    
C150  C167  A    
C92   C93   A    
C94   C95   A    
C63   H62   S    
C96   H90   S    
C83   H79   S    
C67   H65   S    
C9    H17   S    
C141  C158  A    
C112  C121  T    
C89   H84   S    
C149  O2    A    
C103  C104  A    
C24   C175  S    
Cu3   O36   S    
C15   C16   A    
C93   C94   A    
C75   H72   S    
C34   H38   S    
C81   H76   S    
C95   C96   A    
C87   H82   S    
C90   C112  S    
C30   H35   S    
C43   C44   A    
C81   C82   A    
C85   C91   A    
C137  H1    S    
C84   H80   S    
C59   C64   A    
Cu9   O19   S    
C106  C114  S    
Cu10  O20   S    
Cu2   O31   S    
C14   H20   S    
C13   O29   A    
C5    C190  A    
C98   C104  A    
C45   C51   A    
C151  C168  A    
C21   H27   S    
C171  C189  S    
C106  O17   A    
Cu1   O1    S    
Cu7   O34   S    
C8    C9    A    
C32   C38   A    
Cu4   O42   S    
C55   H55   S    
C27   H31   S    
C7    H15   S    
C155  C173  A    
C26   C31   A    
C159  C175  A    
C41   H43   S    
C165  C178  A    
C1    O1    A    
C102  C103  A    
Cu8   O5    S    
C163  C176  A    
C29   H33   S    
C146  H89   S    
C74   C75   A    
C144  H67   S    
C76   C77   A    
C153  H7    S    
C132  C133  T    
C65   C71   A    
C63   C64   A    
C111  C120  T    
C67   C69   A    
C72   C77   A    
C8    H16   S    
C140  C157  A    
C129  C136  T    
C171  O4    A    
C70   H68   S    
C99   C100  A    
C96   C97   A    
C100  C102  A    
C33   C34   A    
C154  C172  A    
C95   H88   S    
C107  C115  S    
C47   H48   S    
C157  C175  A    
C138  O7    A    
C158  C176  A    
C40   C41   A    
C12   C14   A    
C65   C66   A    
C72   C167  S    
C141  C185  A    
C160  C188  S    
C169  C178  A    
C139  C183  A    
C35   C180  S    
C48   C49   A    
C140  H23   S    
C2    O35   A    
C151  H5    S    
C144  C162  A    
C143  H56   S    
C61   H60   S    
C80   C81   A    
C79   C111  S    
C43   H46   S    
C139  C156  A    
C2    O28   A    
C127  O34   A    
C105  O45   A    
C23   C25   A    
C19   C25   A    
C78   C84   A    
C22   H28   S    
C4    H13   S    
C12   C18   A    
C27   C28   A    
C166  C179  A    
C118  C126  T    
C82   H77   S    
C164  C177  A    
