data_mof_unit_52697.cif
_audit_creation_date              2012-12-11T15:15:40-0500
_audit_creation_method            fapswitch 2.2
_symmetry_space_group_name_H-M    P1
_symmetry_Int_Tables_number       1
_space_group_crystal_system       triclinic
_cell_length_a                    18.896504
_cell_length_b                    18.847159
_cell_length_c                    20.465281
_cell_angle_alpha                 107.417687
_cell_angle_beta                  106.489412
_cell_angle_gamma                 110.696141
_cell_volume                      5853.08363358

loop_
_atom_site_label
_atom_site_type_symbol
_atom_type_description
_atom_site_fract_x
_atom_site_fract_y
_atom_site_fract_z
_atom_type_partial_charge
C1    C     C_R   0.085736 0.085533 0.352950 0.500258
C2    C     C_R   0.246817 0.068841 0.536288 -0.140193
C3    C     C_3   0.136431 0.165347 0.924471 0.260233
C4    C     C_3   0.043875 0.144558 0.890135 -0.465914
C5    C     C_3   0.018903 0.180969 0.951638 -0.836797
C6    C     C_3   0.034482 0.802821 0.035430 0.174626
C7    C     C_3   0.036699 0.719914 0.001927 -0.200164
C8    C     C_3   0.948961 0.646707 0.945497 -0.964114
C9    C     C_R   0.161235 0.212009 0.716292 0.522793
C10   C     C_R   0.762518 0.925563 0.505495 -0.118196
C11   C     C_R   0.997853 0.763234 0.429560 -0.151937
C12   C     C_R   0.243316 0.246240 0.724797 -0.055348
C13   C     C_R   0.945275 0.708725 0.448078 0.078993
C14   C     C_R   0.254839 0.995838 0.523427 0.076066
C15   C     C_R   0.021813 0.977916 0.725212 0.164181
C16   C     C_R   0.954818 0.582757 0.379609 -0.189699
C17   C     C_R   0.915592 0.617093 0.418153 0.086976
C18   C     C_R   0.761082 0.993583 0.554568 0.124128
C19   C     C_R   0.856692 0.565987 0.435618 -0.232335
C20   C     C_R   0.845492 0.484965 0.423449 0.194479
C21   C     C_R   0.893820 0.455256 0.393431 -0.018304
C22   C     C_R   0.848517 0.777964 0.290758 -0.107038
C23   C     C_R   0.948932 0.504714 0.371513 -0.103244
C24   C     C_R   0.793478 0.437047 0.448135 -0.199235
C25   C     C_R   0.795194 0.364214 0.449763 -0.199979
C26   C     C_R   0.848171 0.338141 0.425845 0.188892
C27   C     C_R   0.894327 0.381170 0.393681 -0.012575
C28   C     C_R   0.946562 0.354282 0.367987 -0.081574
C29   C     C_R   0.774137 0.726013 0.289406 0.038169
C30   C     C_R   0.997387 0.401163 0.341297 0.296326
C31   C     C_R   0.004688 0.480522 0.350477 0.453811
C32   C     C_R   0.862938 0.276029 0.441189 -0.235799
C33   C     C_R   0.922698 0.256756 0.424161 0.079070
C34   C     C_R   0.945828 0.192169 0.517185 -0.114316
C35   C     C_R   0.955792 0.288312 0.379563 -0.131370
C36   C     C_R   0.332242 0.913558 0.532074 -0.203625
C37   C     C_R   0.332174 0.991554 0.556288 0.103536
C38   C     C_R   0.407471 0.066079 0.608594 -0.257765
C39   C     C_R   0.483528 0.064692 0.627817 0.152135
C40   C     C_R   0.961453 0.216267 0.462611 0.057647
C41   C     C_R   0.483839 0.986973 0.597498 0.068932
C42   C     C_R   0.407785 0.910878 0.552235 0.105597
C43   C     C_R   0.559335 0.140737 0.670886 -0.202620
C44   C     C_R   0.634391 0.140865 0.676263 -0.184845
C45   C     C_R   0.634109 0.064673 0.640338 0.188163
C46   C     C_R   0.771000 0.771083 0.354928 -0.125636
C47   C     C_R   0.559697 0.986591 0.605533 -0.088628
C48   C     C_R   0.560273 0.909193 0.572763 -0.200279
C49   C     C_R   0.484265 0.831308 0.534882 0.612323
C50   C     C_R   0.408180 0.834025 0.521841 -0.416790
C51   C     C_R   0.237931 0.213766 0.652380 -0.237050
C52   C     C_R   0.703989 0.066219 0.630048 -0.323451
C53   C     C_R   0.701388 0.990566 0.588407 -0.077576
C54   C     C_R   0.636175 0.912851 0.573043 0.550919
C55   C     C_R   0.320896 0.291326 0.796400 0.147558
C56   C     C_R   0.316585 0.286789 0.862461 -0.121800
C57   C     C_R   0.389199 0.317126 0.927230 -0.139626
C58   C     C_R   0.025567 0.200133 0.454634 -0.134473
C59   C     C_R   0.468416 0.352548 0.927425 0.218771
C60   C     C_R   0.473069 0.358490 0.861919 -0.185013
C61   C     C_R   0.400075 0.328113 0.796940 -0.175203
C62   C     C_R   0.920036 0.755745 0.493019 -0.128209
C63   C     C_R   0.699295 0.503821 0.146716 -0.148350
C64   C     C_R   0.752401 0.588189 0.199731 -0.180214
C65   C     C_R   0.640374 0.591783 0.233758 -0.172502
C66   C     C_R   0.587529 0.507073 0.181170 -0.153667
C67   C     C_R   0.615284 0.464513 0.134337 0.204090
C68   C     C_2   0.547422 0.394403 0.997338 -0.212375
C69   C     C_2   0.551374 0.390120 0.062586 -0.203350
C70   C     C_R   0.832784 0.065299 0.572717 -0.164511
C71   C     C_R   0.721880 0.634183 0.240660 0.133872
C72   C     C_R   0.091026 0.017401 0.226327 0.012882
C73   C     C_R   0.175681 0.927629 0.473817 -0.128682
C74   C     C_R   0.098542 0.947667 0.186698 -0.336796
C75   C     C_R   0.115677 0.941063 0.123723 0.523413
C76   C     C_R   0.131322 0.008325 0.103344 -0.104078
C77   C     C_R   0.131060 0.081766 0.147826 0.446327
C78   C     C_R   0.109629 0.085247 0.207936 -0.257252
C79   C     C_R   0.187968 0.032077 0.916887 0.313954
C80   C     C_R   0.138865 0.043665 0.859364 0.437692
C81   C     C_R   0.048567 0.891025 0.790788 -0.351198
C82   C     C_R   0.011828 0.945397 0.288351 -0.218455
C83   C     C_R   0.089104 0.882377 0.854119 0.481527
C84   C     C_R   0.032790 0.051302 0.717234 -0.165332
C85   C     C_R   0.156033 0.954079 0.919389 -0.177115
C86   C     C_2   0.132842 0.998769 0.029877 -0.114533
C87   C     C_2   0.166010 0.957027 0.994249 0.042318
C88   C     C_R   0.070103 0.971604 0.793005 -0.134690
C89   C     C_R   0.060244 0.017239 0.284522 -0.027616
C90   C     C_3   0.229052 0.162420 0.399448 0.201940
C91   C     C_3   0.299243 0.243780 0.469490 -0.259166
C92   C     C_3   0.383693 0.244301 0.489427 -1.029320
C93   C     C_3   0.068579 0.259882 0.738241 0.137270
C94   C     C_3   0.096509 0.336746 0.721414 -0.289915
C95   C     C_R   0.965889 0.911251 0.652873 -0.147024
C96   C     C_3   0.029266 0.364563 0.706332 -0.972435
C97   C     C_3   0.146111 0.575518 0.413319 0.261502
C98   C     C_3   0.153126 0.650011 0.477244 -0.420204
C99   C     C_3   0.230788 0.686614 0.551306 -0.966244
C100  C     C_3   0.674623 0.829240 0.619309 0.213083
C101  C     C_3   0.770741 0.869877 0.655466 -0.350943
C102  C     C_3   0.803449 0.853146 0.723441 -0.974119
C103  C     C_3   0.430844 0.686316 0.505239 0.225942
C104  C     C_3   0.452404 0.700356 0.587996 -0.395132
C105  C     C_3   0.401775 0.618878 0.591044 -0.945226
Cl1   Cl    Cl    0.059739 0.367306 0.303796 -0.614387
Cl2   Cl    Cl    0.155408 0.170666 0.128999 -0.641672
Cl3   Cl    Cl    0.283084 0.118898 0.992610 -0.612649
Cl4   Cl    Cl    0.049565 0.781911 0.852392 -0.701330
H1    H     H_    0.869859 0.731248 0.508705 0.087322
H2    H     H_    0.721656 0.858945 0.484334 0.161096
H3    H     H_    0.758759 0.331083 0.473694 0.134190
H4    H     H_    0.833333 0.248573 0.472052 0.117868
H5    H     H_    0.997227 0.269093 0.361914 0.174549
H6    H     H_    0.274444 0.855019 0.493906 0.122466
H7    H     H_    0.408293 0.126337 0.630476 0.123589
H8    H     H_    0.559892 0.200625 0.695306 0.131815
H9    H     H_    0.691704 0.200906 0.704373 0.127758
H10   H     H_    0.756809 0.126999 0.648639 0.142922
H11   H     H_    0.877019 0.759565 0.254457 0.083968
H12   H     H_    0.157503 0.861119 0.451035 0.095087
H13   H     H_    0.348861 0.777395 0.483441 0.149684
H14   H     H_    0.257163 0.257651 0.864142 0.204268
H15   H     H_    0.816121 0.617675 0.206216 0.115194
H16   H     H_    0.615623 0.625214 0.265426 0.126600
H17   H     H_    0.498147 0.344893 0.064371 0.162818
H18   H     H_    0.533466 0.387327 0.861196 0.117848
H19   H     H_    0.721838 0.471154 0.111509 0.127384
H20   H     H_    0.405962 0.332725 0.747124 0.117885
H21   H     H_    0.898491 0.193594 0.536271 0.098540
H22   H     H_    0.602066 0.441517 0.998373 0.135741
H23   H     H_    0.071429 0.114308 0.760068 0.208115
H24   H     H_    0.381961 0.313685 0.976830 0.147934
H25   H     H_    0.522587 0.477423 0.171940 0.132534
H26   H     H_    0.088342 0.896363 0.202641 0.153710
H27   H     H_    0.996389 0.834494 0.741952 0.191727
H28   H     H_    0.196184 0.924907 0.017214 0.193969
H29   H     H_    0.105336 0.140091 0.238937 0.216011
H30   H     H_    0.729365 0.745089 0.378314 0.097485
H31   H     H_    0.102667 0.028076 0.001938 0.142978
H32   H     H_    0.053395 0.209854 0.416892 0.156885
H33   H     H_    0.858421 0.128095 0.617335 0.086115
H34   H     H_    0.945026 0.844701 0.635852 0.111474
H35   H     H_    0.990253 0.880471 0.250140 0.126106
H36   H     H_    0.288003 0.235210 0.636173 0.120098
H37   H     H_    0.244402 0.158029 0.350334 0.137589
H38   H     H_    0.226925 0.107475 0.410706 0.089469
H39   H     H_    0.304266 0.299251 0.458479 0.221393
H40   H     H_    0.283670 0.249601 0.518612 0.189506
H41   H     H_    0.380508 0.189770 0.501330 0.266288
H42   H     H_    0.432977 0.303787 0.540942 0.271267
H43   H     H_    0.401484 0.240840 0.441728 0.282284
H44   H     H_    0.043882 0.272620 0.781199 0.141219
H45   H     H_    0.296843 0.132876 0.568115 0.100304
H46   H     H_    0.015680 0.202467 0.687215 0.092388
H47   H     H_    0.155232 0.390482 0.770862 0.220139
H48   H     H_    0.109808 0.320686 0.670970 0.193057
H49   H     H_    0.968365 0.310994 0.659964 0.252561
H50   H     H_    0.048969 0.416426 0.689403 0.278195
H51   H     H_    0.020662 0.388170 0.758606 0.267894
H52   H     H_    0.200041 0.600345 0.399838 0.132576
H53   H     H_    0.153250 0.528965 0.434092 0.115908
H54   H     H_    0.155347 0.700485 0.459145 0.208026
H55   H     H_    0.098203 0.628630 0.489898 0.223594
H56   H     H_    0.018348 0.746285 0.385866 0.086273
H57   H     H_    0.225737 0.638831 0.573445 0.271221
H58   H     H_    0.236078 0.743018 0.594472 0.284191
H59   H     H_    0.288250 0.706025 0.542377 0.261976
H60   H     H_    0.648550 0.760031 0.601119 0.138400
H61   H     H_    0.652947 0.853244 0.662448 0.068836
H62   H     H_    0.790694 0.843252 0.612251 0.208406
H63   H     H_    0.798966 0.939423 0.675100 0.205756
H64   H     H_    0.783829 0.878971 0.767267 0.268137
H65   H     H_    0.873159 0.884604 0.749299 0.274135
H66   H     H_    0.778981 0.784041 0.705021 0.267999
H67   H     H_    0.997566 0.620135 0.362963 0.160222
H68   H     H_    0.438776 0.631571 0.476115 0.150028
H69   H     H_    0.363752 0.666874 0.473143 0.075632
H70   H     H_    0.520264 0.721604 0.618837 0.202283
H71   H     H_    0.438674 0.750066 0.617603 0.202033
H72   H     H_    0.333357 0.594207 0.558504 0.266530
H73   H     H_    0.415644 0.631698 0.651112 0.271615
H74   H     H_    0.418951 0.569908 0.566672 0.264559
H75   H     H_    0.176251 0.234870 0.948195 0.147650
H76   H     H_    0.149826 0.150314 0.973703 0.167124
H77   H     H_    0.033570 0.172077 0.849618 0.218068
H78   H     H_    0.823868 0.590730 0.463370 0.115172
H79   H     H_    0.002464 0.074843 0.859235 0.213674
H80   H     H_    0.023736 0.151123 0.990816 0.293930
H81   H     H_    0.952809 0.167766 0.924724 0.253947
H82   H     H_    0.060125 0.250621 0.984589 0.272847
H83   H     H_    0.004840 0.816104 0.988393 0.147469
H84   H     H_    0.995303 0.794694 0.067129 0.079745
H85   H     H_    0.078180 0.727035 0.972589 0.251091
H86   H     H_    0.063162 0.704980 0.048730 0.188608
H87   H     H_    0.906971 0.637322 0.974207 0.250308
H88   H     H_    0.952805 0.587569 0.922342 0.270935
H89   H     H_    0.755610 0.458771 0.470696 0.134512
H90   H     H_    0.921806 0.659641 0.897488 0.296130
N1    N     N_R   0.052580 0.056040 0.395500 -0.088589
N2    N     N_R   0.890210 0.849400 0.355780 -0.035263
N3    N     N_R   0.997110 0.161140 0.539580 -0.056238
N4    N     N_R   0.841950 0.845400 0.395490 -0.039365
N5    N     N_R   0.045360 0.165140 0.499870 -0.041062
N6    N     N_R   0.877490 0.041510 0.539580 -0.042759
N7    N     N_R   0.009820 0.969030 0.355780 -0.065955
N8    N     N_R   0.158050 0.154600 0.604510 -0.056003
N9    N     N_R   0.954640 0.834860 0.500130 -0.037548
N10   N     N_R   0.122510 0.958490 0.460420 -0.043691
N11   N     N_R   0.990180 0.030970 0.644220 -0.059079
N12   N     N_R   0.947420 0.943960 0.604500 -0.046031
N13   N     N_R   0.165270 0.045500 0.500140 -0.043257
N14   N     N_R   0.109790 0.150600 0.644220 -0.103343
N15   N     N_R   0.002890 0.838860 0.460420 -0.033524
N16   N     N_R   0.834730 0.954500 0.499860 -0.048849
Ni1   Ni    Ni4+2 0.104370 0.104380 0.500010 0.229409
Ni2   Ni    Ni4+2 0.895630 0.895620 0.499990 0.206580
Ni3   Ni    Ni4+2 0.006300 0.904810 0.408930 0.206922
Ni4   Ni    Ni4+2 0.993700 0.095190 0.591070 0.198237
O1    O     O_3   0.152715 0.165868 0.383520 -0.681874
O2    O     O_3   0.137409 0.247647 0.770328 -0.701298
O3    O     O_3   0.070932 0.537847 0.345398 -0.626271
O4    O     O_3   0.644560 0.840418 0.553385 -0.645990
O5    O     O_3   0.485476 0.756224 0.499612 -0.624244
O6    O     O_3   0.158549 0.125196 0.868716 -0.665868
O7    O     O_3   0.117699 0.869081 0.083198 -0.661072

loop_
_geom_bond_atom_site_label_1
_geom_bond_atom_site_label_2
_ccdc_geom_bond_type
C18   C70   A    
C96   H49   S    
C55   C56   A    
C60   H18   S    
C26   C32   A    
C101  C102  S    
C22   C29   A    
C41   C42   A    
C36   C42   A    
C19   C20   A    
C50   H13   S    
C79   C85   A    
C43   C44   A    
C97   C98   S    
N14   Ni4   S    
C7    C8    S    
C39   C41   A    
C77   C78   A    
N7    Ni3   S    
C102  H64   S    
C48   C54   A    
C26   C27   A    
C93   C94   S    
C82   C89   A    
N3    N5    A    
C101  H63   S    
C34   C40   A    
N10   Ni3   S    
C73   N10   A    
C36   C37   A    
C10   C18   A    
C5    H81   S    
N16   Ni2   S    
C15   C95   A    
C38   C39   A    
C103  O5    S    
C84   N11   A    
C10   N16   A    
C57   C59   A    
C104  H70   S    
C51   H36   S    
C78   H29   S    
N8    N14   A    
N10   N13   A    
C97   H53   S    
C97   O3    S    
C35   H5    S    
C64   C71   A    
C4    H77   S    
C91   H39   S    
C72   C78   A    
C25   H3    S    
C19   H78   S    
C66   H25   S    
C13   C62   A    
C20   C24   A    
C28   C35   A    
C65   C71   A    
C68   C69   D    
C92   H43   S    
N9    N15   A    
C83   Cl4   S    
C101  H62   S    
N1    Ni1   S    
C32   H4    S    
C3    H75   S    
C3    O6    S    
C90   O1    S    
C63   H19   S    
C18   C53   S    
C94   H47   S    
C86   H31   S    
C99   H57   S    
C16   H67   S    
C45   C47   A    
C66   C67   A    
C21   C27   A    
C58   N5    A    
C59   C60   A    
C2    H45   S    
C30   Cl1   S    
N2    N4    A    
C57   H24   S    
C8    H88   S    
C87   H28   S    
C3    H76   S    
C62   N9    A    
C104  C105  S    
C81   C83   A    
C98   H54   S    
C99   H58   S    
C85   C87   S    
N12   Ni2   S    
C63   C67   A    
C70   H33   S    
C33   C40   S    
C40   C58   A    
C74   C75   A    
N4    Ni2   S    
C100  H61   S    
C12   C55   S    
C14   C73   A    
N13   Ni1   S    
C77   Cl2   S    
C24   C25   A    
C5    H82   S    
C82   H35   S    
N15   Ni3   S    
C91   C92   S    
C91   H40   S    
C86   C87   D    
C16   C17   A    
C73   H12   S    
C39   C43   A    
C45   C52   A    
C9    N14   A    
C25   C26   A    
C53   C54   A    
C84   H23   S    
C105  H74   S    
N11   Ni4   S    
C79   C80   A    
C60   C61   A    
C67   C69   S    
C23   C31   A    
N3    Ni4   S    
C68   H22   S    
C22   H11   S    
C75   C76   A    
C56   H14   S    
C37   C38   A    
C59   C68   S    
C31   O3    S    
C38   H7    S    
C47   C48   A    
C62   H1    S    
C44   H9    S    
C30   C31   A    
N8    Ni1   S    
C74   H26   S    
C92   H42   S    
C65   C66   A    
C41   C47   A    
C10   H2    S    
C24   H89   S    
C52   C53   A    
C76   C77   A    
C7    H85   S    
C94   C96   S    
C34   H21   S    
C6    C7    S    
C42   C50   A    
C72   C74   A    
C48   C49   A    
C83   C85   A    
C43   H8    S    
C69   H17   S    
C98   C99   S    
C94   H48   S    
C97   H52   S    
C21   C23   A    
C49   O5    S    
C92   H41   S    
C105  H73   S    
C1    N1    A    
C102  H65   S    
C56   C57   A    
C55   C61   A    
C17   C19   A    
C3    C4    S    
C76   C86   S    
C82   N7    A    
C12   C51   A    
C44   C45   A    
C81   H27   S    
C99   H59   S    
N9    Ni2   S    
C105  H72   S    
N6    Ni4   S    
C1    C89   A    
C22   N2    A    
C96   H51   S    
C100  H60   S    
C27   C28   A    
C75   O7    S    
C95   H34   S    
C4    C5    S    
C70   N6    A    
N2    Ni3   S    
C98   H55   S    
C93   H46   S    
C15   C84   A    
C61   H20   S    
C16   C23   A    
N5    Ni1   S    
C2    N13   A    
C100  O4    S    
C13   C17   S    
C29   C46   A    
C103  H69   S    
C95   N12   A    
C32   C33   A    
C4    H79   S    
C93   H44   S    
C102  H66   S    
C46   N4    A    
C80   C88   A    
C64   H15   S    
C90   H38   S    
C14   C37   S    
C72   C89   S    
C11   C13   A    
C58   H32   S    
C90   C91   S    
C104  H71   S    
C80   O6    S    
C34   N3    A    
C6    O7    S    
C28   C30   A    
C100  C101  S    
C33   C35   A    
C79   Cl3   S    
C8    H87   S    
C1    O1    S    
C51   N8    A    
N11   N12   A    
C2    C14   A    
C9    C12   A    
N1    N7    A    
C81   C88   A    
C11   N15   A    
C5    H80   S    
C63   C64   A    
C52   H10   S    
C9    O2    S    
C96   H50   S    
C20   C21   A    
N6    N16   A    
C90   H37   S    
C49   C50   A    
C54   O4    S    
C6    H83   S    
C103  C104  S    
C11   H56   S    
C15   C88   S    
C8    H90   S    
C93   O2    S    
C103  H68   S    
C36   H6    S    
C7    H86   S    
C6    H84   S    
C65   H16   S    
C46   H30   S    
C29   C71   S    
