data_mof_unit_14444.cif
_audit_creation_date              2012-12-10T18:04:51-0500
_audit_creation_method            fapswitch 2.2
_symmetry_space_group_name_H-M    P1
_symmetry_Int_Tables_number       1
_space_group_crystal_system       triclinic
_cell_length_a                    10.777559
_cell_length_b                    9.504863
_cell_length_c                    17.776405
_cell_angle_alpha                 89.487124
_cell_angle_beta                  90.115432
_cell_angle_gamma                 90.15342
_cell_volume                      1820.91800238

loop_
_atom_site_label
_atom_site_type_symbol
_atom_type_description
_atom_site_fract_x
_atom_site_fract_y
_atom_site_fract_z
_atom_type_partial_charge
C1    C     C_R   0.262246 0.499776 0.499189 0.944619
C2    C     C_R   0.737578 0.500594 0.498773 0.952316
C3    C     C_1   0.485722 0.502338 0.967046 0.119301
C4    C     C_1   0.482718 0.504741 0.034371 0.110037
C5    C     C_R   0.064335 0.441899 0.560461 0.335525
C6    C     C_R   0.935223 0.561948 0.437415 0.351855
C7    C     C_R   0.934759 0.448286 0.561745 0.338772
C8    C     C_R   0.064993 0.557299 0.436598 0.337124
C9    C     C_R   0.499189 0.500621 0.355501 0.939643
C10   C     C_R   0.499750 0.499550 0.644817 0.922111
C11   C     C_R   0.871223 0.503222 0.499096 -0.364943
C12   C     C_R   0.128295 0.499530 0.498716 -0.364366
C13   C     C_R   0.504314 0.627939 0.846970 0.355532
C14   C     C_R   0.427896 0.395811 0.154713 0.376909
C15   C     C_R   0.537515 0.620846 0.152912 0.382728
C16   C     C_R   0.480334 0.373348 0.848565 0.351948
C17   C     C_R   0.501120 0.628520 0.768033 0.318170
C18   C     C_R   0.432278 0.393304 0.233556 0.324532
C19   C     C_R   0.544523 0.617573 0.231931 0.363619
C20   C     C_R   0.491349 0.371043 0.769751 0.336661
C21   C     C_R   0.497768 0.499397 0.728424 -0.376495
C22   C     C_R   0.492911 0.502981 0.272533 -0.364608
C23   C     C_R   0.416293 0.074978 0.457704 -0.018099
C24   C     C_R   0.583943 0.925046 0.542273 -0.031194
C25   C     C_R   0.584382 0.073989 0.541908 -0.013761
C26   C     C_R   0.416769 0.926259 0.457525 -0.058977
C27   C     C_R   0.490051 0.501130 0.886641 -0.229743
C28   C     C_R   0.480533 0.508760 0.114838 -0.242444
Cu1   Cu    Cu3+1 0.500000 0.640660 0.500000 0.950493
Cu2   Cu    Cu3+1 0.500000 0.359340 0.500000 0.987174
H1    H     H_    0.349249 0.131420 0.423792 0.134912
H2    H     H_    0.650999 0.868496 0.576229 0.132267
H3    H     H_    0.652455 0.129852 0.575003 0.132182
H4    H     H_    0.351281 0.870873 0.423000 0.111536
N1    N     N_R   0.500000 0.852070 0.500000 -0.162699
N2    N     N_R   0.500000 0.147930 0.500000 -0.158943
O1    O     O_R   0.319640 0.618740 0.499990 -0.595128
O2    O     O_R   0.680360 0.381260 0.500010 -0.575798
O3    O     O_R   0.680360 0.618740 0.500010 -0.616992
O4    O     O_R   0.319640 0.381260 0.499990 -0.594788
O5    O     O_R   0.500000 0.618830 0.391250 -0.571106
O6    O     O_R   0.500000 0.381170 0.608750 -0.533859
O7    O     O_R   0.500000 0.618830 0.608750 -0.553139
O8    O     O_R   0.500000 0.381170 0.391250 -0.555570
O9    O     O_3   0.512364 0.753635 0.885343 -0.571858
C29   C     C_3   0.638666 0.790055 0.892692 -0.263134
H5    H     H_    0.645154 0.891276 0.923045 0.187732
H6    H     H_    0.689897 0.709693 0.926371 0.164012
H7    H     H_    0.683496 0.805553 0.836865 0.171913
O10   O     O_3   0.364135 0.291757 0.116732 -0.555021
C30   C     C_3   0.446104 0.180103 0.102470 -0.261439
H8    H     H_    0.395347 0.099658 0.069647 0.172372
H9    H     H_    0.478343 0.129668 0.155701 0.172550
H10   H     H_    0.526936 0.215066 0.068113 0.168094
O11   O     O_3   0.599488 0.725933 0.113629 -0.537192
C31   C     C_3   0.512307 0.822089 0.083771 -0.331975
H11   H     H_    0.441968 0.854490 0.125970 0.127880
H12   H     H_    0.464369 0.779090 0.033800 0.210917
H13   H     H_    0.563123 0.917627 0.065012 0.182379
O12   O     O_3   0.468985 0.248675 0.888815 -0.566880
C32   C     C_3   0.342318 0.211941 0.892235 -0.238737
H14   H     H_    0.302909 0.194233 0.835160 0.174692
H15   H     H_    0.287787 0.293223 0.922326 0.160294
H16   H     H_    0.333241 0.111837 0.924333 0.178879
O13   O     O_3   0.510723 0.755943 0.730119 -0.559314
C33   C     C_3   0.392095 0.818160 0.726256 -0.205840
H17   H     H_    0.359535 0.850517 0.782812 0.182644
H18   H     H_    0.322887 0.746826 0.699661 0.141523
H19   H     H_    0.398228 0.914410 0.690668 0.181027
O14   O     O_3   0.385943 0.276748 0.271402 -0.566762
C34   C     C_3   0.259984 0.299892 0.288083 -0.226086
H20   H     H_    0.205870 0.336135 0.238106 0.190925
H21   H     H_    0.251628 0.375921 0.334640 0.190992
H22   H     H_    0.218380 0.199133 0.307538 0.148269
O15   O     O_3   0.615754 0.716471 0.269299 -0.535189
C35   C     C_3   0.551625 0.845645 0.273122 -0.219274
H23   H     H_    0.448611 0.834010 0.274591 0.115187
H24   H     H_    0.580037 0.915340 0.225872 0.182276
H25   H     H_    0.579503 0.899377 0.325638 0.167919
O16   O     O_3   0.485620 0.243056 0.733373 -0.545863
C36   C     C_3   0.603438 0.178971 0.737286 -0.244054
H26   H     H_    0.634233 0.160770 0.796317 0.184561
H27   H     H_    0.673847 0.242453 0.706291 0.165889
H28   H     H_    0.597583 0.074458 0.710283 0.181130
O17   O     O_3   0.129442 0.390808 0.622099 -0.566569
C37   C     C_3   0.128598 0.242423 0.620337 -0.231148
H29   H     H_    0.192105 0.202577 0.664828 0.182333
H30   H     H_    0.162643 0.201584 0.565614 0.146750
H31   H     H_    0.034574 0.199781 0.632477 0.177258
O18   O     O_3   0.871562 0.609165 0.374327 -0.534212
C38   C     C_3   0.845339 0.754417 0.381245 -0.188839
H32   H     H_    0.906080 0.811687 0.421744 0.081300
H33   H     H_    0.747292 0.769517 0.397554 0.212755
H34   H     H_    0.856597 0.805374 0.325283 0.187737
O19   O     O_3   0.870025 0.396332 0.623199 -0.576336
C39   C     C_3   0.853620 0.506567 0.674806 -0.316913
H35   H     H_    0.802073 0.465208 0.724252 0.166357
H36   H     H_    0.797607 0.593607 0.649954 0.150624
H37   H     H_    0.944308 0.547416 0.695393 0.186568
O20   O     O_3   0.129357 0.586255 0.370876 -0.579443
C40   C     C_3   0.145845 0.732405 0.361153 -0.267882
H38   H     H_    0.237560 0.750119 0.334554 0.157064
H39   H     H_    0.143049 0.793149 0.414529 0.123504
H40   H     H_    0.075908 0.773760 0.321042 0.186342

loop_
_geom_bond_atom_site_label_1
_geom_bond_atom_site_label_2
_ccdc_geom_bond_type
C18   O14   S    
C33   H18   S    
O11   C31   S    
C40   H38   S    
C10   O6    A    
C14   C18   A    
O19   C39   S    
C35   H25   S    
C36   H26   S    
O18   C38   S    
O17   C37   S    
C7    C11   A    
C29   H7    S    
C16   C20   A    
C35   H24   S    
C37   H30   S    
C9    C22   S    
C33   H19   S    
C39   H37   S    
C31   H11   S    
Cu2   O2    S    
C16   O12   S    
C23   C26   A    
C32   H15   S    
C1    O4    A    
C36   H27   S    
C2    O3    A    
C26   H4    S    
C39   H36   S    
O14   C34   S    
C1    O1    A    
C5    O17   S    
C16   C27   A    
C33   H17   S    
C40   H39   S    
Cu1   O7    S    
Cu2   O8    S    
C1    C12   S    
C2    C11   S    
C4    C28   S    
C10   C21   S    
C29   H6    S    
C24   N1    A    
C20   O16   S    
C30   H8    S    
C19   C22   A    
C24   C25   A    
C5    C12   A    
C38   H32   S    
C5    C7    A    
C37   H29   S    
C6    C8    A    
O9    C29   S    
C17   C21   A    
O12   C32   S    
C30   H9    S    
C23   H1    S    
C32   H16   S    
C15   C19   A    
O15   C35   S    
C24   H2    S    
Cu1   Cu2   S    
C38   H33   S    
C2    O2    A    
C8    C12   A    
C39   H35   S    
Cu1   O3    S    
O10   C30   S    
Cu2   O4    S    
C35   H23   S    
C15   O11   S    
O13   C33   S    
C40   H40   S    
C3    C4    T    
C6    C11   A    
C36   H28   S    
C34   H21   S    
C29   H5    S    
C9    O8    A    
Cu1   O5    S    
C10   O7    A    
C18   C22   A    
C17   O13   S    
Cu2   O6    S    
O16   C36   S    
C37   H31   S    
C34   H22   S    
Cu2   N2    S    
C7    O19   S    
Cu1   N1    S    
C9    O5    A    
C31   H13   S    
C13   C17   A    
C30   H10   S    
C19   O15   S    
C8    O20   S    
C34   H20   S    
C6    O18   S    
C38   H34   S    
C13   O9    S    
C15   C28   A    
C14   O10   S    
C3    C27   S    
O20   C40   S    
C31   H12   S    
C32   H14   S    
C25   N2    A    
C26   N1    A    
C20   C21   A    
C23   N2    A    
Cu1   O1    S    
C13   C27   A    
C14   C28   A    
C25   H3    S    
