data_mof_unit_31890.cif
_audit_creation_date              2012-12-10T18:59:13-0500
_audit_creation_method            fapswitch 2.2
_symmetry_space_group_name_H-M    P1
_symmetry_Int_Tables_number       1
_space_group_crystal_system       triclinic
_cell_length_a                    10.858806
_cell_length_b                    10.823418
_cell_length_c                    9.551315
_cell_angle_alpha                 90.757044
_cell_angle_beta                  90.56348
_cell_angle_gamma                 91.22921
_cell_volume                      1122.14651548

loop_
_atom_site_label
_atom_site_type_symbol
_atom_type_description
_atom_site_fract_x
_atom_site_fract_y
_atom_site_fract_z
_atom_type_partial_charge
C1    C     C_R   0.496926 0.262340 0.499209 0.782329
C2    C     C_R   0.061944 0.515003 0.631445 0.101191
C3    C     C_R   0.127248 0.508097 0.503398 -0.201781
C4    C     C_R   0.063221 0.481862 0.378409 -0.266579
C5    C     C_R   0.936661 0.462605 0.377341 0.429193
C6    C     C_R   0.871277 0.469040 0.504083 -0.249312
C7    C     C_R   0.480837 0.065868 0.624424 0.138890
C8    C     C_R   0.482502 0.129201 0.498378 -0.089870
C9    C     C_R   0.463325 0.062078 0.372929 -0.248609
C10   C     C_R   0.460633 0.933100 0.374452 -0.210935
C11   C     C_R   0.479563 0.870548 0.501004 -0.105169
C12   C     C_R   0.262151 0.506732 0.500463 0.820025
C13   C     C_R   0.479148 0.938779 0.626103 0.127908
C14   C     C_3   0.563263 0.937150 0.750731 -0.486518
C15   C     C_3   0.565487 0.077204 0.748009 -0.472245
C16   C     C_R   0.604421 0.531305 0.074423 0.115290
C17   C     C_R   0.405697 0.444697 0.072731 0.566441
C18   C     C_R   0.404570 0.449056 0.922902 -0.190041
C19   C     C_R   0.603556 0.532661 0.927933 0.143253
C20   C     C_3   0.675892 0.650807 0.924109 -0.548265
C21   C     C_3   0.685442 0.644825 0.083168 0.288569
C22   C     C_R   0.495048 0.737613 0.500654 0.776032
C23   C     C_R   0.737044 0.487035 0.500838 0.798493
C24   C     C_R   0.115086 0.559442 0.759253 -0.153126
C25   C     C_R   0.056823 0.538094 0.886207 -0.153500
C26   C     C_R   0.945059 0.473602 0.887466 -0.189749
C27   C     C_R   0.885746 0.441493 0.762085 -0.150765
C28   C     C_R   0.937943 0.474461 0.632465 0.054566
Cu1   Cu    Cu3+1 0.499990 0.499980 0.640670 0.930842
Cu2   Cu    Cu3+1 0.500010 0.500020 0.359330 1.007685
H1    H     H_    0.111211 0.475930 0.279814 0.211831
H2    H     H_    0.653997 0.896358 0.727002 0.198312
H3    H     H_    0.520325 0.120057 0.840083 0.192582
H4    H     H_    0.657166 0.117818 0.721469 0.192319
H5    H     H_    0.326552 0.411595 0.864285 0.167478
H6    H     H_    0.765669 0.642778 0.871285 0.184341
H7    H     H_    0.619069 0.727023 0.886454 0.220145
H8    H     H_    0.779275 0.622567 0.121523 0.126105
H9    H     H_    0.199851 0.613422 0.763174 0.158793
H10   H     H_    0.099515 0.569481 0.983620 0.153364
H11   H     H_    0.900905 0.453426 0.985141 0.182585
H12   H     H_    0.800146 0.389206 0.768468 0.154336
H13   H     H_    0.456568 0.108363 0.273539 0.162143
H14   H     H_    0.450714 0.883186 0.275904 0.198297
H15   H     H_    0.515531 0.900892 0.844496 0.201922
N1    N     N_R   0.500790 0.500930 0.147930 -0.209899
N2    N     N_R   0.500790 0.500890 0.852020 -0.192245
O1    O     O_R   0.500000 0.319640 0.618810 -0.584959
O2    O     O_R   0.500010 0.319680 0.381230 -0.576918
O3    O     O_R   0.319640 0.499980 0.618820 -0.603018
O4    O     O_R   0.319650 0.500020 0.381230 -0.524764
O5    O     O_R   0.499990 0.680320 0.618770 -0.578873
O6    O     O_R   0.500000 0.680360 0.381190 -0.534180
O7    O     O_R   0.680350 0.499980 0.618770 -0.586427
O8    O     O_R   0.680360 0.500020 0.381180 -0.548335
O9    O     O_3   0.309424 0.389123 0.144001 -0.561973
C29   C     C_3   0.286551 0.267432 0.093584 -0.398364
H16   H     H_    0.238935 0.214441 0.176478 0.197299
H17   H     H_    0.372720 0.217888 0.068486 0.143746
H18   H     H_    0.224202 0.267901 0.000727 0.170708
O10   O     O_3   0.629547 0.745422 0.151054 -0.571682
C30   C     C_3   0.718272 0.841209 0.177024 0.041946
H19   H     H_    0.668540 0.929657 0.182946 0.161033
H20   H     H_    0.785443 0.851290 0.089971 0.128574
C31   C     C_3   0.786240 0.822216 0.316908 -0.317007
H21   H     H_    0.718749 0.810073 0.401917 0.225059
H22   H     H_    0.842434 0.737855 0.311545 0.213501
C32   C     C_3   0.870845 0.932115 0.354747 -0.948343
H23   H     H_    0.942877 0.943959 0.274021 0.266634
H24   H     H_    0.916780 0.915662 0.457006 0.257585
H25   H     H_    0.816941 0.017912 0.363827 0.258334
O11   O     O_3   0.877982 0.446139 0.249292 -0.644064
C33   C     C_3   0.842851 0.320418 0.228605 0.072669
H26   H     H_    0.765050 0.318450 0.152076 0.164890
H27   H     H_    0.806188 0.276133 0.324896 0.109291
C34   C     C_3   0.950205 0.245881 0.169877 -0.380028
H28   H     H_    0.017227 0.308147 0.117213 0.247109
H29   H     H_    0.999309 0.201051 0.257629 0.204860
C35   C     C_3   0.905772 0.147451 0.063968 -0.938192
H30   H     H_    0.832011 0.088595 0.109482 0.254434
H31   H     H_    0.983816 0.088472 0.033690 0.255664
H32   H     H_    0.869093 0.191910 0.968507 0.257139

loop_
_geom_bond_atom_site_label_1
_geom_bond_atom_site_label_2
_ccdc_geom_bond_type
C8    C9    A    
Cu2   O4    S    
C16   C21   S    
C1    C8    S    
C33   H26   S    
C19   C20   S    
C34   C35   S    
C18   N2    A    
C7    C8    A    
C26   C27   A    
Cu1   Cu2   S    
Cu1   N2    S    
C34   H29   S    
C5    O11   S    
C32   H25   S    
C25   H10   S    
C5    C6    A    
C19   N2    A    
C29   H17   S    
Cu1   O7    S    
C24   H9    S    
O9    C29   S    
C30   H20   S    
C3    C12   S    
C6    C28   A    
C21   H8    S    
C32   H23   S    
C31   H22   S    
C22   O6    A    
C9    C10   A    
C15   H4    S    
C21   O10   S    
Cu1   O3    S    
C7    C15   S    
C13   C14   S    
C33   H27   S    
C14   H15   S    
C34   H28   S    
Cu2   O6    S    
C9    H13   S    
Cu1   O1    S    
C10   H14   S    
C17   N1    A    
C16   N1    A    
C35   H31   S    
O11   C33   S    
C29   H18   S    
C25   C26   A    
C30   H19   S    
C31   C32   S    
C17   C18   A    
C24   C25   A    
C17   O9    S    
Cu2   O2    S    
C2    C24   A    
C33   C34   S    
C3    C4    A    
C12   O4    A    
C23   O7    A    
C22   O5    A    
C18   H5    S    
C30   C31   S    
Cu2   N1    S    
C14   H2    S    
C4    C5    A    
C35   H32   S    
C12   O3    A    
C1    O1    A    
C23   O8    A    
Cu2   O8    S    
C11   C22   S    
C2    C3    A    
C20   H7    S    
C11   C13   A    
C27   H12   S    
C29   H16   S    
C16   C19   A    
C6    C23   S    
O10   C30   S    
C4    H1    S    
C10   C11   A    
C35   H30   S    
C20   H6    S    
C7    C13   A    
C20   C21   S    
C32   H24   S    
C31   H21   S    
C27   C28   A    
C14   C15   S    
C2    C28   A    
C1    O2    A    
C15   H3    S    
C26   H11   S    
Cu1   O5    S    
