data_mof_unit_57424.cif
_audit_creation_date              2012-12-10T17:27:49-0500
_audit_creation_method            fapswitch 2.2
_symmetry_space_group_name_H-M    P1
_symmetry_Int_Tables_number       1
_space_group_crystal_system       triclinic
_cell_length_a                    10.707033
_cell_length_b                    12.015645
_cell_length_c                    12.78614
_cell_angle_alpha                 93.430117
_cell_angle_beta                  92.172494
_cell_angle_gamma                 87.654691
_cell_volume                      1639.60171003

loop_
_atom_site_label
_atom_site_type_symbol
_atom_type_description
_atom_site_fract_x
_atom_site_fract_y
_atom_site_fract_z
_atom_type_partial_charge
C1    C     C_R   0.479887 0.521437 0.698337 0.973769
C2    C     C_R   0.414282 0.637939 0.859453 -0.019262
C3    C     C_R   0.456822 0.436806 0.863675 -0.226376
C4    C     C_R   0.739186 0.502763 0.511905 0.898672
C5    C     C_R   0.456980 0.444245 0.971236 0.178409
C6    C     C_R   0.439109 0.549597 0.023973 0.144725
C7    C     C_R   0.450680 0.558702 0.131650 -0.192124
C8    C     C_R   0.496713 0.358848 0.135005 -0.197524
C9    C     C_R   0.482662 0.348690 0.026819 -0.183977
C10   C     C_R   0.370508 0.953006 0.410921 -0.300510
C11   C     C_R   0.384187 0.837141 0.418543 0.034394
C12   C     C_R   0.945483 0.456609 0.603104 -0.004587
C13   C     C_R   0.559171 0.859387 0.536898 0.064480
C14   C     C_R   0.548402 0.976955 0.532143 0.020537
C15   C     C_R   0.452645 0.023778 0.468076 0.081424
C16   C     C_R   0.498504 0.477985 0.299157 0.930566
C17   C     C_R   0.442044 0.140740 0.462799 -0.035887
C18   C     C_R   0.615417 0.164194 0.582064 0.038559
C19   C     C_R   0.629943 0.049019 0.589759 -0.275326
C20   C     C_R   0.260483 0.498577 0.500350 0.905986
C21   C     C_R   0.895872 0.416257 0.695551 -0.116824
C22   C     C_R   0.972227 0.352907 0.762973 -0.135868
C23   C     C_R   0.872413 0.507790 0.522321 -0.152341
C24   C     C_R   0.099386 0.341933 0.749722 -0.160786
C25   C     C_R   0.151736 0.393184 0.668827 -0.161053
C26   C     C_R   0.076065 0.447499 0.591922 0.111505
C27   C     C_2   0.376037 0.739462 0.804011 0.977124
C28   C     C_2   0.660773 0.809425 0.601169 0.934606
C29   C     C_2   0.775611 0.455895 0.738663 0.899687
C30   C     C_2   0.104596 0.595413 0.334442 0.905793
C31   C     C_R   0.926692 0.556195 0.439902 -0.186590
C32   C     C_R   0.053920 0.549944 0.429490 -0.044603
C33   C     C_R   0.128189 0.496044 0.505946 -0.165463
C34   C     C_R   0.483294 0.464351 0.186973 -0.040011
C35   C     C_R   0.447934 0.533745 0.807905 -0.110319
C36   C     C_R   0.412868 0.644828 0.968446 -0.247298
H1    H     H_    0.868001 0.593443 0.379150 0.197395
H2    H     H_    0.436878 0.640114 0.171893 0.163995
H3    H     H_    0.519645 0.285002 0.177550 0.169273
H4    H     H_    0.392343 0.724424 0.010116 0.169697
H5    H     H_    0.382860 0.906635 0.799668 0.342333
H6    H     H_    0.473270 0.355322 0.824311 0.186705
H7    H     H_    0.845158 0.768483 0.614898 0.336958
H8    H     H_    0.808801 0.617551 0.721263 0.311416
H9    H     H_    0.935139 0.320159 0.832128 0.169150
H10   H     H_    0.087065 0.710923 0.226025 0.341708
H11   H     H_    0.496039 0.267303 0.986606 0.152576
H12   H     H_    0.369758 0.178540 0.413422 0.133243
H13   H     H_    0.678585 0.219112 0.625796 0.164797
H14   H     H_    0.296116 0.986916 0.361025 0.158287
H15   H     H_    0.704715 0.017558 0.640568 0.170472
H16   H     H_    0.320319 0.782836 0.374774 0.155317
H17   H     H_    0.158745 0.298795 0.805984 0.149189
H18   H     H_    0.252251 0.389068 0.669503 0.151507
N1    N     N_R   0.523130 0.207800 0.519340 -0.112842
N2    N     N_R   0.476870 0.792180 0.480660 -0.141756
O1    O     O_R   0.506170 0.421690 0.658830 -0.629955
O2    O     O_R   0.415496 0.843637 0.843809 -0.778240
O3    O     O_2   0.641707 0.786386 0.690744 -0.579831
O4    O     O_R   0.781115 0.798221 0.562157 -0.791888
O5    O     O_2   0.711978 0.390385 0.780247 -0.614350
O6    O     O_R   0.741220 0.569322 0.745038 -0.749029
O7    O     O_2   0.196007 0.550448 0.292773 -0.657755
O8    O     O_R   0.044644 0.688115 0.290570 -0.791743
O9    O     O_R   0.491330 0.609320 0.646410 -0.562282
O10   O     O_R   0.690660 0.406170 0.506210 -0.623263
O11   O     O_R   0.675810 0.593790 0.493790 -0.598132
O12   O     O_R   0.508670 0.390680 0.353590 -0.624767
O13   O     O_R   0.493830 0.578310 0.341170 -0.622281
O14   O     O_R   0.324190 0.406210 0.506210 -0.648219
O15   O     O_R   0.309340 0.593830 0.493790 -0.595814
O16   O     O_2   0.305816 0.732894 0.726360 -0.632009
Zn1   Zn    Zn3+2 0.509910 0.374720 0.508290 0.959179
Zn2   Zn    Zn3+2 0.490090 0.625280 0.491710 1.027451

loop_
_geom_bond_atom_site_label_1
_geom_bond_atom_site_label_2
_ccdc_geom_bond_type
C2    C35   A    
C4    O11   A    
C1    O9    A    
C29   O5    D    
C3    H6    S    
C5    C9    A    
C6    C7    A    
C16   O12   A    
C8    H3    S    
C1    O1    A    
O15   Zn2   S    
C17   N1    A    
C26   C33   A    
C31   C32   A    
C14   C15   A    
C17   H12   S    
C3    C35   A    
C27   O16   D    
C13   N2    A    
C16   C34   S    
C32   C33   A    
O12   Zn1   S    
O14   Zn1   S    
C24   H17   S    
O13   Zn2   S    
C13   C28   S    
O11   Zn2   S    
C8    C34   A    
C13   C14   A    
C24   C25   A    
C30   C32   S    
C12   C23   A    
C20   O14   A    
C10   H14   S    
C2    C27   S    
C12   C21   A    
H7    O4    S    
C20   C33   S    
C18   N1    A    
C30   O7    D    
C7    H2    S    
C6    C36   A    
H5    O2    S    
C9    H11   S    
C30   O8    S    
C10   C15   A    
C28   O4    S    
C12   C26   A    
C5    C6    A    
C7    C34   A    
C22   C24   A    
N2    Zn2   S    
C10   C11   A    
C16   O13   A    
C2    C36   A    
N1    Zn1   S    
C19   H15   S    
C36   H4    S    
C22   H9    S    
C25   H18   S    
C4    O10   A    
C18   C19   A    
C28   O3    D    
O1    Zn1   S    
C15   C17   A    
C1    C35   S    
C29   O6    S    
C11   H16   S    
O9    Zn2   S    
H8    O6    S    
C25   C26   A    
C21   C22   A    
O10   Zn1   S    
C21   C29   S    
C14   C19   A    
C27   O2    S    
C4    C23   S    
C11   N2    A    
C31   H1    S    
C18   H13   S    
H10   O8    S    
C8    C9    A    
C3    C5    A    
C20   O15   A    
C23   C31   A    
