data_mof_unit_34554.cif
_audit_creation_date              2012-12-11T15:31:56-0500
_audit_creation_method            fapswitch 2.2
_symmetry_space_group_name_H-M    P1
_symmetry_Int_Tables_number       1
_space_group_crystal_system       triclinic
_cell_length_a                    13.568111
_cell_length_b                    13.582489
_cell_length_c                    27.689567
_cell_angle_alpha                 90.32487
_cell_angle_beta                  90.143126
_cell_angle_gamma                 119.970474
_cell_volume                      4420.37870935

loop_
_atom_site_label
_atom_site_type_symbol
_atom_type_description
_atom_site_fract_x
_atom_site_fract_y
_atom_site_fract_z
_atom_type_partial_charge
C1    C     C_R   0.619626 0.898321 0.431330 0.551590
C2    C     C_R   0.683982 0.430060 0.222032 -0.102379
C3    C     C_R   0.675203 0.413250 0.271959 -0.092566
C4    C     C_R   0.670395 0.316004 0.291323 0.030462
C5    C     C_R   0.687296 0.349428 0.191197 0.032891
C6    C     C_1   0.694420 0.367658 0.139862 -0.058331
C7    C     C_1   0.652448 0.293256 0.342204 -0.046639
C8    C     C_1   0.701860 0.391918 0.097703 -0.011979
C9    C     C_1   0.233290 0.863719 0.382652 0.002637
C10   C     C_R   0.082528 0.766016 0.270727 -0.082238
C11   C     C_R   0.062412 0.754430 0.220984 -0.097276
C12   C     C_R   0.599733 0.218481 0.431275 0.546004
C13   C     C_R   0.250016 0.915542 0.207065 -0.093855
C14   C     C_R   0.271330 0.928592 0.257077 0.015829
C15   C     C_R   0.186582 0.852087 0.289178 0.056921
C16   C     C_R   0.146334 0.828408 0.189040 0.020173
C17   C     C_1   0.124297 0.813525 0.137831 -0.056934
C18   C     C_1   0.207289 0.856731 0.340558 -0.035904
C19   C     C_1   0.096888 0.794326 0.095857 -0.009895
C20   C     C_1   0.635219 0.865376 0.383896 0.024104
C21   C     C_R   0.716277 0.786329 0.271873 0.250883
C22   C     C_R   0.722244 0.775939 0.221826 -0.091042
C23   C     C_R   0.279558 0.878952 0.430538 0.551102
C24   C     C_R   0.590277 0.846026 0.209303 0.012441
C25   C     C_R   0.584716 0.856012 0.259601 -0.139719
C26   C     C_R   0.647624 0.827185 0.290891 0.038863
C27   C     C_R   0.660619 0.806141 0.190307 0.016708
C28   C     C_1   0.674276 0.796975 0.139040 -0.054054
C29   C     C_1   0.642896 0.844798 0.342085 0.016365
C30   C     C_1   0.692261 0.787057 0.097148 -0.014142
C31   C     C_R   0.630301 0.260208 0.618386 -0.014330
C32   C     C_R   0.673059 0.205658 0.647435 -0.131285
C33   C     C_R   0.679264 0.220829 0.696739 -0.169486
C34   C     C_R   0.620379 0.900656 0.569141 0.567277
C35   C     C_R   0.646537 0.293683 0.717763 0.034878
C36   C     C_R   0.609892 0.354427 0.688532 0.247459
C37   C     C_R   0.599541 0.335182 0.638828 -0.084956
C38   C     C_R   0.563103 0.294864 0.796921 -0.082233
C39   C     C_R   0.577845 0.323023 0.845518 -0.132798
C40   C     C_R   0.771589 0.354991 0.842214 -0.008257
C41   C     C_R   0.756294 0.330038 0.793045 -0.095981
C42   C     C_R   0.655069 0.306696 0.770030 0.050743
C43   C     C_R   0.684436 0.361871 0.867769 0.034401
C44   C     C_R   0.224918 0.863924 0.615190 0.027409
C45   C     C_R   0.600501 0.220613 0.569040 0.539138
C46   C     C_R   0.243813 0.958905 0.642793 -0.103845
C47   C     C_R   0.218285 0.947401 0.691623 -0.110134
C48   C     C_R   0.171497 0.840472 0.713318 0.033571
C49   C     C_R   0.144222 0.744143 0.684890 -0.110212
C50   C     C_R   0.171455 0.755887 0.636123 -0.119322
C51   C     C_R   0.175666 0.755002 0.792066 -0.118769
C52   C     C_R   0.147925 0.736669 0.840736 -0.128708
C53   C     C_R   0.084960 0.875310 0.838033 -0.123243
C54   C     C_R   0.111021 0.892274 0.789318 -0.114756
C55   C     C_R   0.153306 0.829739 0.765654 0.036325
C56   C     C_R   0.279898 0.881594 0.568266 0.543679
C57   C     C_R   0.098786 0.793937 0.863589 0.023402
C58   C     C_R   0.635865 0.862819 0.616756 0.028043
C59   C     C_R   0.537183 0.785614 0.641857 -0.152459
C60   C     C_R   0.542033 0.766640 0.690638 -0.115719
C61   C     C_R   0.645808 0.823165 0.715287 0.003469
C62   C     C_R   0.746131 0.893030 0.689870 -0.074465
C63   C     C_R   0.742080 0.913201 0.640779 0.227718
C64   C     C_R   0.717550 0.906013 0.796638 -0.126244
C65   C     C_R   0.731488 0.892701 0.845402 -0.125683
C66   C     C_R   0.600848 0.689833 0.837650 -0.120693
C67   C     C_1   0.631977 0.265644 0.383897 0.000192
C68   C     C_R   0.587303 0.703183 0.788809 -0.092937
C69   C     C_R   0.649329 0.810651 0.767669 0.033947
C70   C     C_R   0.677241 0.783815 0.865692 0.019776
C71   C     C_R   0.049262 0.761083 0.048232 0.545919
C72   C     C_R   0.714308 0.435863 0.049778 0.543593
C73   C     C_R   0.723448 0.770706 0.049533 0.544084
C74   C     C_R   0.044025 0.755985 0.910514 0.544053
C75   C     C_R   0.707425 0.426994 0.912882 0.546954
C76   C     C_R   0.717005 0.765573 0.912063 0.543196
C77   C     C_R   0.675523 0.236223 0.260561 -0.113678
C78   C     C_R   0.683848 0.252806 0.210579 -0.109746
Cr1   Cr    Cr6+3 0.417720 0.831920 0.499820 1.038818
Cr2   Cr    Cr6+3 0.668190 0.085770 0.500360 1.078896
Cr3   Cr    Cr6+3 0.414060 0.082260 0.499840 1.052480
Cr4   Cr    Cr6+3 0.908000 0.821090 0.979770 1.024905
Cr5   Cr    Cr6+3 0.912420 0.571130 0.979880 1.014640
Cr6   Cr    Cr6+3 0.657970 0.566940 0.980940 1.025535
H1    H     H_    0.671075 0.160246 0.275160 0.112414
H2    H     H_    0.776270 0.745205 0.207415 0.132524
H3    H     H_    0.531736 0.887476 0.274475 0.110361
H4    H     H_    0.694818 0.145099 0.632475 0.165502
H5    H     H_    0.481981 0.269786 0.779777 0.147478
H6    H     H_    0.507923 0.322092 0.864717 0.132389
H7    H     H_    0.707355 0.173483 0.718660 0.117446
H8    H     H_    0.825543 0.333952 0.772074 0.111431
H9    H     H_    0.686725 0.190181 0.187140 0.111101
H10   H     H_    0.566511 0.377260 0.616328 0.160636
H11   H     H_    0.285960 0.043491 0.627623 0.148276
H12   H     H_    0.211664 0.708478 0.774783 0.104027
H13   H     H_    0.160040 0.674085 0.859829 0.122433
H14   H     H_    0.240526 0.023032 0.712802 0.112692
H15   H     H_    0.092674 0.950102 0.769724 0.115456
H16   H     H_    0.046659 0.920379 0.854696 0.134702
H17   H     H_    0.104760 0.660242 0.700649 0.116007
H18   H     H_    0.155591 0.681459 0.615385 0.136506
H19   H     H_    0.454115 0.744956 0.624699 0.149286
H20   H     H_    0.687042 0.505393 0.207417 0.120634
H21   H     H_    0.763116 0.990227 0.781195 0.103679
H22   H     H_    0.789831 0.966613 0.866525 0.126373
H23   H     H_    0.463692 0.711995 0.709537 0.118865
H24   H     H_    0.533449 0.628633 0.767105 0.168313
H25   H     H_    0.558265 0.604861 0.852428 0.141001
H26   H     H_    0.827591 0.933338 0.708406 0.142475
H27   H     H_    0.670515 0.475035 0.295308 0.166077
H28   H     H_    0.017241 0.706767 0.294829 0.159880
H29   H     H_    0.981554 0.686942 0.207381 0.124294
H30   H     H_    0.314621 0.972973 0.182215 0.112121
O1    O     O_R   0.302900 0.805360 0.446400 -0.501807
O2    O     O_R   0.657980 0.180990 0.549630 -0.498365
O3    O     O_R   0.503420 0.197810 0.553190 -0.512515
O4    O     O_R   0.320350 0.978840 0.548910 -0.497269
O5    O     O_3   0.499990 0.999990 0.500010 -0.268605
O6    O     O_R   0.819150 0.845650 0.033320 -0.504916
O7    O     O_R   0.006060 0.815720 0.028680 -0.492797
O8    O     O_R   0.028100 0.664460 0.032550 -0.505316
O9    O     O_R   0.811290 0.477490 0.029660 -0.494881
O10   O     O_R   0.638120 0.455970 0.034270 -0.505735
O11   O     O_R   0.667540 0.672320 0.030160 -0.494129
O12   O     O_R   0.522090 0.841370 0.450730 -0.496105
O13   O     O_R   0.814460 0.840990 0.926980 -0.521169
O14   O     O_R   0.001710 0.811400 0.930110 -0.503007
O15   O     O_R   0.023410 0.659800 0.926210 -0.528337
O16   O     O_R   0.806940 0.473170 0.931090 -0.505745
O17   O     O_R   0.633420 0.451310 0.927930 -0.521768
O18   O     O_R   0.663190 0.668000 0.931580 -0.502165
O19   O     O_3   0.826130 0.653050 0.980200 -0.243609
O20   O     O_R   0.693280 0.995650 0.447220 -0.489834
O21   O     O_R   0.657260 0.178740 0.451050 -0.494294
O22   O     O_R   0.502640 0.195380 0.446850 -0.500027
O23   O     O_R   0.319630 0.976590 0.450330 -0.488666
O24   O     O_R   0.303680 0.807790 0.552740 -0.520166
O25   O     O_R   0.522820 0.843620 0.549310 -0.515666
O26   O     O_R   0.694060 0.998080 0.553560 -0.451387
C79   C     C_3   0.521100 0.879432 0.177828 -0.393609
H31   H     H_    0.530130 0.867485 0.138782 0.141647
H32   H     H_    0.429664 0.827161 0.187157 0.140811
H33   H     H_    0.548485 0.970331 0.184210 0.117022
C80   C     C_3   0.882765 0.378646 0.864795 -0.376169
H34   H     H_    0.866912 0.333323 0.899665 0.138210
H35   H     H_    0.928645 0.348243 0.841365 0.103495
H36   H     H_    0.939302 0.471401 0.870186 0.176936
Cl1   Cl    Cl    0.579746 0.457165 0.712219 -0.654656
Cl2   Cl    Cl    0.871708 0.002359 0.611547 -0.576385
C81   C     C_3   0.385007 0.024043 0.274134 -0.397564
H37   H     H_    0.395277 0.027928 0.313936 0.141144
H38   H     H_    0.453948 0.013293 0.258154 0.113170
H39   H     H_    0.395471 0.106547 0.262064 0.150661
Cl3   Cl    Cl    0.796995 0.749176 0.309628 -0.645391

loop_
_geom_bond_atom_site_label_1
_geom_bond_atom_site_label_2
_ccdc_geom_bond_type
C48   C55   S    
C66   C68   A    
C21   C26   A    
Cr1   O1    S    
C15   C18   S    
C41   C42   A    
C52   H13   S    
C71   O8    A    
C19   C71   S    
C35   C36   A    
C24   C27   A    
Cr4   O6    S    
C80   H34   S    
C64   H21   S    
C66   C70   A    
C77   C78   A    
Cr3   O23   S    
C38   H5    S    
C47   H14   S    
C40   C80   S    
C36   C37   A    
Cr5   O15   S    
C10   C15   A    
C79   H32   S    
C49   H17   S    
C38   C39   A    
C36   Cl1   S    
C16   C17   S    
C78   H9    S    
C45   O3    A    
C65   C70   A    
C32   H4    S    
Cr3   O3    S    
C34   O25   A    
C25   H3    S    
Cr2   O20   S    
C81   H39   S    
C35   C42   S    
C44   C50   A    
C17   C19   T    
C54   C55   A    
C40   C43   A    
C74   O14   A    
C46   H11   S    
Cr2   O2    S    
C3    H27   S    
C68   C69   A    
C12   O21   A    
Cr1   O5    S    
C14   C81   S    
C12   O22   A    
C81   H37   S    
C10   H28   S    
C39   H6    S    
C13   H30   S    
C75   O16   A    
C51   H12   S    
C22   H2    S    
Cr2   O5    S    
C77   H1    S    
C59   C60   A    
C66   H25   S    
C73   O6    A    
C21   C22   A    
C72   O10   A    
C4    C7    S    
C80   H35   S    
C44   C46   A    
C20   C29   T    
C53   H16   S    
C43   C75   S    
C12   C67   S    
Cr6   O19   S    
C8    C72   S    
C51   C52   A    
C1    O12   A    
Cr5   O16   S    
Cr1   O25   S    
C52   C57   A    
C79   H33   S    
C30   C73   S    
C53   C57   A    
C9    C23   S    
C6    C8    T    
C58   C59   A    
C53   C54   A    
C23   O1    A    
Cr3   O4    S    
Cr6   O18   S    
C31   C37   A    
C60   C61   A    
C57   C74   S    
C63   Cl2   S    
C62   C63   A    
C56   O24   A    
C11   C16   A    
C44   C56   S    
C47   C48   A    
C62   H26   S    
C2    H20   S    
C24   C79   S    
Cr1   O24   S    
C21   Cl3   S    
C64   C69   A    
C24   C25   A    
Cr2   O21   S    
Cr4   O14   S    
C60   H23   S    
C48   C49   A    
Cr1   O12   S    
C50   H18   S    
C22   C27   A    
C72   O9    A    
C70   C76   S    
C54   H15   S    
C13   C16   A    
C2    C5    A    
C1    O20   A    
C65   H22   S    
C80   H36   S    
Cr3   O22   S    
C61   C69   S    
Cr6   O11   S    
C46   C47   A    
C40   C41   A    
C1    C20   S    
Cr4   O7    S    
C56   O4    A    
C23   O23   A    
C31   C32   A    
C58   C63   A    
C39   C43   A    
C38   C42   A    
Cr6   O10   S    
Cr3   O5    S    
Cr6   O17   S    
C59   H19   S    
C64   C65   A    
Cr4   O19   S    
C28   C30   T    
C2    C3    A    
C25   C26   A    
C4    C77   A    
Cr2   O26   S    
C79   H31   S    
C32   C33   A    
C76   O18   A    
C45   O2    A    
C5    C6    S    
C73   O11   A    
C34   O26   A    
C33   C35   A    
C37   H10   S    
C51   C55   A    
C81   H38   S    
Cr5   O8    S    
C61   C62   A    
C11   H29   S    
Cr4   O13   S    
Cr5   O19   S    
C10   C11   A    
C7    C67   T    
C71   O7    A    
C9    C18   T    
C41   H8    S    
C75   O17   A    
C26   C29   S    
C49   C50   A    
C31   C45   S    
C74   O15   A    
C27   C28   S    
C34   C58   S    
C76   O13   A    
C14   C15   A    
C68   H24   S    
Cr5   O9    S    
C5    C78   A    
C13   C14   A    
C3    C4    A    
C33   H7    S    
