data_mof_unit_58136.cif
_audit_creation_date              2012-12-11T17:09:28-0500
_audit_creation_method            fapswitch 2.2
_symmetry_space_group_name_H-M    P1
_symmetry_Int_Tables_number       1
_space_group_crystal_system       triclinic
_cell_length_a                    14.815044
_cell_length_b                    6.94749
_cell_length_c                    13.503986
_cell_angle_alpha                 89.957143
_cell_angle_beta                  99.857806
_cell_angle_gamma                 90.04735
_cell_volume                      1369.40765768

loop_
_atom_site_label
_atom_site_type_symbol
_atom_type_description
_atom_site_fract_x
_atom_site_fract_y
_atom_site_fract_z
_atom_type_partial_charge
O1    O     O_R   0.586930 0.505770 0.416350 -0.542932
O2    O     O_R   0.413070 0.005770 0.583650 -0.545263
O3    O     O_R   0.397900 0.173100 0.389630 -0.535916
O4    O     O_R   0.602100 0.673100 0.610370 -0.535674
C1    C     C_R   0.364338 0.345394 0.362865 0.732611
C2    C     C_R   0.635660 0.845413 0.637139 0.731086
O5    O     O_R   0.585280 0.175870 0.404330 -0.550147
O6    O     O_R   0.414720 0.675870 0.595670 -0.549631
O7    O     O_R   0.601790 0.008380 0.598460 -0.534667
O8    O     O_R   0.398210 0.508380 0.401540 -0.532409
C3    C     C_R   0.614356 0.344777 0.382484 0.699605
C4    C     C_R   0.385948 0.844882 0.617871 0.690945
O9    O     O_3   0.505200 0.340120 0.563670 -0.377394
O10   O     O_3   0.494800 0.840120 0.436330 -0.374811
V1    V     V_3+5 0.499040 0.064180 0.488190 1.405080
V2    V     V_3+5 0.500960 0.564180 0.511810 1.406724
C5    C     C_R   0.261489 0.018195 0.686907 0.063405
C6    C     C_R   0.680257 0.502862 0.242344 0.154186
C7    C     C_R   0.315682 0.854259 0.683999 -0.094242
C8    C     C_R   0.680342 0.352174 0.311399 -0.144139
C9    C     C_R   0.302306 0.701717 0.747890 -0.133896
C10   C     C_R   0.743954 0.202396 0.308092 -0.187017
H1    H     H_    0.347430 0.580535 0.753537 0.118325
H2    H     H_    0.745947 0.081406 0.358784 0.120016
C11   C     C_R   0.236298 0.712092 0.811234 -0.145079
C12   C     C_R   0.810071 0.213942 0.244460 -0.174498
H3    H     H_    0.231471 0.595215 0.862913 0.131196
H4    H     H_    0.860487 0.100668 0.247357 0.125729
C13   C     C_R   0.181727 0.877332 0.813230 -0.089943
C14   C     C_R   0.815038 0.376366 0.182930 -0.117184
C15   C     C_R   0.194347 0.028483 0.748242 0.074491
C16   C     C_R   0.746276 0.515212 0.180428 0.116697
C17   C     C_3   0.217537 0.232266 0.776018 -0.396148
C18   C     C_3   0.752864 0.728693 0.190302 -0.424920
C19   C     C_3   0.293204 0.218598 0.713051 -0.198486
C20   C     C_3   0.679795 0.715726 0.257283 -0.221637
H5    H     H_    0.241361 0.250916 0.858157 0.197521
H6    H     H_    0.730702 0.802883 0.117170 0.196419
H7    H     H_    0.161270 0.331006 0.743247 0.148439
H8    H     H_    0.820838 0.774145 0.231711 0.152279
H9    H     H_    0.282756 0.314699 0.646192 0.095843
H10   H     H_    0.704698 0.757326 0.336713 0.095238
C21   C     C_1   0.783454 0.877134 0.782904 -0.179971
C22   C     C_1   0.216547 0.377151 0.217098 -0.174940
C23   C     C_1   0.716148 0.860124 0.716831 -0.173965
C24   C     C_1   0.283851 0.360100 0.283171 -0.169595
O11   O     O_R   0.101720 0.231700 0.098560 -0.535296
O12   O     O_R   0.898280 0.731700 0.901440 -0.534993
O13   O     O_R   0.914700 0.558980 0.095690 -0.542171
O14   O     O_R   0.085300 0.058980 0.904310 -0.540969
C25   C     C_R   0.885502 0.389645 0.117326 0.700499
C26   C     C_R   0.114891 0.889953 0.883131 0.697393
O15   O     O_R   0.102080 0.561590 0.110390 -0.536837
O16   O     O_R   0.897920 0.061590 0.889610 -0.536432
O17   O     O_R   0.086950 0.728940 0.916330 -0.543309
O18   O     O_R   0.913050 0.228940 0.083670 -0.539699
C27   C     C_R   0.136047 0.391944 0.137415 0.731778
C28   C     C_R   0.863954 0.891926 0.862581 0.734924
O19   O     O_3   0.994770 0.394510 0.936380 -0.370542
O20   O     O_3   0.005230 0.894510 0.063620 -0.370867
V3    V     V_3+5 0.000970 0.670520 0.011800 1.422737
V4    V     V_3+5 0.999030 0.170520 0.988200 1.426132
C29   C     C_2   0.389259 0.225684 0.773612 0.433004
H11   H     H_    0.442787 0.300229 0.743257 0.055428
O21   O     O_2   0.408286 0.144801 0.854888 -0.509695
C30   C     C_2   0.589946 0.807426 0.212384 0.454705
H12   H     H_    0.562972 0.923653 0.252079 0.065169
O22   O     O_2   0.547654 0.755499 0.131074 -0.512288

loop_
_geom_bond_atom_site_label_1
_geom_bond_atom_site_label_2
_ccdc_geom_bond_type
O4    V2    S    
C30   O22   D    
C14   C25   S    
C29   O21   D    
O9    V2    S    
O12   C28   A    
C7    C9    A    
C2    C23   S    
O11   C27   A    
O16   V4    S    
C1    C24   S    
C20   H10   S    
O1    C3    A    
C26   O17   A    
C22   C27   S    
O6    C4    A    
O18   V4    S    
O2    C4    A    
C2    O7    A    
O5    V1    S    
C30   H12   S    
O7    V1    S    
O3    V1    S    
C1    O8    A    
C13   C15   A    
O1    V2    S    
O8    V2    S    
C14   C16   A    
O2    V1    S    
C21   C23   T    
O12   V3    S    
C17   H7    S    
C6    C20   S    
O11   V4    S    
C19   H9    S    
O17   V3    S    
C4    C7    S    
O20   V4    S    
C12   H4    S    
C17   C19   S    
C18   C20   S    
C8    C10   A    
O5    C3    A    
C20   C30   S    
O9    V1    S    
C9    H1    S    
C11   C13   A    
C11   H3    S    
C5    C15   A    
O10   V2    S    
C3    C8    S    
O19   V3    S    
O14   V4    S    
C6    C16   A    
C15   C17   S    
C29   H11   S    
O13   V3    S    
C6    C8    A    
O4    C2    A    
C25   O18   A    
C10   C12   A    
C10   H2    S    
O16   C28   A    
O14   C26   A    
O15   C27   A    
O10   V1    S    
C18   H8    S    
O19   V4    S    
C9    C11   A    
O6    V2    S    
C5    C19   S    
C21   C28   S    
C5    C7    A    
C18   H6    S    
O15   V3    S    
C19   C29   S    
C13   C26   S    
C17   H5    S    
O13   C25   A    
C22   C24   T    
O20   V3    S    
O3    C1    A    
C12   C14   A    
C16   C18   S    
