data_mof_unit_22384.cif
_audit_creation_date              2012-12-11T16:44:12-0500
_audit_creation_method            fapswitch 2.2
_symmetry_space_group_name_H-M    P1
_symmetry_Int_Tables_number       1
_space_group_crystal_system       triclinic
_cell_length_a                    27.12935
_cell_length_b                    7.198745
_cell_length_c                    22.850748
_cell_angle_alpha                 89.999801
_cell_angle_beta                  101.414121
_cell_angle_gamma                 90.0
_cell_volume                      4374.42762616

loop_
_atom_site_label
_atom_site_type_symbol
_atom_type_description
_atom_site_fract_x
_atom_site_fract_y
_atom_site_fract_z
_atom_type_partial_charge
O1    O     O_R   0.707300 0.594030 0.176840 -0.530957
O2    O     O_R   0.292700 0.405970 0.823160 -0.530958
O3    O     O_R   0.792700 0.094030 0.323160 -0.530958
O4    O     O_R   0.207300 0.905970 0.676840 -0.530958
O5    O     O_R   0.697330 0.262360 0.295660 -0.542688
O6    O     O_R   0.302670 0.737640 0.704340 -0.542687
O7    O     O_R   0.802670 0.762360 0.204340 -0.542687
O8    O     O_R   0.197330 0.237640 0.795660 -0.542687
C1    C     C_R   0.684784 0.432458 0.311793 0.691851
C2    C     C_R   0.315216 0.567542 0.688207 0.691851
C3    C     C_R   0.815216 0.932458 0.188207 0.691851
C4    C     C_R   0.184784 0.067542 0.811793 0.691851
O9    O     O_R   0.701410 0.264250 0.175600 -0.529055
O10   O     O_R   0.298590 0.735750 0.824400 -0.529055
O11   O     O_R   0.798590 0.764250 0.324400 -0.529055
O12   O     O_R   0.201410 0.235750 0.675600 -0.529055
O13   O     O_R   0.796800 0.094950 0.202240 -0.530759
O14   O     O_R   0.203200 0.905050 0.797760 -0.530759
O15   O     O_R   0.703200 0.594950 0.297760 -0.530759
O16   O     O_R   0.296800 0.405050 0.702240 -0.530759
C5    C     C_R   0.689865 0.432612 0.153447 0.741677
C6    C     C_R   0.310135 0.567388 0.846553 0.741677
C7    C     C_R   0.810135 0.932612 0.346553 0.741677
C8    C     C_R   0.189865 0.067388 0.653447 0.741677
O17   O     O_3   0.781290 0.427390 0.258880 -0.376985
O18   O     O_3   0.218710 0.572610 0.741120 -0.376986
O19   O     O_3   0.718710 0.927390 0.241120 -0.376986
O20   O     O_3   0.281290 0.072610 0.758880 -0.376986
V1    V     V_3+5 0.744190 0.152150 0.248350 1.476787
V2    V     V_3+5 0.255810 0.847850 0.751650 1.476788
V3    V     V_3+5 0.755810 0.652150 0.251650 1.476788
V4    V     V_3+5 0.244190 0.347850 0.748350 1.476788
C9    C     C_R   0.155411 0.061034 0.594775 -0.103494
C10   C     C_R   0.844588 0.938966 0.405225 -0.103494
C11   C     C_R   0.344588 0.561032 0.905225 -0.103494
C12   C     C_R   0.655412 0.438968 0.094774 -0.103494
C13   C     C_R   0.140528 0.098817 0.487531 -0.159827
C14   C     C_R   0.859472 0.901183 0.512469 -0.159827
C15   C     C_R   0.359472 0.598812 0.012470 -0.159827
C16   C     C_R   0.640528 0.401188 0.987530 -0.159827
C17   C     C_R   0.173571 0.097633 0.542623 0.258766
C18   C     C_R   0.826429 0.902366 0.457377 0.258766
C19   C     C_R   0.326428 0.597629 0.957377 0.258766
C20   C     C_R   0.673572 0.402371 0.042623 0.258767
C21   C     C_R   0.103849 0.025842 0.591074 -0.262863
C22   C     C_R   0.896151 0.974158 0.408926 -0.262863
C23   C     C_R   0.396151 0.525842 0.908926 -0.262863
C24   C     C_R   0.603849 0.474158 0.091074 -0.262863
C25   C     C_R   0.069299 0.028363 0.535262 0.094430
C26   C     C_R   0.930701 0.971637 0.464737 0.094430
C27   C     C_R   0.430701 0.528362 0.964737 0.094430
C28   C     C_R   0.569299 0.471638 0.035263 0.094430
C29   C     C_R   0.088964 0.065597 0.483392 0.076785
C30   C     C_R   0.911036 0.934403 0.516608 0.076785
C31   C     C_R   0.411036 0.565594 0.016608 0.076785
C32   C     C_R   0.588964 0.434406 0.983392 0.076785
C33   C     C_R   0.016137 0.996815 0.529018 0.068282
C34   C     C_R   0.983862 0.003185 0.470982 0.068282
C35   C     C_R   0.483862 0.496815 0.970982 0.068282
C36   C     C_R   0.516138 0.503185 0.029018 0.068282
C37   C     C_R   0.005857 0.040525 0.421194 -0.181336
C38   C     C_R   0.994143 0.959474 0.578806 -0.181336
C39   C     C_R   0.494142 0.540523 0.078806 -0.181335
C40   C     C_R   0.505857 0.459477 0.921194 -0.181335
C41   C     C_R   0.057168 0.070714 0.427442 -0.167281
C42   C     C_R   0.942832 0.929285 0.572558 -0.167281
C43   C     C_R   0.442832 0.570710 0.072558 -0.167281
C44   C     C_R   0.557168 0.429290 0.927441 -0.167281
H1    H     H_    0.072156 0.099159 0.387750 0.138591
H2    H     H_    0.927844 0.900841 0.612250 0.138591
H3    H     H_    0.427843 0.599153 0.112250 0.138591
H4    H     H_    0.572157 0.400846 0.887750 0.138591
H5    H     H_    0.907937 0.000189 0.367354 0.104840
H6    H     H_    0.092063 0.999811 0.632646 0.104840
H7    H     H_    0.592063 0.500187 0.132646 0.104840
H8    H     H_    0.407937 0.499812 0.867354 0.104840
H9    H     H_    0.984402 0.047832 0.376291 0.124121
H10   H     H_    0.015598 0.952168 0.623709 0.124121
H11   H     H_    0.515598 0.547829 0.123709 0.124120
H12   H     H_    0.484402 0.452171 0.876291 0.124120
C45   C     C_R   0.875720 0.116115 0.140548 -0.122880
C46   C     C_R   0.124280 0.883885 0.859452 -0.122881
C47   C     C_R   0.624280 0.616114 0.359451 -0.122881
C48   C     C_R   0.375720 0.383886 0.640549 -0.122881
H13   H     H_    0.865609 0.241469 0.161577 0.131704
H14   H     H_    0.134391 0.758530 0.838423 0.131704
H15   H     H_    0.634391 0.741469 0.338423 0.131704
H16   H     H_    0.365609 0.258531 0.661577 0.131704
C49   C     C_R   0.911153 0.129460 0.103836 -0.069826
C50   C     C_R   0.088847 0.870540 0.896164 -0.069826
C51   C     C_R   0.588847 0.629459 0.396164 -0.069826
C52   C     C_R   0.411153 0.370541 0.603836 -0.069826
C53   C     C_R   0.925222 0.971822 0.074916 0.129944
C54   C     C_R   0.074777 0.028178 0.925084 0.129944
C55   C     C_R   0.574777 0.471822 0.425084 0.129944
C56   C     C_R   0.425223 0.528178 0.574916 0.129944
C57   C     C_R   0.904353 0.798911 0.085215 -0.105996
C58   C     C_R   0.095646 0.201089 0.914785 -0.105996
C59   C     C_R   0.595646 0.298910 0.414785 -0.105996
C60   C     C_R   0.404353 0.701090 0.585215 -0.105995
H17   H     H_    0.914957 0.674817 0.063891 0.148815
H18   H     H_    0.085043 0.325183 0.936109 0.148815
H19   H     H_    0.585043 0.174816 0.436109 0.148816
H20   H     H_    0.414957 0.825184 0.563891 0.148816
C61   C     C_R   0.869083 0.784964 0.122392 -0.136011
C62   C     C_R   0.130917 0.215036 0.877607 -0.136011
C63   C     C_R   0.630917 0.284964 0.377608 -0.136011
C64   C     C_R   0.369083 0.715036 0.622392 -0.136011
C65   C     C_R   0.853949 0.943863 0.150206 -0.054433
C66   C     C_R   0.146051 0.056136 0.849794 -0.054433
C67   C     C_R   0.646051 0.443863 0.349794 -0.054433
C68   C     C_R   0.353949 0.556137 0.650206 -0.054433
C69   C     C_R   0.005986 0.874202 0.047356 -0.214645
C70   C     C_R   0.994014 0.125797 0.952644 -0.214645
C71   C     C_R   0.494013 0.374202 0.452644 -0.214645
C72   C     C_R   0.505986 0.625797 0.547356 -0.214645
H21   H     H_    0.011406 0.778204 0.084599 0.160990
H22   H     H_    0.988594 0.221795 0.915401 0.160990
H23   H     H_    0.488594 0.278204 0.415401 0.160990
H24   H     H_    0.511406 0.721795 0.584599 0.160990
C73   C     C_R   0.043004 0.886903 0.012543 0.304589
C74   C     C_R   0.956996 0.113096 0.987457 0.304589
C75   C     C_R   0.456996 0.386904 0.487457 0.304589
C76   C     C_R   0.543004 0.613096 0.512543 0.304589
C77   C     C_R   0.037145 0.013241 0.964318 -0.033977
C78   C     C_R   0.962855 0.986759 0.035682 -0.033977
C79   C     C_R   0.462855 0.513242 0.535682 -0.033976
C80   C     C_R   0.537145 0.486758 0.464318 -0.033976
Br1   Br    Br    0.102139 0.736439 0.035461 -0.479792
Br2   Br    Br    0.897860 0.263560 0.964539 -0.479792
Br3   Br    Br    0.397861 0.236440 0.464539 -0.479793
Br4   Br    Br    0.602139 0.763559 0.535461 -0.479793
Br5   Br    Br    0.756462 0.853518 0.455192 -0.493079
Br6   Br    Br    0.243537 0.146482 0.544808 -0.493079
Br7   Br    Br    0.743538 0.353524 0.044808 -0.493079
Br8   Br    Br    0.256462 0.646475 0.955192 -0.493079
H25   H     H_    0.155261 0.127217 0.447672 0.164126
H26   H     H_    0.844739 0.872783 0.552328 0.164126
H27   H     H_    0.344739 0.627210 0.052328 0.164126
H28   H     H_    0.655261 0.372790 0.947672 0.164126
H29   H     H_    0.927746 0.263452 0.098121 0.129353
H30   H     H_    0.072254 0.736548 0.901879 0.129353
H31   H     H_    0.572254 0.763452 0.401879 0.129353
H32   H     H_    0.427746 0.236548 0.598121 0.129353
H33   H     H_    0.853244 0.650050 0.128667 0.150233
H34   H     H_    0.146756 0.349950 0.871332 0.150233
H35   H     H_    0.646756 0.150049 0.371333 0.150232
H36   H     H_    0.353244 0.849951 0.628667 0.150232

loop_
_geom_bond_atom_site_label_1
_geom_bond_atom_site_label_2
_ccdc_geom_bond_type
O17   V3    S    
C59   H19   S    
O1    C5    A    
C53   C57   A    
C3    C65   S    
C9    C21   A    
O3    C7    A    
C1    C67   S    
C10   C18   A    
O1    V3    S    
O15   V3    S    
C4    C66   S    
C25   C33   A    
C33   C38   A    
C5    C12   S    
C39   H11   S    
O7    C3    A    
C6    C11   S    
C35   C40   A    
C48   C68   A    
C18   Br5   S    
C46   C66   A    
O9    V1    S    
C23   H8    S    
C14   C18   A    
O16   V4    S    
O4    C8    A    
C55   C59   A    
C43   H3    S    
O19   V1    S    
C54   C58   A    
C16   H28   S    
C52   C56   A    
O13   V1    S    
C31   C43   A    
C76   Br4   S    
O2    V4    S    
C32   C44   A    
O3    V1    S    
C53   C78   S    
C28   C36   A    
C55   C80   S    
C1    O15   A    
C60   H20   S    
C15   C31   A    
C37   H9    S    
C16   C32   A    
C72   C79   A    
O2    C6    A    
C2    C68   S    
C10   C22   A    
C11   C19   A    
C73   Br1   S    
C16   C20   A    
O5    V1    S    
C44   H4    S    
C76   C80   A    
C13   C29   A    
C34   C37   A    
O11   C7    A    
C11   C23   A    
C35   C36   A    
O12   C8    A    
C13   H25   S    
C49   C53   A    
C40   H12   S    
C24   H7    S    
C59   C63   A    
O10   V2    S    
C17   Br6   S    
C50   C54   A    
C51   H31   S    
C39   C43   A    
C60   C64   A    
O7    V3    S    
C38   C42   A    
O8    V4    S    
C71   C75   A    
C2    O16   A    
C70   C77   A    
O18   V4    S    
C23   C27   A    
C69   C78   A    
C46   H14   S    
C71   C80   A    
C72   H24   S    
C56   C79   S    
C21   H6    S    
C26   C34   A    
C74   C78   A    
C73   C77   A    
C37   C41   A    
C63   H35   S    
C49   H29   S    
C57   H17   S    
C75   C79   A    
C14   C30   A    
C21   C25   A    
O8    C4    A    
C7    C10   S    
C61   H33   S    
C14   H26   S    
O9    C5    A    
C26   C30   A    
C46   C50   A    
C50   H30   S    
C70   H22   S    
C69   H21   S    
O6    V2    S    
C45   C65   A    
C71   H23   S    
C36   C39   A    
O14   V2    S    
C47   C67   A    
C12   C20   A    
C27   C35   A    
C40   C44   A    
C29   C41   A    
C62   C66   A    
C54   C77   S    
C41   H1    S    
C61   C65   A    
C3    O13   A    
C72   C76   A    
C75   Br3   S    
C63   C67   A    
C38   H10   S    
C48   H16   S    
O5    C1    A    
C62   H34   S    
C47   H15   S    
O6    C2    A    
C15   C19   A    
O11   V3    S    
C30   C42   A    
O12   V4    S    
C47   C51   A    
C22   C26   A    
C8    C9    S    
C58   C62   A    
C9    C17   A    
O10   C6    A    
O20   V2    S    
C57   C61   A    
C58   H18   S    
C33   C34   A    
C42   H2    S    
C20   Br7   S    
C25   C29   A    
C56   C60   A    
C12   C24   A    
C27   C31   A    
C22   H5    S    
C45   C49   A    
C13   C17   A    
C19   Br8   S    
C52   H32   S    
O4    V2    S    
C51   C55   A    
C70   C74   A    
C64   C68   A    
C24   C28   A    
C69   C73   A    
C4    O14   A    
C48   C52   A    
C74   Br2   S    
C15   H27   S    
C45   H13   S    
C28   C32   A    
C64   H36   S    
