data_mof_unit_39863.cif
_audit_creation_date              2012-12-11T21:14:47-0500
_audit_creation_method            fapswitch 2.2
_symmetry_space_group_name_H-M    P1
_symmetry_Int_Tables_number       1
_space_group_crystal_system       triclinic
_cell_length_a                    8.464388
_cell_length_b                    18.889846
_cell_length_c                    26.858049
_cell_angle_alpha                 100.27384
_cell_angle_beta                  92.609595
_cell_angle_gamma                 87.684186
_cell_volume                      4218.84680624

loop_
_atom_site_label
_atom_site_type_symbol
_atom_type_description
_atom_site_fract_x
_atom_site_fract_y
_atom_site_fract_z
_atom_type_partial_charge
Ba1   Ba    Ba6+2 0.160810 0.465630 0.521640 1.595478
Ba2   Ba    Ba6+2 0.649380 0.534380 0.478400 1.614895
C1    C     C_3   0.356447 0.292754 0.699679 -0.226724
C2    C     C_R   0.080386 0.095971 0.457248 0.030549
C3    C     C_R   0.230466 0.071525 0.437997 0.068871
C4    C     C_3   0.895616 0.282467 0.652812 0.416562
C5    C     C_R   0.288016 0.001632 0.440902 -0.086991
C6    C     C_R   0.198270 0.954094 0.461194 0.014089
C7    C     C_R   0.049747 0.977280 0.480644 0.012666
C8    C     C_R   0.254819 0.883158 0.460950 -0.106395
C9    C     C_R   0.163447 0.832805 0.478596 -0.030063
C10   C     C_R   0.015602 0.856125 0.499916 0.002871
C11   C     C_R   0.959655 0.928784 0.501041 -0.001295
C12   C     C_3   0.347204 0.313727 0.647087 0.322858
C13   C     C_R   0.214227 0.759519 0.474661 -0.041775
C14   C     C_R   0.116798 0.710798 0.490917 -0.282394
C15   C     C_R   0.976515 0.732924 0.515586 0.075979
C16   C     C_3   0.889390 0.233428 0.692762 -0.327417
C17   C     C_R   0.924483 0.807289 0.520424 -0.060137
C18   C     C_R   0.842686 0.072337 0.498853 0.004761
C19   C     C_R   0.783744 0.144239 0.498100 -0.007507
C20   C     C_R   0.875583 0.193196 0.478018 -0.058403
C21   C     C_R   0.017941 0.166177 0.455014 -0.038454
C22   C     C_R   0.784360 0.834675 0.544645 -0.064736
C23   C     C_3   0.448351 0.303932 0.369800 0.284304
C24   C     C_R   0.723329 0.905417 0.543525 0.033026
C25   C     C_R   0.812126 0.952654 0.521377 -0.018582
C26   C     C_R   0.753615 0.024079 0.519869 0.012430
C27   C     C_R   0.574068 0.930147 0.563389 0.074901
C28   C     C_3   0.799359 0.674014 0.644257 0.394430
C29   C     C_R   0.516644 0.000029 0.560387 -0.083243
C30   C     C_R   0.605202 0.047188 0.539300 0.009320
C31   C     C_R   0.634017 0.166993 0.518180 -0.046759
C32   C     C_R   0.546088 0.117303 0.537879 -0.095543
C33   C     C_R   0.575282 0.238375 0.517575 0.025800
C34   C     C_3   0.431908 0.230205 0.336833 -0.410414
C35   C     C_R   0.663800 0.285628 0.495487 -0.239313
C36   C     C_R   0.820042 0.266737 0.480372 0.078111
C37   C     C_R   0.273991 0.472634 0.175300 0.585152
C38   C     C_R   0.293733 0.600921 0.191624 0.594658
C39   C     C_2   0.076896 0.570896 0.276789 -0.111948
C40   C     C_3   0.703701 0.745033 0.664096 -0.030582
C41   C     C_3   0.049419 0.580949 0.332982 -0.088296
C42   C     C_1   0.279058 0.499997 0.340269 0.060794
C43   C     C_2   0.327746 0.509235 0.295610 -0.094935
C44   C     C_2   0.215756 0.539847 0.259534 0.235622
C45   C     C_3   0.881258 0.733766 0.354608 0.374264
C46   C     C_R   0.362900 0.533162 0.108754 -0.099262
C47   C     C_R   0.324283 0.469422 0.125616 -0.023835
C48   C     C_R   0.336476 0.403325 0.092512 -0.064017
C49   C     C_R   0.349541 0.600301 0.142049 -0.051089
C50   C     C_2   0.138795 0.524223 0.357988 -0.205092
C51   C     C_2   0.640136 0.479844 0.643151 -0.269495
C52   C     C_3   0.938165 0.349343 0.354899 0.292183
C53   C     C_R   0.481772 0.457927 0.975307 0.020044
C54   C     C_R   0.473759 0.589903 0.988265 0.022621
C55   C     C_R   0.496853 0.522469 0.956214 0.050262
C56   C     C_3   0.822692 0.809735 0.348592 -0.173921
C57   C     C_R   0.519427 0.392034 0.943237 -0.103853
C58   C     C_R   0.562104 0.389865 0.893439 -0.071158
C59   C     C_R   0.567070 0.453136 0.873177 -0.028804
C60   C     C_R   0.533806 0.519661 0.904511 -0.080481
C61   C     C_R   0.538312 0.583464 0.884329 -0.030223
C62   C     C_R   0.576159 0.579865 0.833218 0.586353
C63   C     C_R   0.603629 0.451252 0.822142 0.569803
C64   C     C_3   0.916105 0.315928 0.297873 0.082627
C65   C     C_2   0.765460 0.486896 0.729255 -0.090134
C66   C     C_3   0.793036 0.486365 0.674228 -0.035913
C67   C     C_3   0.313503 0.736396 0.357464 0.341854
C68   C     C_1   0.516485 0.518872 0.661939 0.054894
C69   C     C_2   0.491721 0.529477 0.712147 -0.042823
C70   C     C_2   0.623961 0.510279 0.748192 0.227226
C71   C     C_R   0.427891 0.461491 0.025348 0.028972
C72   C     C_R   0.412992 0.529347 0.058229 0.030691
C73   C     C_R   0.451028 0.592982 0.041058 -0.000577
C74   C     C_R   0.386590 0.399358 0.043539 -0.102283
C75   C     C_R   0.400467 0.663340 0.125534 0.071833
C76   C     C_3   0.303716 0.684065 0.593650 0.310639
C77   C     C_R   0.464871 0.652143 0.965778 -0.112023
C78   C     C_3   0.334832 0.776494 0.314083 -0.306563
C79   C     C_R   0.500146 0.649278 0.915271 -0.069052
C80   C     C_R   0.468629 0.656997 0.077564 0.058954
C81   C     C_3   0.243423 0.758093 0.619277 -0.411604
C82   C     C_3   0.606121 0.740513 0.710410 -0.389997
C83   C     C_3   0.808400 0.811323 0.676912 -0.379471
C84   C     C_3   0.040226 0.255108 0.282452 -0.340693
C85   C     C_3   0.936438 0.375142 0.266026 -0.408319
C86   C     C_3   0.750925 0.285596 0.286181 -0.354408
C87   C     C_3   0.315521 0.355878 0.741493 -0.402184
C88   C     C_3   0.728257 0.848937 0.393229 -0.333997
C89   C     C_R   0.991413 0.048780 0.479299 -0.013335
C90   C     C_3   0.982147 0.240429 0.607209 -0.317172
C91   C     C_3   0.328897 0.117318 0.412160 -0.423010
C92   C     C_3   0.473261 0.883944 0.588263 -0.428002
C93   C     C_3   0.726293 0.300681 0.637317 -0.328725
C94   C     C_3   0.586137 0.355492 0.485513 -0.233642
C95   C     C_3   0.386775 0.737364 0.158692 -0.337875
C96   C     C_3   0.346097 0.569355 0.734987 -0.329424
C97   C     C_3   0.588606 0.711796 0.070501 -0.415350
C98   C     C_3   0.071959 0.501438 0.403865 -0.213626
C99   C     C_3   0.888128 0.645055 0.687917 -0.370535
H1    H     H_    0.227736 0.333362 0.638085 0.129191
H2    H     H_    0.308694 0.213304 0.336858 0.107102
H3    H     H_    0.275151 0.248425 0.700500 0.116042
H4    H     H_    0.969691 0.716751 0.325073 -0.067055
H5    H     H_    0.928230 0.841645 0.345361 0.053626
H6    H     H_    0.750435 0.807254 0.312736 0.102485
H7    H     H_    0.439152 0.753699 0.292318 0.154177
H8    H     H_    0.352793 0.834411 0.329135 0.073441
H9    H     H_    0.156950 0.655179 0.487399 0.042351
H10   H     H_    0.369619 0.867448 0.445769 0.092077
H11   H     H_    0.081691 0.199706 0.435085 0.117930
H12   H     H_    0.619451 0.754057 0.632851 0.089227
H13   H     H_    0.719358 0.800522 0.563587 0.104705
H14   H     H_    0.429553 0.132132 0.551928 0.116575
H15   H     H_    0.443262 0.488515 0.282810 0.100321
H16   H     H_    0.862717 0.473949 0.754246 0.097791
H17   H     H_    0.387695 0.346618 0.020268 0.065111
H18   H     H_    0.010467 0.218945 0.706017 0.102622
H19   H     H_    0.494920 0.698953 0.900299 0.116013
H20   H     H_    0.825358 0.261598 0.726254 0.144859
H21   H     H_    0.549086 0.688079 0.706177 0.148247
H22   H     H_    0.682409 0.746690 0.745596 0.149075
H23   H     H_    0.847886 0.393122 0.363234 0.031494
H24   H     H_    0.512993 0.784029 0.715306 0.120325
H25   H     H_    0.734178 0.860596 0.689314 0.107375
H26   H     H_    0.896379 0.805521 0.707949 0.120705
H27   H     H_    0.872747 0.819701 0.643528 0.124095
H28   H     H_    0.062088 0.365148 0.359131 0.006316
H29   H     H_    0.160107 0.277308 0.285308 0.147393
H30   H     H_    0.036376 0.213609 0.306901 0.120778
H31   H     H_    0.018509 0.228483 0.242491 0.108208
H32   H     H_    0.923034 0.353037 0.224894 0.154170
H33   H     H_    0.846599 0.419454 0.275388 0.125206
H34   H     H_    0.201931 0.651850 0.577182 0.055396
H35   H     H_    0.055562 0.398267 0.273466 0.138982
H36   H     H_    0.735705 0.241909 0.308029 0.125761
H37   H     H_    0.658920 0.328848 0.295708 0.130212
H38   H     H_    0.734472 0.262620 0.245276 0.109096
H39   H     H_    0.187985 0.370601 0.740253 0.179427
H40   H     H_    0.345123 0.340710 0.778972 0.146773
H41   H     H_    0.383128 0.403443 0.737774 0.151470
H42   H     H_    0.185490 0.788261 0.591362 0.061840
H43   H     H_    0.342756 0.789491 0.638750 0.110820
H44   H     H_    0.478424 0.272469 0.707528 0.131340
H45   H     H_    0.384441 0.690065 0.563319 0.033574
H46   H     H_    0.385635 0.302669 0.404716 0.021121
H47   H     H_    0.459682 0.231472 0.297051 0.134190
H48   H     H_    0.828288 0.182737 0.677160 0.071673
H49   H     H_    0.940107 0.735702 0.392737 -0.030252
H50   H     H_    0.767234 0.905218 0.404183 0.089312
H51   H     H_    0.600908 0.851701 0.382154 0.147230
H52   H     H_    0.743555 0.822276 0.426807 0.160488
H53   H     H_    0.206458 0.760505 0.376940 -0.086274
H54   H     H_    0.296229 0.678555 0.342110 0.033492
H55   H     H_    0.227203 0.772053 0.288670 0.111291
H56   H     H_    0.158774 0.752732 0.648574 0.154368
H57   H     H_    0.994685 0.273981 0.577929 0.141418
H58   H     H_    0.100362 0.220791 0.619051 0.127298
H59   H     H_    0.915638 0.192124 0.590179 0.066280
H60   H     H_    0.352110 0.169524 0.437130 0.127522
H61   H     H_    0.445214 0.090997 0.401457 0.111647
H62   H     H_    0.262945 0.125861 0.377127 0.104322
H63   H     H_    0.402439 0.983390 0.425943 0.065521
H64   H     H_    0.446399 0.833487 0.561897 0.137154
H65   H     H_    0.536591 0.871806 0.622845 0.101372
H66   H     H_    0.358413 0.911158 0.599714 0.114235
H67   H     H_    0.427885 0.358321 0.646665 0.017272
H68   H     H_    0.402100 0.018258 0.575233 0.072334
H69   H     H_    0.671939 0.336136 0.669855 0.098805
H70   H     H_    0.720768 0.327668 0.603880 0.036510
H71   H     H_    0.661915 0.250048 0.627108 0.110156
H72   H     H_    0.618592 0.369883 0.449841 0.081835
H73   H     H_    0.458153 0.351080 0.478084 0.128100
H74   H     H_    0.614024 0.400014 0.517156 0.138780
H75   H     H_    0.306051 0.353807 0.104315 0.116848
H76   H     H_    0.589187 0.337902 0.870517 0.113892
H77   H     H_    0.520282 0.340991 0.955883 0.066701
H78   H     H_    0.576309 0.313456 0.376081 0.017614
H79   H     H_    0.994587 0.594944 0.251912 0.082124
H80   H     H_    0.417851 0.781811 0.139492 0.086384
H81   H     H_    0.262092 0.749612 0.169274 0.146217
H82   H     H_    0.465912 0.739590 0.193019 0.138699
H83   H     H_    0.426356 0.703687 0.986607 0.081001
H84   H     H_    0.307115 0.544148 0.766457 0.100179
H85   H     H_    0.372784 0.626352 0.749622 0.138040
H86   H     H_    0.244187 0.569733 0.708272 0.152316
H87   H     H_    0.671770 0.690049 0.040318 0.125047
H88   H     H_    0.528537 0.761742 0.061843 0.108984
H89   H     H_    0.512572 0.190378 0.351687 0.075720
H90   H     H_    0.664155 0.725666 0.105551 0.120383
H91   H     H_    0.110653 0.450032 0.413296 0.086657
H92   H     H_    0.091444 0.543333 0.437865 0.132093
H93   H     H_    0.948810 0.487846 0.396170 0.109148
H94   H     H_    0.635322 0.448157 0.605317 0.059450
H95   H     H_    0.718988 0.631966 0.624467 -0.001527
H96   H     H_    0.966255 0.598653 0.672360 0.125443
H97   H     H_    0.965290 0.686298 0.710197 0.111826
H98   H     H_    0.805142 0.627792 0.713770 0.078566
N1    N     N_R   0.258999 0.537821 0.207491 -0.420702
N2    N     N_R   0.600042 0.513954 0.802016 -0.422630
O1    O     O_2   0.106080 0.324280 0.466820 -0.468174
O2    O     O_2   0.722018 0.543932 0.325017 -0.490569
O3    O     O_3   0.756506 0.685391 0.347466 -0.545611
O4    O     O_3   0.859130 0.413620 0.470620 -0.501782
O5    O     O_3   0.459240 0.537930 0.559910 -0.484692
O6    O     O_2   0.583120 0.462390 0.379940 -0.470533
O7    O     O_3   0.375465 0.355249 0.344318 -0.648460
O8    O     O_2   0.544660 0.755884 0.482719 -0.488106
O9    O     O_3   0.449600 0.743852 0.389513 -0.562115
O10   O     O_2   0.242713 0.417311 0.189936 -0.608920
O11   O     O_2   0.638471 0.393728 0.795558 -0.618745
O12   O     O_3   0.387041 0.652652 0.630488 -0.651022
O13   O     O_2   0.278522 0.657313 0.221299 -0.636273
O14   O     O_2   0.589598 0.635408 0.816635 -0.615737
O15   O     O_3   0.376230 0.370290 0.556910 -0.500005
O16   O     O_2   0.242428 0.244664 0.522927 -0.497615
O17   O     O_3   0.917694 0.299658 0.386642 -0.659591
O18   O     O_3   0.385860 0.252648 0.611181 -0.645609
O19   O     O_2   0.227190 0.537650 0.620070 -0.453618
O20   O     O_3   0.971110 0.406970 0.583250 -0.474804
O21   O     O_2   0.108918 0.459207 0.669906 -0.496980
O22   O     O_3   0.979163 0.343706 0.676360 -0.609013
O23   O     O_2   0.704230 0.675760 0.533200 -0.476852
O24   O     O_3   0.951180 0.586390 0.529420 -0.479588
O25   O     O_3   0.434080 0.629720 0.443130 -0.450466
O26   O     O_3   0.917142 0.688278 0.612829 -0.658105
O27   O     O_3   0.351080 0.462080 0.440130 -0.494240
O28   O     O_3   0.839200 0.593040 0.416790 -0.470120
P1    P     P_3+3 0.929380 0.335110 0.452880 0.954720
P2    P     P_3+3 0.398530 0.559060 0.613740 0.978688
P3    P     P_3+3 0.954681 0.422280 0.649146 0.929941
P4    P     P_3+3 0.880940 0.664900 0.547160 0.973811
P5    P     P_3+3 0.838821 0.600145 0.352803 0.980233
P6    P     P_3+3 0.393274 0.276243 0.551173 0.899068
P7    P     P_3+3 0.402019 0.444014 0.376209 0.937572
P8    P     P_3+3 0.406847 0.722777 0.448098 0.963489

loop_
_geom_bond_atom_site_label_1
_geom_bond_atom_site_label_2
_ccdc_geom_bond_type
C1    H3    S    
C97   H90   S    
C37   N1    Am   
C22   H13   S    
C94   H74   S    
C53   C57   A    
C70   N2    S    
C71   C72   A    
C85   H32   S    
C62   O14   D    
C62   N2    Am   
C92   H65   S    
C83   H25   S    
C14   H9    S    
C55   C60   A    
C36   P1    S    
C43   C44   S    
C54   C55   A    
C82   H22   S    
C21   H11   S    
C79   H19   S    
C24   C25   A    
C96   H86   S    
C54   C77   A    
C94   H73   S    
C61   C79   A    
C90   H58   S    
C34   H89   S    
C75   C80   A    
C48   H75   S    
C33   C35   A    
C35   C36   A    
O8    P8    D    
Ba1   Ba2   S    
C96   H84   S    
C48   C74   A    
C42   P7    S    
C64   C86   S    
C81   H43   S    
C99   H96   S    
C41   C50   S    
C12   H1    S    
C19   C31   A    
C91   H62   S    
C82   H21   S    
C13   C14   A    
C20   C36   A    
C77   H83   S    
C76   O12   S    
Ba1   O20   S    
C56   H6    S    
C80   C97   S    
O28   P5    S    
C51   C66   S    
C7    C11   A    
C68   P2    S    
O17   P1    S    
C63   O11   D    
O3    P5    S    
C39   H79   S    
Ba2   O28   S    
C15   C17   A    
C9    C13   A    
C76   C81   S    
C34   H47   S    
C46   C49   A    
C28   H95   S    
C14   C15   A    
C45   H4    S    
C78   H8    S    
C39   C44   D    
C52   O17   S    
C68   C69   D    
Ba2   O5    S    
C16   H48   S    
Ba1   O4    S    
C93   H71   S    
O7    P7    S    
C11   C25   A    
O12   P2    S    
O1    P1    D    
C2    C89   A    
C42   C50   D    
Ba2   O6    S    
O21   P3    D    
C57   C58   A    
C54   C73   A    
C19   C20   A    
C39   C41   S    
C85   H33   S    
O16   P6    D    
O4    P1    S    
C98   H91   S    
O26   P4    S    
Ba1   O1    S    
Ba1   P1    S    
C92   H64   S    
C97   H87   S    
C69   C96   S    
C10   C17   A    
O6    P7    D    
C95   H82   S    
C4    C90   S    
C4    C16   S    
C18   C89   A    
C72   C73   A    
Ba2   O27   S    
C65   C66   S    
O9    P8    S    
C46   C72   A    
C26   C30   A    
C40   C82   S    
O2    P5    D    
C88   H51   S    
C94   H72   S    
C64   C85   S    
C3    C5    A    
C2    C21   A    
C99   H97   S    
C6    C7    A    
Ba2   P4    S    
C18   C26   A    
C58   H76   S    
C98   H92   S    
C50   C98   S    
C74   H17   S    
C35   C94   S    
C58   C59   A    
C56   H5    S    
C30   C32   A    
O23   P4    D    
C49   C75   A    
C86   H38   S    
C60   C61   A    
C96   H85   S    
O18   P6    S    
C56   C88   S    
Ba1   P2    S    
C40   H12   S    
C44   N1    S    
C29   C30   A    
C81   H56   S    
C45   H49   S    
C91   H60   S    
C87   H39   S    
Ba1   O15   S    
Ba2   O23   S    
C31   C32   A    
C37   O10   D    
C8    H10   S    
C23   H46   S    
C40   C83   S    
C67   H54   S    
C18   C19   A    
C88   H52   S    
C75   C95   S    
Ba1   O5    S    
C65   H16   S    
C66   P3    S    
C86   H37   S    
C7    C89   A    
C1    C12   S    
Ba1   O27   S    
C46   C47   A    
C37   C47   A    
C4    C93   S    
C1    H44   S    
C15   P4    S    
C34   H2    S    
C51   H94   S    
C71   C74   A    
C12   O18   S    
C83   H26   S    
C33   P6    S    
C12   H67   S    
C23   O7    S    
C65   C70   D    
C42   C43   D    
Ba2   O25   S    
C95   H81   S    
C4    O22   S    
C76   H34   S    
Ba1   O24   S    
C82   H24   S    
C52   H28   S    
C52   H23   S    
C78   H55   S    
C13   P8    S    
O19   P2    D    
O5    P2    S    
C28   O26   S    
C57   H77   S    
C84   H29   S    
C99   H98   S    
C22   C24   A    
C51   C68   D    
C88   H50   S    
C67   C78   S    
C41   P5    S    
C92   H66   S    
C64   C84   S    
C3    C91   S    
C9    C10   A    
C23   H78   S    
C73   C80   A    
C95   H80   S    
C52   C64   S    
C98   H93   S    
C38   C49   A    
C38   N1    Am   
C5    H63   S    
C78   H7    S    
C77   C79   A    
C67   H53   S    
C1    C87   S    
C90   H59   S    
O24   P4    S    
C53   C55   A    
C17   C22   A    
C32   H14   S    
C69   C70   S    
C27   C29   A    
C23   C34   S    
C45   C56   S    
C81   H42   S    
C43   H15   S    
C84   H31   S    
C27   C92   S    
C29   H68   S    
C91   H61   S    
C87   H40   S    
O20   P3    S    
C31   C33   A    
C28   C99   S    
C45   O3    S    
Ba1   O19   S    
C28   C40   S    
C59   C60   A    
C84   H30   S    
C93   H69   S    
C86   H36   S    
O27   P7    S    
C5    C6    A    
C8    C9    A    
C76   H45   S    
C16   H20   S    
C61   C62   A    
C53   C71   A    
C59   C63   A    
O22   P3    S    
C2    C3    A    
C63   N2    Am   
C10   C11   A    
C24   C27   A    
C6    C8    A    
C47   C48   A    
C38   O13   D    
C25   C26   A    
O25   P8    S    
O15   P6    S    
C20   C21   A    
C85   H35   S    
C83   H27   S    
C67   O9    S    
C93   H70   S    
C16   H18   S    
C97   H88   S    
C87   H41   S    
Ba2   O24   S    
Ba2   O4    S    
C90   H57   S    
