data_mof_unit_20036.cif
_audit_creation_date              2012-12-11T15:07:37-0500
_audit_creation_method            fapswitch 2.2
_symmetry_space_group_name_H-M    P1
_symmetry_Int_Tables_number       1
_space_group_crystal_system       triclinic
_cell_length_a                    21.536648
_cell_length_b                    7.200759
_cell_length_c                    18.926009
_cell_angle_alpha                 89.992327
_cell_angle_beta                  95.434944
_cell_angle_gamma                 89.994449
_cell_volume                      2921.85458691

loop_
_atom_site_label
_atom_site_type_symbol
_atom_type_description
_atom_site_fract_x
_atom_site_fract_y
_atom_site_fract_z
_atom_type_partial_charge
O1    O     O_R   0.449650 0.506500 0.414480 -0.536001
O2    O     O_R   0.550350 0.006500 0.585520 -0.536053
O3    O     O_R   0.432010 0.173150 0.560250 -0.550245
O4    O     O_R   0.567990 0.673150 0.439750 -0.550261
C1    C     C_R   0.418156 0.344070 0.583534 0.732832
C2    C     C_R   0.581861 0.844079 0.416486 0.732505
O5    O     O_R   0.442320 0.176650 0.413480 -0.520443
O6    O     O_R   0.557680 0.676650 0.586520 -0.520484
O7    O     O_R   0.560730 0.008380 0.437700 -0.539315
O8    O     O_R   0.439270 0.508380 0.562300 -0.539224
C3    C     C_R   0.426261 0.345413 0.389652 0.686850
C4    C     C_R   0.573741 0.845381 0.610349 0.686683
O9    O     O_3   0.538840 0.339860 0.508120 -0.374538
O10   O     O_3   0.461160 0.839860 0.491880 -0.374339
V1    V     V_3+5 0.492800 0.064220 0.498490 1.452342
V2    V     V_3+5 0.507200 0.564220 0.501510 1.452339
C5    C     C_R   0.879508 0.923711 0.694132 -0.150820
C6    C     C_R   0.120463 0.423148 0.305856 -0.150823
H1    H     H_    0.965918 0.955224 0.758608 0.151665
H2    H     H_    0.034053 0.454707 0.241378 0.151511
H3    H     H_    0.806125 0.847980 0.580996 0.151235
H4    H     H_    0.193855 0.347352 0.418982 0.151075
H5    H     H_    0.902580 0.920800 0.645660 0.123648
H6    H     H_    0.097385 0.420029 0.354326 0.123630
C7    C     C_R   0.887842 0.940370 0.821718 -0.039607
C8    C     C_R   0.112147 0.440249 0.178276 -0.039554
C9    C     C_R   0.585340 0.875589 0.739430 -0.150476
C10   C     C_R   0.414663 0.376042 0.260580 -0.150441
C11   C     C_R   0.618961 0.903431 0.804767 -0.119298
C12   C     C_R   0.381040 0.403959 0.195243 -0.119285
C13   C     C_R   0.683693 0.913942 0.810337 -0.142846
C14   C     C_R   0.316302 0.414228 0.189667 -0.142814
C15   C     C_R   0.717292 0.892079 0.750279 0.075863
C16   C     C_R   0.282701 0.392096 0.249718 0.075861
C17   C     C_R   0.682795 0.855298 0.682661 0.002125
C18   C     C_R   0.317204 0.355258 0.317337 0.001982
C19   C     C_R   0.784180 0.907575 0.755448 0.081296
C20   C     C_R   0.215807 0.407436 0.244546 0.081266
C21   C     C_R   0.814623 0.902256 0.692352 0.111254
C22   C     C_R   0.185354 0.401833 0.307636 0.111288
C23   C     C_R   0.781096 0.864348 0.627825 -0.217292
C24   C     C_R   0.218883 0.363860 0.372156 -0.217285
C25   C     C_R   0.717341 0.827076 0.623203 -0.035975
C26   C     C_R   0.282656 0.326870 0.376789 -0.035740
C27   C     C_R   0.822520 0.925423 0.820731 -0.219011
C28   C     C_R   0.177471 0.425429 0.179263 -0.219047
C29   C     C_R   0.915737 0.942779 0.758295 -0.144095
C30   C     C_R   0.084239 0.442369 0.241695 -0.144155
C31   C     C_R   0.615537 0.853482 0.677728 -0.065937
C32   C     C_R   0.384464 0.353615 0.322275 -0.066143
H7    H     H_    0.803542 0.922638 0.871421 0.089197
H8    H     H_    0.196455 0.422859 0.128573 0.089176
H9    H     H_    0.534829 0.874326 0.736784 0.095340
H10   H     H_    0.465177 0.374964 0.263231 0.095348
H11   H     H_    0.706113 0.943189 0.862446 0.105240
H12   H     H_    0.293877 0.443521 0.137558 0.105224
H13   H     H_    0.594395 0.921563 0.851622 0.116389
H14   H     H_    0.405606 0.422331 0.148395 0.116368
C33   C     C_R   0.634098 0.017524 0.322615 -0.224252
C34   C     C_R   0.365979 0.517365 0.677483 -0.224239
C35   C     C_R   0.628528 0.854603 0.363062 -0.040058
C36   C     C_R   0.371506 0.354556 0.636982 -0.039983
C37   C     C_R   0.668886 0.704674 0.353411 -0.151656
C38   C     C_R   0.331120 0.204688 0.646598 -0.151830
C39   C     C_R   0.716779 0.721259 0.308349 0.089374
C40   C     C_R   0.283263 0.221166 0.691711 0.089298
C41   C     C_R   0.722315 0.885396 0.268657 0.085937
C42   C     C_R   0.277750 0.385234 0.731432 0.085939
C43   C     C_R   0.680067 0.032727 0.274888 0.092304
C44   C     C_R   0.320007 0.532553 0.725209 0.092359
C45   C     C_R   0.760043 0.577615 0.303354 -0.203859
C46   C     C_R   0.240004 0.077520 0.696714 -0.203955
C47   C     C_R   0.808046 0.595319 0.259016 -0.136703
C48   C     C_R   0.191993 0.095219 0.741045 -0.136626
C49   C     C_R   0.813566 0.756828 0.218302 -0.022316
C50   C     C_R   0.186457 0.256750 0.781735 -0.022326
C51   C     C_R   0.770444 0.902622 0.223050 -0.020816
C52   C     C_R   0.229610 0.402478 0.777027 -0.020876
C53   C     C_R   0.775514 0.065848 0.182632 0.091196
C54   C     C_R   0.224544 0.565715 0.817446 0.091243
C55   C     C_R   0.732113 0.209515 0.187893 -0.158974
C56   C     C_R   0.267940 0.709391 0.812174 -0.159007
C57   C     C_R   0.685068 0.193569 0.233856 -0.202987
C58   C     C_R   0.314993 0.693424 0.766219 -0.202913
C59   C     C_R   0.861433 0.774684 0.173144 0.559556
C60   C     C_R   0.138539 0.274725 0.826820 0.559562
C61   C     C_R   0.866581 0.936828 0.131639 -0.188619
C62   C     C_R   0.133426 0.436826 0.868366 -0.188599
C63   C     C_R   0.823563 0.082223 0.137467 -0.297056
C64   C     C_R   0.176493 0.582126 0.862608 -0.297018
H15   H     H_    0.602635 0.133024 0.328171 0.122919
H16   H     H_    0.397460 0.632822 0.671948 0.122871
H17   H     H_    0.664945 0.577717 0.383416 0.125772
H18   H     H_    0.335000 0.077894 0.616509 0.125674
H19   H     H_    0.756958 0.451501 0.334069 0.145121
H20   H     H_    0.243086 0.951430 0.665998 0.145114
H21   H     H_    0.840594 0.481381 0.256410 0.186136
H22   H     H_    0.159440 0.981296 0.743645 0.186127
H23   H     H_    0.826867 0.207188 0.106094 0.169705
H24   H     H_    0.173222 0.707046 0.894022 0.169494
H25   H     H_    0.734913 0.335307 0.156941 0.132779
H26   H     H_    0.265121 0.835235 0.843093 0.132728
H27   H     H_    0.652803 0.307816 0.237642 0.125153
H28   H     H_    0.347242 0.807712 0.762412 0.125154
O11   O     O_R   0.060820 0.290050 0.937800 -0.499736
O12   O     O_R   0.939180 0.790050 0.062200 -0.499659
O13   O     O_R   0.057690 0.616620 0.086540 -0.534590
O14   O     O_R   0.942310 0.116620 0.913460 -0.534566
C65   C     C_R   0.071891 0.448592 0.111334 0.703022
C66   C     C_R   0.928105 0.948622 0.888663 0.703043
O15   O     O_R   0.068010 0.619890 0.939770 -0.544352
O16   O     O_R   0.931990 0.119890 0.060230 -0.544342
O17   O     O_R   0.949640 0.787940 0.914460 -0.540132
O18   O     O_R   0.050360 0.287940 0.085540 -0.540158
C67   C     C_R   0.084008 0.450860 0.918456 0.737398
C68   C     C_R   0.915990 0.950856 0.081541 0.737382
O19   O     O_3   0.961210 0.453080 0.991940 -0.375350
O20   O     O_3   0.038790 0.953080 0.008060 -0.375424
V3    V     V_3+5 0.007200 0.728820 0.001500 1.514659
V4    V     V_3+5 0.992800 0.228820 0.998500 1.514706
F1    F     F_    0.903535 0.634506 0.170776 -0.703948
F2    F     F_    0.096337 0.134766 0.829055 -0.703936
C69   C     C_2   0.693032 0.731978 0.557954 0.717521
O21   O     O_2   0.701242 0.801299 0.500809 -0.579604
O22   O     O_R   0.669357 0.551958 0.561673 -0.641894
H29   H     H_    0.659886 0.493243 0.513222 0.299597
C70   C     C_2   0.307019 0.232203 0.442117 0.717478
O23   O     O_2   0.298911 0.302072 0.499190 -0.579598
O24   O     O_R   0.330644 0.052053 0.438588 -0.641806
H30   H     H_    0.340034 0.993554 0.487106 0.299460

loop_
_geom_bond_atom_site_label_1
_geom_bond_atom_site_label_2
_ccdc_geom_bond_type
C40   C42   A    
C37   C39   A    
C26   C70   S    
C25   C69   S    
O12   V3    S    
C9    C11   A    
C23   C25   A    
O14   V4    S    
O1    C3    A    
O2    C4    A    
C2    O7    A    
C4    C31   S    
C18   C32   A    
C69   O21   D    
C48   H22   S    
C55   H25   S    
C47   H21   S    
C5    H5    S    
C48   C50   A    
C63   H23   S    
C6    H6    S    
C2    C35   S    
O15   V3    S    
C50   C52   A    
C60   C62   A    
C69   O22   S    
C45   H19   S    
C27   H7    S    
C28   H8    S    
C34   C36   A    
C5    C21   A    
C64   H24   S    
C35   C37   A    
C6    C22   A    
O20   V3    S    
C36   C38   A    
O17   V3    S    
C10   C32   A    
C49   C59   A    
C40   C46   A    
C39   C41   A    
C41   C51   A    
C60   F2    S    
C13   C15   A    
O11   V4    S    
C59   F1    S    
C12   C14   A    
C44   C58   A    
C7    C29   A    
C16   C18   A    
C8    C30   A    
C59   C61   A    
O6    V2    S    
O13   C65   A    
C24   C26   A    
O13   V3    S    
C55   C57   A    
C51   C53   A    
C42   C52   A    
C33   C35   A    
C53   C63   A    
C46   C48   A    
O19   V4    S    
C53   C55   A    
C10   H10   S    
O5    V1    S    
C39   C45   A    
C15   C19   A    
O12   C68   A    
C41   C43   A    
C38   C40   A    
O4    V2    S    
O5    C3    A    
C70   O24   S    
C17   C31   A    
C43   C57   A    
C66   O17   A    
C34   C44   A    
O6    C4    A    
C56   H26   S    
C52   C54   A    
O1    V2    S    
C33   H15   S    
O2    V1    S    
C49   C51   A    
C8    C65   S    
C61   C68   S    
H2    C30   S    
C57   H27   S    
C65   O18   A    
C33   C43   A    
H3    C23   S    
C7    C66   S    
C54   C56   A    
C11   H13   S    
C56   C58   A    
C61   C63   A    
O22   H29   S    
C58   H28   S    
C18   C26   A    
O4    C2    A    
C47   C49   A    
C19   C27   A    
C70   O23   D    
C7    C27   A    
O16   C68   A    
C17   C25   A    
O16   V4    S    
O24   H30   S    
C16   C20   A    
O11   C67   A    
C5    C29   A    
C62   C64   A    
O3    C1    A    
C6    C30   A    
C9    H9    S    
O9    V2    S    
C37   H17   S    
C62   C67   S    
C10   C12   A    
O7    V1    S    
C38   H18   S    
C1    O8    A    
C19   C21   A    
C3    C32   S    
O8    V2    S    
C20   C22   A    
H4    C24   S    
C12   H14   S    
C22   C24   A    
C15   C17   A    
O14   C66   A    
C1    C36   S    
H1    C29   S    
C54   C64   A    
C20   C28   A    
C8    C28   A    
C46   H20   S    
C21   C23   A    
C11   C13   A    
C50   C60   A    
C45   C47   A    
C42   C44   A    
O10   V1    S    
O3    V1    S    
O15   C67   A    
C13   H11   S    
C34   H16   S    
C14   H12   S    
O18   V4    S    
C9    C31   A    
C14   C16   A    
