data_mof_unit_64593.cif
_audit_creation_date              2012-12-10T17:12:28-0500
_audit_creation_method            fapswitch 2.2
_symmetry_space_group_name_H-M    P1
_symmetry_Int_Tables_number       1
_space_group_crystal_system       triclinic
_cell_length_a                    11.710592
_cell_length_b                    13.034079
_cell_length_c                    11.69566
_cell_angle_alpha                 99.679297
_cell_angle_beta                  93.441457
_cell_angle_gamma                 90.567058
_cell_volume                      1756.23848102

loop_
_atom_site_label
_atom_site_type_symbol
_atom_type_description
_atom_site_fract_x
_atom_site_fract_y
_atom_site_fract_z
_atom_type_partial_charge
C1    C     C_R   0.497651 0.299263 0.478824 0.925764
C2    C     C_R   0.502367 0.700737 0.521170 0.926092
C3    C     C_R   0.391835 0.400689 0.023625 0.103616
C4    C     C_R   0.606267 0.601016 0.976586 0.097109
C5    C     C_R   0.403514 0.410987 0.145770 -0.038161
C6    C     C_R   0.595584 0.589821 0.854327 -0.034220
C7    C     C_R   0.546103 0.542927 0.157023 0.843446
C8    C     C_R   0.453804 0.457151 0.842989 0.844486
C9    C     C_R   0.538343 0.537005 0.033960 -0.176190
C10   C     C_R   0.460302 0.464201 0.966185 -0.175641
C11   C     C_R   0.283954 0.499943 0.500505 0.817254
C12   C     C_R   0.716046 0.500055 0.499496 0.817108
C13   C     C_1   0.162365 0.500003 0.501266 -0.109880
C14   C     C_1   0.837636 0.499992 0.498736 -0.104991
C15   C     C_1   0.059902 0.500004 0.500643 0.039253
C16   C     C_1   0.940099 0.499989 0.499361 0.041378
C17   C     C_R   0.507803 0.813917 0.532903 -0.409454
C18   C     C_R   0.492271 0.186080 0.467061 -0.413031
C19   C     C_R   0.429479 0.018561 0.357914 0.689481
C20   C     C_R   0.570667 0.981430 0.642007 0.696072
C21   C     C_R   0.439076 0.125829 0.366852 0.450216
C22   C     C_R   0.561004 0.874169 0.633103 0.446552
C23   C     C_R   0.537423 0.138095 0.558092 0.651573
C24   C     C_R   0.462727 0.861896 0.441832 0.642891
C25   C     C_R   0.527410 0.030205 0.550499 -0.364183
C26   C     C_R   0.472750 0.969784 0.449417 -0.363306
Cu1   Cu    Cu3+1 0.508350 0.507730 0.615930 1.074273
Cu2   Cu    Cu3+1 0.491650 0.492270 0.384070 1.075340
H1    H     H_    0.646936 0.638304 0.809958 0.200868
H2    H     H_    0.351298 0.363249 0.190208 0.198817
N1    N     N_R   0.520920 0.519350 0.790130 -0.255896
N2    N     N_R   0.479080 0.480650 0.209870 -0.254184
O1    O     O_R   0.505930 0.354460 0.582000 -0.488009
O2    O     O_R   0.494070 0.645540 0.418000 -0.493167
O3    O     O_R   0.491820 0.341410 0.386200 -0.554124
O4    O     O_R   0.508180 0.658590 0.613800 -0.556405
O5    O     O_R   0.344250 0.506540 0.597900 -0.546488
O6    O     O_R   0.655750 0.493460 0.402100 -0.539897
O7    O     O_R   0.330140 0.493480 0.402100 -0.587038
O8    O     O_R   0.669860 0.506520 0.597900 -0.585911
F1    F     F_    0.407802 0.803419 0.346722 -0.564288
F2    F     F_    0.592400 0.196572 0.653176 -0.554943
F3    F     F_    0.606755 0.829238 0.721636 -0.608827
F4    F     F_    0.393264 0.170770 0.278347 -0.604767
F5    F     F_    0.376950 0.963240 0.259680 -0.533000
F6    F     F_    0.623214 0.036749 0.740229 -0.527231
F7    F     F_    0.380769 0.388065 0.774931 -0.617263
F8    F     F_    0.621121 0.610220 0.224869 -0.620290
N3    N     N_3   0.310267 0.326634 0.959058 -0.447353
H3    H     H_    0.280740 0.276034 0.011859 0.244857
H4    H     H_    0.239560 0.368369 0.934971 0.247972
N4    N     N_3   0.684973 0.677608 0.041473 -0.465463
H5    H     H_    0.738417 0.707416 0.985935 0.234759
H6    H     H_    0.636572 0.739736 0.079501 0.284423

loop_
_geom_bond_atom_site_label_1
_geom_bond_atom_site_label_2
_ccdc_geom_bond_type
C4    C9    A    
C12   O8    A    
C19   F5    S    
Cu1   O4    S    
C21   F4    S    
C9    C10   A    
C17   C22   A    
Cu2   O6    S    
Cu1   O8    S    
C5    N2    A    
C7    F8    S    
C2    O2    A    
C13   C15   T    
C6    N1    A    
C3    N3    S    
C8    F7    S    
Cu2   O2    S    
C3    C10   A    
Cu1   O1    S    
C2    C17   S    
C11   O7    A    
C24   F1    S    
C11   C13   S    
C24   C26   A    
C1    C18   S    
C23   F2    S    
Cu1   O5    S    
C4    C6    A    
C19   C21   A    
C20   C22   A    
C4    N4    S    
C23   C25   A    
C12   O6    A    
N3    H3    S    
C14   C16   T    
C17   C24   A    
C20   C25   A    
C1    O1    A    
C15   C16   S    
C18   C21   A    
C7    C9    A    
C12   C14   S    
Cu2   N2    S    
C6    H1    S    
N4    H5    S    
C1    O3    A    
C8    C10   A    
C5    H2    S    
C2    O4    A    
Cu1   Cu2   S    
C11   O5    A    
C19   C26   A    
C7    N2    A    
Cu2   O7    S    
C3    C5    A    
C25   C26   A    
C8    N1    A    
Cu1   N1    S    
C22   F3    S    
C20   F6    S    
C18   C23   A    
Cu2   O3    S    
N4    H6    S    
N3    H4    S    
