data_mof_unit_47334.cif
_audit_creation_date              2012-12-10T20:41:53-0500
_audit_creation_method            fapswitch 2.2
_symmetry_space_group_name_H-M    P1
_symmetry_Int_Tables_number       1
_space_group_crystal_system       triclinic
_cell_length_a                    14.577334
_cell_length_b                    15.814672
_cell_length_c                    9.972862
_cell_angle_alpha                 89.893006
_cell_angle_beta                  85.647648
_cell_angle_gamma                 90.378663
_cell_volume                      2292.41461467

loop_
_atom_site_label
_atom_site_type_symbol
_atom_type_description
_atom_site_fract_x
_atom_site_fract_y
_atom_site_fract_z
_atom_type_partial_charge
C1    C     C_R   0.383536 0.877310 0.502744 0.912716
C2    C     C_R   0.924704 0.472182 0.079136 0.164701
C3    C     C_R   0.579694 0.009167 0.062694 0.111173
C4    C     C_R   0.078803 0.514437 0.063301 0.108099
C5    C     C_R   0.579413 0.011978 0.919959 0.162209
C6    C     C_R   0.078436 0.516698 0.920408 0.148327
C7    C     C_R   0.422865 0.978404 0.937504 0.074207
C8    C     C_R   0.924645 0.473417 0.937284 0.093698
C9    C     C_3   0.335334 0.024719 0.941125 -0.552710
C10   C     C_3   0.832219 0.512468 0.943640 -0.554672
C11   C     C_3   0.330066 0.021253 0.093327 0.173487
C12   C     C_R   0.383457 0.122528 0.502489 0.913024
C13   C     C_3   0.826927 0.502344 0.095447 0.169732
C14   C     C_R   0.620953 0.118676 0.496593 0.908443
C15   C     C_R   0.622615 0.881954 0.496612 0.890376
C16   C     C_R   0.121308 0.618253 0.496512 0.916529
C17   C     C_R   0.122274 0.382505 0.496430 0.899471
C18   C     C_R   0.248077 0.195353 0.597711 -0.008888
C19   C     C_R   0.255262 0.795855 0.608571 -0.034438
C20   C     C_R   0.797339 0.739545 0.619510 0.022444
C21   C     C_R   0.763989 0.288074 0.615820 -0.031011
C22   C     C_R   0.324759 0.194976 0.505479 -0.169304
C23   C     C_R   0.884094 0.376846 0.502646 0.907970
C24   C     C_R   0.327095 0.802937 0.508999 -0.158093
C25   C     C_R   0.840150 0.706383 0.502122 -0.175210
C26   C     C_R   0.829294 0.301258 0.508359 -0.163897
C27   C     C_R   0.334030 0.256429 0.400730 0.061653
C28   C     C_R   0.341488 0.736540 0.414380 0.042468
C29   C     C_R   0.833004 0.753151 0.381181 0.068937
C30   C     C_R   0.838122 0.239841 0.404622 0.045161
C31   C     C_R   0.756259 0.807172 0.372340 0.064567
C32   C     C_R   0.769327 0.177671 0.398653 0.077364
C33   C     C_R   0.261017 0.313165 0.386003 0.062281
C34   C     C_R   0.886871 0.625352 0.501672 0.905022
C35   C     C_R   0.273455 0.673491 0.408290 0.077074
C36   C     C_R   0.701177 0.826389 0.491861 -0.169124
C37   C     C_R   0.691967 0.180441 0.492121 -0.132135
C38   C     C_R   0.189771 0.317477 0.489829 -0.147044
C39   C     C_R   0.191539 0.680600 0.491730 -0.125507
C40   C     C_R   0.730275 0.799117 0.614135 -0.019797
C41   C     C_R   0.692882 0.233228 0.601780 -0.022826
C42   C     C_R   0.185628 0.259382 0.593642 -0.041629
C43   C     C_R   0.185987 0.739352 0.593646 -0.027949
C44   C     C_3   0.678965 0.770761 0.743215 0.172232
C45   C     C_3   0.240810 0.197757 0.749719 0.150310
C46   C     C_3   0.620805 0.289702 0.669507 0.172800
C47   C     C_3   0.171971 0.270697 0.743163 0.191207
C48   C     C_3   0.110490 0.797941 0.644734 0.163736
C49   C     C_3   0.190544 0.857753 0.679856 0.155981
C50   C     C_3   0.756851 0.705180 0.751562 0.140968
C51   C     C_3   0.704059 0.344740 0.705609 0.156514
C52   C     C_R   0.422286 0.979235 0.079590 0.177725
H1    H     H_    0.351101 0.087608 0.899769 0.257363
H2    H     H_    0.919353 0.807860 0.237884 0.162646
H3    H     H_    0.908819 0.288164 0.237639 0.213169
H4    H     H_    0.975882 0.246650 0.354216 0.186424
H5    H     H_    0.284267 0.103697 0.242426 0.212147
H6    H     H_    0.298484 0.148901 0.094191 0.157754
H7    H     H_    0.261674 0.905648 0.106802 0.181037
H8    H     H_    0.193698 0.990430 0.132160 0.173606
H9    H     H_    0.763862 0.617571 0.118505 0.155745
H10   H     H_    0.779126 0.569611 0.260857 0.212867
H11   H     H_    0.696309 0.452798 0.123933 0.178348
H12   H     H_    0.278537 0.992408 0.896543 0.230974
H13   H     H_    0.778019 0.378592 0.098557 0.185286
H14   H     H_    0.671467 0.806755 0.222042 0.185328
H15   H     H_    0.779963 0.823328 0.165957 0.177276
H16   H     H_    0.784035 0.142524 0.203729 0.211254
H17   H     H_    0.837838 0.079470 0.310137 0.189330
H18   H     H_    0.209303 0.347655 0.213011 0.183606
H19   H     H_    0.321402 0.366020 0.209658 0.186227
H20   H     H_    0.300152 0.627297 0.220868 0.210832
H21   H     H_    0.345557 0.570840 0.343673 0.189388
H22   H     H_    0.654728 0.808638 0.940074 0.160368
H23   H     H_    0.841109 0.578096 0.911165 0.255945
H24   H     H_    0.737804 0.866429 0.852996 0.163997
H25   H     H_    0.541429 0.299343 0.847733 0.178528
H26   H     H_    0.601610 0.208761 0.836170 0.179414
H27   H     H_    0.212971 0.348500 0.894090 0.161323
H28   H     H_    0.266806 0.370907 0.739968 0.161733
H29   H     H_    0.028248 0.814191 0.819631 0.175580
H30   H     H_    0.084861 0.720807 0.814718 0.181477
H31   H     H_    0.587392 0.699146 0.637013 0.150837
H32   H     H_    0.563748 0.700583 0.806441 0.165331
H33   H     H_    0.599615 0.345854 0.484270 0.168401
H34   H     H_    0.778237 0.479244 0.893613 0.228057
H35   H     H_    0.528322 0.379477 0.615475 0.168143
H36   H     H_    0.047146 0.204139 0.744440 0.161666
H37   H     H_    0.074668 0.240091 0.897248 0.160666
H38   H     H_    0.096713 0.842301 0.449631 0.168957
H39   H     H_    0.018412 0.880287 0.568593 0.176725
H40   H     H_    0.316290 0.241878 0.903039 0.154958
H41   H     H_    0.364568 0.266568 0.747472 0.194807
H42   H     H_    0.278548 0.867001 0.828264 0.203575
H43   H     H_    0.192826 0.804033 0.871390 0.158505
H44   H     H_    0.780369 0.721386 0.951299 0.157392
H45   H     H_    0.471190 0.230105 0.350530 0.213106
H46   H     H_    0.854315 0.777345 0.845551 0.180674
H47   H     H_    0.799287 0.348827 0.845014 0.205722
H48   H     H_    0.724474 0.273602 0.877320 0.160547
H49   H     H_    0.178164 0.130832 0.908580 0.164727
H50   H     H_    0.144983 0.099283 0.757466 0.172101
H51   H     H_    0.197407 0.938674 0.513949 0.165850
H52   H     H_    0.129867 0.971683 0.648094 0.171112
H53   H     H_    0.680258 0.603549 0.825337 0.162062
H54   H     H_    0.697187 0.604763 0.655181 0.161984
H55   H     H_    0.700108 0.438401 0.558774 0.159187
H56   H     H_    0.441212 0.327485 0.324203 0.167894
H57   H     H_    0.643969 0.461081 0.708809 0.168529
H58   H     H_    0.658243 0.000132 0.220754 0.272095
H59   H     H_    0.710981 0.973022 0.076179 0.176326
H60   H     H_    0.158774 0.502772 0.218012 0.264674
H61   H     H_    0.214962 0.493826 0.071362 0.165614
H62   H     H_    0.671071 0.992206 0.756572 0.245821
H63   H     H_    0.673191 0.090799 0.822075 0.188677
H64   H     H_    0.170479 0.503705 0.756587 0.249775
H65   H     H_    0.165025 0.602210 0.825556 0.192903
H66   H     H_    0.422839 0.779531 0.253575 0.212365
H67   H     H_    0.480724 0.739590 0.381401 0.176915
H68   H     H_    0.963070 0.724820 0.303355 0.217044
N1    N     N_R   0.499140 0.000000 0.142800 -0.142086
N2    N     N_3   0.257210 0.965071 0.152837 -0.459001
N3    N     N_3   0.812440 0.582599 0.166493 -0.371489
N4    N     N_3   0.762563 0.435928 0.147024 -0.462414
N5    N     N_3   0.731539 0.838560 0.244348 -0.462980
N6    N     N_3   0.777561 0.113201 0.298077 -0.446702
N7    N     N_3   0.260853 0.369293 0.272071 -0.468726
N8    N     N_3   0.287134 0.603457 0.318360 -0.450586
N9    N     N_3   0.674208 0.836411 0.846962 -0.420751
N10   N     N_3   0.564706 0.251236 0.782162 -0.408389
N11   N     N_3   0.204675 0.352309 0.791075 -0.423090
N12   N     N_R   0.999140 0.500000 0.142800 -0.140158
N13   N     N_3   0.050800 0.764088 0.757599 -0.409466
N14   N     N_3   0.586825 0.736988 0.722899 -0.420757
N15   N     N_3   0.561504 0.326665 0.572284 -0.469842
N16   N     N_3   0.076393 0.254336 0.794720 -0.419559
N17   N     N_3   0.055194 0.826620 0.536351 -0.457838
N18   N     N_3   0.328654 0.219894 0.804683 -0.434285
N19   N     N_3   0.207421 0.861603 0.823098 -0.465122
N20   N     N_3   0.818816 0.719894 0.858679 -0.438414
N21   N     N_3   0.728771 0.336422 0.845196 -0.475958
N22   N     N_3   0.201052 0.119651 0.808333 -0.447068
N23   N     N_R   0.499160 0.000000 0.857150 -0.117408
N24   N     N_3   0.192099 0.942284 0.618865 -0.427383
N25   N     N_3   0.728158 0.616545 0.744463 -0.428094
N26   N     N_3   0.703109 0.433331 0.662814 -0.433493
N27   N     N_3   0.666057 0.017896 0.120691 -0.438605
N28   N     N_3   0.163652 0.529645 0.122941 -0.432397
N29   N     N_3   0.665857 0.026873 0.844835 -0.471665
N30   N     N_3   0.163327 0.537574 0.845697 -0.471134
N31   N     N_R   0.999160 0.500000 0.857150 -0.115820
N32   N     N_3   0.417902 0.265254 0.314733 -0.438288
N33   N     N_3   0.423469 0.731489 0.325468 -0.481659
N34   N     N_3   0.901372 0.746445 0.269312 -0.422204
N35   N     N_3   0.915176 0.238805 0.305951 -0.480040
N36   N     N_3   0.329102 0.105361 0.155523 -0.374339
O1    O     O_R   0.408400 0.908380 0.614690 -0.595859
O2    O     O_R   0.591610 0.908390 0.614650 -0.601998
O3    O     O_R   0.091610 0.591610 0.614650 -0.647050
O4    O     O_R   0.091610 0.408390 0.614650 -0.600710
O5    O     O_R   0.591590 0.091600 0.385310 -0.621976
O6    O     O_R   0.591590 0.908400 0.385310 -0.647039
O7    O     O_R   0.091590 0.591600 0.385310 -0.620597
O8    O     O_R   0.091590 0.408400 0.385310 -0.652881
O9    O     O_R   0.408400 0.091620 0.614690 -0.573362
O10   O     O_R   0.908400 0.408380 0.614690 -0.592174
O11   O     O_R   0.908400 0.591620 0.614690 -0.563666
O12   O     O_R   0.408370 0.908370 0.385350 -0.624591
O13   O     O_R   0.408370 0.091630 0.385350 -0.607246
O14   O     O_R   0.908370 0.408370 0.385350 -0.623735
O15   O     O_R   0.908370 0.591630 0.385350 -0.610826
O16   O     O_R   0.591610 0.091610 0.614650 -0.637214
Zn1   Zn    Zn3+2 0.500010 1.000000 0.653130 0.969971
Zn2   Zn    Zn3+2 0.000010 0.500000 0.653130 0.971391
Zn3   Zn    Zn3+2 0.499980 1.000000 0.346870 0.945279
Zn4   Zn    Zn3+2 0.999980 0.500000 0.346870 0.940430

loop_
_geom_bond_atom_site_label_1
_geom_bond_atom_site_label_2
_ccdc_geom_bond_type
H18   N7    S    
O12   Zn3   S    
C21   C26   A    
O5    Zn3   S    
C3    N27   S    
C27   N32   S    
C47   N16   S    
C9    H12   S    
C15   O6    A    
H57   N26   S    
H40   N18   S    
H51   N24   S    
H64   N30   S    
H11   N4    S    
C28   N33   S    
C4    N12   A    
O14   Zn4   S    
C27   C33   A    
H3    N35   S    
H32   N14   S    
H54   N25   S    
C48   N17   S    
H20   N8    S    
H61   N28   S    
C7    C52   A    
C38   C42   A    
H48   N21   S    
H15   N5    S    
H49   N22   S    
C20   C40   A    
C50   N20   S    
C5    N23   A    
C20   C25   A    
O9    Zn1   S    
C4    N28   S    
C49   N24   S    
C12   C22   S    
C33   N7    S    
C5    N29   S    
H66   N33   S    
C7    C9    S    
N12   Zn4   S    
C23   C26   S    
C32   N6    S    
C2    C13   S    
C17   O4    A    
H31   N14   S    
C20   C50   S    
H41   N18   S    
C46   N15   S    
H56   N32   S    
C28   C35   A    
O3    Zn2   S    
C2    N12   A    
C41   C46   S    
H52   N24   S    
H65   N30   S    
C11   C52   S    
C43   C48   S    
C25   C34   S    
H25   N10   S    
H7    N2    S    
C51   N21   S    
H53   N25   S    
H67   N33   S    
N31   Zn2   S    
H39   N17   S    
C16   O3    A    
C25   C29   A    
H42   N19   S    
H19   N7    S    
H4    N35   S    
O7    Zn4   S    
C7    N23   A    
H10   N3    S    
C19   C43   A    
C45   C47   S    
C16   O7    A    
C44   N14   S    
H5    N36   S    
O10   Zn2   S    
H35   N15   S    
C48   N13   S    
C36   C40   A    
C8    N31   A    
H36   N16   S    
C15   O2    A    
C4    C6    A    
C12   O9    A    
H55   N26   S    
C46   N10   S    
C39   C43   A    
O6    Zn3   S    
C51   N26   S    
C44   N9    S    
C46   C51   S    
H60   N28   S    
H46   N20   S    
C6    N30   S    
C35   C39   A    
H2    N34   S    
C17   O8    A    
H59   N27   S    
C23   O10   A    
H24   N9    S    
C19   C49   S    
O2    Zn1   S    
C48   C49   S    
H27   N11   S    
H63   N29   S    
H68   N34   S    
O13   Zn3   S    
C32   C37   A    
H8    N2    S    
C9    C11   S    
H6    N36   S    
C11   N36   S    
H33   N15   S    
O11   Zn2   S    
C21   C41   A    
C6    N31   A    
C50   N25   S    
C14   O16   A    
C30   N35   S    
H17   N6    S    
C26   C30   A    
C22   C27   A    
C49   N19   S    
C45   N22   S    
C11   N2    S    
C9    H1    S    
C31   N5    S    
H58   N27   S    
C18   C45   S    
H16   N6    S    
C15   C36   S    
C21   C51   S    
H38   N17   S    
O16   Zn1   S    
C52   N1    A    
C44   C50   S    
C13   N4    S    
C10   H34   S    
C18   C22   A    
O4    Zn2   S    
H47   N21   S    
C2    C8    A    
C24   C28   A    
C3    C5    A    
C10   C13   S    
H44   N20   S    
H29   N13   S    
C12   O13   A    
H21   N8    S    
O15   Zn4   S    
H43   N19   S    
C33   C38   A    
C1    O12   A    
H14   N5    S    
H9    N3    S    
H30   N13   S    
C18   C42   A    
C19   C24   A    
H26   N10   S    
C29   C31   A    
C14   C37   S    
C30   C32   A    
N1    Zn3   S    
C23   O14   A    
C14   O5    A    
C13   N3    S    
C1    O1    A    
C45   N18   S    
H45   N32   S    
H37   N16   S    
O8    Zn4   S    
C17   C38   S    
C37   C41   A    
C35   N8    S    
C16   C39   S    
H13   N4    S    
C40   C44   S    
C42   C47   S    
C1    C24   S    
C8    C10   S    
H22   N9    S    
C47   N11   S    
H28   N11   S    
N23   Zn1   S    
C31   C36   A    
C34   O11   A    
H50   N22   S    
H62   N29   S    
C34   O15   A    
C3    N1    A    
O1    Zn1   S    
C29   N34   S    
C10   H23   S    
