data_mof_unit_10736.cif
_audit_creation_date              2012-12-11T14:50:44-0500
_audit_creation_method            fapswitch 2.2
_symmetry_space_group_name_H-M    P1
_symmetry_Int_Tables_number       1
_space_group_crystal_system       triclinic
_cell_length_a                    11.604793
_cell_length_b                    11.302543
_cell_length_c                    18.8207
_cell_angle_alpha                 89.489742
_cell_angle_beta                  88.187138
_cell_angle_gamma                 61.231125
_cell_volume                      2162.75015981

loop_
_atom_site_label
_atom_site_type_symbol
_atom_type_description
_atom_site_fract_x
_atom_site_fract_y
_atom_site_fract_z
_atom_type_partial_charge
C1    C     C_R   0.231099 0.651398 0.607715 0.525696
C2    C     C_3   0.709464 0.518423 0.803769 0.125446
C3    C     C_3   0.707906 0.656989 0.813785 -0.055774
C4    C     C_3   0.677527 0.632617 0.675890 -0.001098
C5    C     C_3   0.801005 0.652474 0.678542 0.497437
C6    C     C_3   0.714498 0.495652 0.720961 0.076205
C7    C     C_R   0.748769 0.146428 0.699351 0.283417
C8    C     C_R   0.776768 0.102591 0.769843 -0.108832
C9    C     C_R   0.687592 0.169256 0.826734 -0.032885
C10   C     C_R   0.557279 0.258741 0.809649 0.261724
C11   C     C_R   0.523791 0.268779 0.736572 0.196143
C12   C     C_R   0.649679 0.613458 0.602026 0.547752
C13   C     C_R   0.622522 0.244280 0.684803 0.043909
C14   C     C_R   0.190085 0.583818 0.728515 0.221523
C15   C     C_R   0.177224 0.612803 0.800874 0.236734
C16   C     C_R   0.088255 0.738927 0.823824 0.001890
C17   C     C_R   0.087000 0.847324 0.785116 0.127287
C18   C     C_R   0.135469 0.822312 0.713143 0.220394
C19   C     C_R   0.170028 0.689760 0.681402 -0.079399
C20   C     C_R   0.689658 0.525618 0.267045 0.220978
C21   C     C_R   0.683812 0.547904 0.193556 0.198566
C22   C     C_R   0.650110 0.678081 0.168577 -0.082283
C23   C     C_R   0.594645 0.284694 0.609716 0.603265
C24   C     C_R   0.601011 0.788040 0.217315 0.175443
C25   C     C_R   0.611852 0.764788 0.290088 0.156035
C26   C     C_R   0.651555 0.635238 0.315160 -0.054202
C27   C     C_R   0.521430 0.270173 0.274709 0.290215
C28   C     C_R   0.538926 0.253038 0.201618 0.300641
C29   C     C_R   0.658393 0.147844 0.175445 0.019568
C30   C     C_R   0.758621 0.065097 0.222011 -0.096202
C31   C     C_R   0.744632 0.091180 0.294203 0.184461
C32   C     C_R   0.628238 0.197733 0.320373 0.073550
C33   C     C_R   0.174873 0.778556 0.290475 0.267106
C34   C     C_R   0.224710 0.650118 0.402021 0.579646
C35   C     C_R   0.178610 0.767433 0.217164 0.225871
C36   C     C_R   0.140951 0.678457 0.185283 -0.039635
C37   C     C_R   0.116204 0.590106 0.228688 0.244572
C38   C     C_R   0.121371 0.596069 0.302928 0.272614
C39   C     C_R   0.162876 0.681103 0.332824 0.022255
C40   C     C_R   0.704665 0.100595 0.896951 0.529196
C41   C     C_R   0.728090 0.685469 0.889111 0.536155
C42   C     C_R   0.050862 0.748833 0.899125 0.620280
C43   C     C_R   0.676859 0.103102 0.102830 0.557628
C44   C     C_R   0.698165 0.693053 0.097786 0.544426
C45   C     C_R   0.638701 0.614063 0.390780 0.601935
C46   C     C_R   0.089212 0.711440 0.112965 0.553313
C47   C     C_R   0.611258 0.237405 0.394436 0.654874
C48   C     C_3   0.562848 0.770904 0.790555 0.462269
C49   C     C_3   0.550144 0.761427 0.707350 0.486123
C50   C     C_3   0.824412 0.653362 0.761775 0.164615
Cr1   Cr    Cr6+3 0.392930 0.397900 0.502230 1.019293
Cr2   Cr    Cr6+3 0.398240 0.708600 0.501260 1.033512
Cr3   Cr    Cr6+3 0.708800 0.393470 0.496460 1.035497
Cr4   Cr    Cr6+3 0.937620 0.938540 0.007640 1.061785
Cr5   Cr    Cr6+3 0.625150 0.937450 0.994520 1.010006
Cr6   Cr    Cr6+3 0.937990 0.625080 0.001190 1.010698
H1    H     H_    0.850309 0.001494 0.777958 0.133062
H2    H     H_    0.847430 0.977763 0.202388 0.174823
H3    H     H_    0.818695 0.748896 0.768014 0.095940
H4    H     H_    0.617549 0.527461 0.826896 0.152151
H5    H     H_    0.653892 0.450323 0.707094 0.090306
O1    O     O_R   0.507430 0.255570 0.581420 -0.472793
O2    O     O_R   0.524460 0.695920 0.424060 -0.487853
O3    O     O_R   0.736530 0.504260 0.414810 -0.533435
O4    O     O_R   0.691460 0.277160 0.422180 -0.457570
O5    O     O_3   0.499990 0.499990 0.499980 -0.340904
O6    O     O_R   0.089490 0.825610 0.930610 -0.454369
O7    O     O_R   0.818370 0.054540 0.929880 -0.488082
O8    O     O_R   0.605870 0.077310 0.915530 -0.516061
O9    O     O_R   0.646440 0.806700 0.917570 -0.511264
O10   O     O_R   0.837200 0.593290 0.915250 -0.514815
O11   O     O_R   0.065330 0.635370 0.931590 -0.479578
O12   O     O_R   0.280190 0.527390 0.578910 -0.534913
O13   O     O_R   0.068300 0.828790 0.091860 -0.469563
O14   O     O_R   0.798730 0.057480 0.079370 -0.519324
O15   O     O_R   0.584680 0.080480 0.076790 -0.477478
O16   O     O_R   0.626790 0.809640 0.067050 -0.464365
O17   O     O_R   0.816010 0.596460 0.076500 -0.520107
O18   O     O_R   0.045680 0.638310 0.081070 -0.488824
O19   O     O_3   0.833590 0.833690 0.001120 -0.333783
O20   O     O_R   0.260310 0.739740 0.584580 -0.448343
O21   O     O_R   0.532250 0.695150 0.573830 -0.511094
O22   O     O_R   0.744930 0.503430 0.576380 -0.484230
O23   O     O_R   0.699250 0.276390 0.571950 -0.469868
O24   O     O_R   0.499020 0.256400 0.419850 -0.494172
O25   O     O_R   0.272400 0.528160 0.429140 -0.469547
O26   O     O_R   0.251910 0.740570 0.423020 -0.493062
O27   O     O_3   0.527294 0.905853 0.807358 -0.518029
C51   C     C_3   0.623768 0.943082 0.793757 -0.058917
H6    H     H_    0.659348 0.940317 0.739055 0.201474
H7    H     H_    0.704475 0.905238 0.830866 0.085214
H8    H     H_    0.570960 0.044917 0.804664 0.212346
Cl1   Cl    Cl    0.859344 0.348166 0.691735 -0.632077
O28   O     O_3   0.956727 0.583650 0.783351 -0.605475
C52   C     C_3   0.013577 0.447453 0.802702 0.040769
H9    H     H_    0.004183 0.382650 0.764799 0.226327
H10   H     H_    0.999086 0.425843 0.858007 0.195624
H11   H     H_    0.117027 0.412331 0.803140 0.083432
O29   O     O_3   0.911307 0.544463 0.641434 -0.518291
C53   C     C_3   0.928064 0.563846 0.566352 -0.047755
H12   H     H_    0.006343 0.590974 0.554296 0.049994
H13   H     H_    0.838695 0.642600 0.540783 0.160131
H14   H     H_    0.961633 0.466238 0.538273 0.146719
O30   O     O_3   0.818929 0.063397 0.642583 -0.594304
C54   C     C_3   0.932100 0.071986 0.623547 -0.029429
H15   H     H_    0.972941 0.092271 0.670190 0.219639
H16   H     H_    0.916400 0.149977 0.583674 0.188640
H17   H     H_    0.001787 0.976471 0.596389 0.165518
O31   O     O_3   0.468660 0.303082 0.867885 -0.499442
C55   C     C_3   0.363410 0.274435 0.864886 -0.009080
H18   H     H_    0.308930 0.318904 0.817832 0.212745
H19   H     H_    0.295960 0.322705 0.911399 0.133916
H20   H     H_    0.393290 0.165815 0.866994 0.156788
Cl2   Cl    Cl    0.437778 0.183748 0.711018 -0.695568
O32   O     O_3   0.267624 0.451144 0.708106 -0.542088
C56   C     C_3   0.198485 0.404505 0.665978 0.003965
H21   H     H_    0.119433 0.485837 0.640598 0.161870
H22   H     H_    0.170306 0.337074 0.694842 0.138267
H23   H     H_    0.262526 0.340652 0.621581 0.189122
Cl3   Cl    Cl    0.317260 0.559385 0.851778 -0.625911
Cl4   Cl    Cl    0.042023 0.003890 0.830453 -0.658761
O33   O     O_3   0.463608 0.747026 0.825038 -0.589659
C57   C     C_3   0.420169 0.796929 0.894991 -0.014454
H24   H     H_    0.402148 0.901474 0.903735 0.168929
H25   H     H_    0.486922 0.725115 0.934422 0.110787
H26   H     H_    0.323720 0.801367 0.905026 0.204007
O34   O     O_3   0.172929 0.907983 0.675824 -0.558541
C58   C     C_3   0.209353 0.990790 0.715605 0.010468
H27   H     H_    0.265366 0.940429 0.763423 0.246614
H28   H     H_    0.125472 0.091253 0.728470 0.157683
H29   H     H_    0.271469 0.018466 0.682131 0.164474
O35   O     O_3   0.722183 0.398086 0.291976 -0.541427
C59   C     C_3   0.860469 0.316895 0.289934 -0.058418
H30   H     H_    0.908992 0.360044 0.322850 0.121380
H31   H     H_    0.901761 0.297132 0.234657 0.155016
H32   H     H_    0.886032 0.217947 0.313693 0.196958
O36   O     O_3   0.725797 0.437538 0.148022 -0.548785
C60   C     C_3   0.629886 0.460992 0.097360 -0.070410
H33   H     H_    0.636719 0.519996 0.051857 0.093025
H34   H     H_    0.528570 0.512828 0.120675 0.151227
H35   H     H_    0.648227 0.362615 0.075473 0.158862
Cl5   Cl    Cl    0.513900 0.956973 0.190555 -0.651383
Cl6   Cl    Cl    0.579523 0.897688 0.350211 -0.630339
O37   O     O_3   0.395387 0.349395 0.301881 -0.532496
C61   C     C_3   0.333032 0.267816 0.307837 -0.026137
H36   H     H_    0.400943 0.157093 0.308662 0.166193
H37   H     H_    0.265395 0.289165 0.263576 0.182670
H38   H     H_    0.275836 0.291131 0.358815 0.187739
O38   O     O_3   0.452005 0.357488 0.159365 -0.601108
C62   C     C_3   0.373961 0.321252 0.118635 -0.069960
H39   H     H_    0.412986 0.300086 0.063029 0.155102
H40   H     H_    0.276481 0.410402 0.113761 0.190041
H41   H     H_    0.360038 0.237813 0.141696 0.178348
Cl7   Cl    Cl    0.866765 0.981322 0.351532 -0.598324
O39   O     O_3   0.163989 0.895042 0.321483 -0.500000
C63   C     C_3   0.281801 0.901851 0.312394 -0.000904
H42   H     H_    0.274297 0.968675 0.267255 0.189002
H43   H     H_    0.369864 0.801015 0.305154 0.124196
H44   H     H_    0.295648 0.948250 0.360812 0.163953
O40   O     O_3   0.433571 0.757699 0.692689 -0.520499
C64   C     C_3   0.433018 0.637445 0.709662 -0.030660
H45   H     H_    0.446885 0.572722 0.663090 0.121181
H46   H     H_    0.349064 0.668809 0.742395 0.217218
H47   H     H_    0.485620 0.578786 0.753102 0.087877
O41   O     O_3   0.203949 0.857095 0.177831 -0.524810
C65   C     C_3   0.326800 0.784381 0.141981 -0.096239
H48   H     H_    0.323065 0.720321 0.098653 0.122448
H49   H     H_    0.404072 0.721330 0.179627 0.093220
H50   H     H_    0.354092 0.857136 0.117211 0.184430
O42   O     O_3   0.096754 0.491227 0.198052 -0.580522
C66   C     C_3   0.964297 0.525489 0.206592 -0.070822
H51   H     H_    0.947808 0.456601 0.172260 0.191346
H52   H     H_    0.898119 0.632332 0.192146 0.131885
H53   H     H_    0.940355 0.508838 0.261326 0.126811
O43   O     O_3   0.089047 0.515341 0.345469 -0.583740
C67   C     C_3   0.974256 0.598021 0.386559 -0.131464
H54   H     H_    0.892970 0.670584 0.353181 0.166046
H55   H     H_    0.993806 0.653827 0.428527 0.135842
H56   H     H_    0.940656 0.532063 0.413230 0.138255
O44   O     O_3   0.534695 0.886718 0.677915 -0.499527
C68   C     C_3   0.492271 0.927748 0.607637 0.039887
H57   H     H_    0.403943 0.919981 0.594192 0.155815
H58   H     H_    0.574796 0.877377 0.568175 0.172938
H59   H     H_    0.462478 0.035613 0.601450 0.175952
O45   O     O_3   0.770565 0.778218 0.646757 -0.606715
C69   C     C_3   0.877981 0.802310 0.644771 -0.079405
H60   H     H_    0.879316 0.850468 0.593492 0.199590
H61   H     H_    0.970761 0.711337 0.647321 0.116222
H62   H     H_    0.874702 0.859995 0.691870 0.136868
O46   O     O_3   0.812943 0.405881 0.837377 -0.528351
C70   C     C_3   0.773640 0.372168 0.903317 -0.072217
H63   H     H_    0.855588 0.276220 0.922197 0.188196
H64   H     H_    0.685697 0.359024 0.899228 0.133216
H65   H     H_    0.750904 0.449626 0.944517 0.125505

loop_
_geom_bond_atom_site_label_1
_geom_bond_atom_site_label_2
_ccdc_geom_bond_type
C66   H51   S    
O41   C65   S    
C52   H9    S    
C21   O36   S    
C58   H27   S    
Cr1   O24   S    
C61   H36   S    
O45   C69   S    
C52   H11   S    
C7    C8    A    
C25   Cl6   S    
C68   H57   S    
C56   H21   S    
C66   H52   S    
O46   C70   S    
Cr6   O18   S    
Cr3   O23   S    
C50   H3    S    
C47   O24   A    
C6    H5    S    
C47   O4    A    
C28   C29   A    
C48   O33   S    
C46   O18   A    
Cr5   O16   S    
Cr3   O3    S    
C2    H4    S    
C57   H25   S    
Cr4   O7    S    
O42   C66   S    
C1    O20   A    
O32   C56   S    
Cr2   O26   S    
C3    C48   S    
Cr6   O17   S    
C15   Cl3   S    
C13   C23   S    
C10   O31   S    
C18   C19   A    
C34   O25   A    
C11   Cl2   S    
C55   H18   S    
C26   C45   S    
C61   H37   S    
Cr4   O13   S    
C23   O1    A    
C22   C44   S    
C5    O29   S    
C24   Cl5   S    
C8    C9    A    
Cr6   O11   S    
C62   H41   S    
C59   H32   S    
C48   O27   S    
C49   O40   S    
C36   C46   S    
C5    O45   S    
C51   H7    S    
C29   C30   A    
Cr3   O4    S    
C9    C10   A    
C41   O10   A    
C49   O44   S    
Cr6   O10   S    
C67   H55   S    
C69   H60   S    
C28   O38   S    
C21   C22   A    
C29   C43   S    
C65   H49   S    
C2    C6    S    
Cr1   O1    S    
C20   O35   S    
C33   O39   S    
Cr1   O25   S    
C53   H13   S    
O30   C54   S    
C64   H46   S    
C3    C50   S    
C17   C18   A    
Cr4   O19   S    
C68   H58   S    
C43   O14   A    
C38   C39   A    
C66   H53   S    
C1    C19   S    
C40   O8    A    
C34   C39   S    
C2    O46   S    
C57   H24   S    
C24   C25   A    
C4    C6    S    
C23   O23   A    
C37   O42   S    
C16   C17   A    
C57   H26   S    
Cr4   O6    S    
C25   C26   A    
Cr2   O2    S    
C9    C40   S    
C70   H63   S    
C12   O22   A    
C35   C36   A    
C63   H42   S    
C70   H64   S    
C37   C38   A    
C18   O34   S    
C59   H30   S    
C54   H16   S    
C31   C32   A    
C7    C13   A    
C6    Cl1   S    
C42   O11   A    
C27   O37   S    
C12   O21   A    
O28   C52   S    
C33   C39   A    
C54   H17   S    
C20   C21   A    
C51   H8    S    
Cr2   O21   S    
Cr3   O5    S    
C55   H20   S    
Cr5   O8    S    
C60   H34   S    
C56   H22   S    
Cr5   O15   S    
C17   Cl4   S    
C67   H54   S    
C7    O30   S    
C65   H48   S    
C32   C47   S    
C62   H40   S    
C5    C50   S    
C4    C12   S    
C69   H61   S    
O34   C58   S    
C58   H29   S    
C16   C42   S    
C46   O13   A    
C61   H38   S    
Cr2   O5    S    
O44   C68   S    
C64   H47   S    
C54   H15   S    
C68   H59   S    
C43   O15   A    
C44   O16   A    
C42   O6    A    
C27   C32   A    
C14   C15   A    
C14   C19   A    
C31   Cl7   S    
C63   H44   S    
C50   O28   S    
Cr1   O12   S    
O37   C61   S    
C60   H35   S    
C58   H28   S    
C52   H10   S    
O36   C60   S    
C45   O3    A    
Cr6   O19   S    
C56   H23   S    
C4    C49   S    
Cr3   O22   S    
C1    O12   A    
O40   C64   S    
C67   H56   S    
C69   H62   S    
C44   O17   A    
C2    C3    S    
C51   H6    S    
C70   H65   S    
O43   C67   S    
C64   H45   S    
O29   C53   S    
Cr5   O19   S    
C11   C13   A    
C38   O43   S    
C30   C31   A    
C20   C26   A    
C48   C49   S    
C15   C16   A    
C30   H2    S    
C63   H43   S    
C53   H12   S    
C33   C35   A    
C45   O2    A    
O35   C59   S    
C22   C24   A    
C34   O26   A    
C53   H14   S    
Cr2   O20   S    
C55   H19   S    
Cr5   O9    S    
C3    C41   S    
C10   C11   A    
Cr4   O14   S    
C4    C5    S    
O27   C51   S    
C65   H50   S    
C36   C37   A    
C40   O7    A    
O31   C55   S    
O39   C63   S    
C59   H31   S    
C62   H39   S    
C35   O41   S    
O33   C57   S    
O38   C62   S    
Cr1   O5    S    
C8    H1    S    
C60   H33   S    
C14   O32   S    
C41   O9    A    
C27   C28   A    
