data_mof_unit_52934.cif
_audit_creation_date              2012-12-10T19:45:43-0500
_audit_creation_method            fapswitch 2.2
_symmetry_space_group_name_H-M    P1
_symmetry_Int_Tables_number       1
_space_group_crystal_system       triclinic
_cell_length_a                    10.839419
_cell_length_b                    14.664409
_cell_length_c                    14.604302
_cell_angle_alpha                 65.289343
_cell_angle_beta                  104.020361
_cell_angle_gamma                 102.957805
_cell_volume                      2026.00641702

loop_
_atom_site_label
_atom_site_type_symbol
_atom_type_description
_atom_site_fract_x
_atom_site_fract_y
_atom_site_fract_z
_atom_type_partial_charge
C1    C     C_R   0.474704 0.119379 0.311211 0.853038
C2    C     C_R   0.670570 0.776375 0.971398 -0.086709
C3    C     C_R   0.368505 0.152084 0.126501 0.353410
C4    C     C_R   0.631494 0.847918 0.873498 0.353411
C5    C     C_R   0.502232 0.287516 0.173113 -0.237308
C6    C     C_R   0.497776 0.712484 0.826887 -0.237313
C7    C     C_R   0.474122 0.359000 0.073270 0.091453
C8    C     C_R   0.525884 0.641001 0.926731 0.091449
C9    C     C_R   0.376070 0.327868 0.004177 0.031425
C10   C     C_R   0.623933 0.672134 0.995824 0.031425
C11   C     C_R   0.530712 0.462859 0.044453 0.054478
C12   C     C_R   0.525297 0.880621 0.688789 0.853040
C13   C     C_R   0.469294 0.537143 0.955549 0.054480
C14   C     C_R   0.353872 0.504230 0.899280 0.000066
C15   C     C_R   0.646132 0.495772 0.100722 0.000067
C16   C     C_R   0.262337 0.001257 0.498692 0.877917
C17   C     C_R   0.737663 0.998743 0.501307 0.877916
C18   C     C_R   0.317437 0.401827 0.917497 -0.126651
C19   C     C_R   0.682565 0.598175 0.082505 -0.126652
C20   C     C_R   0.724709 0.287618 0.665040 -0.119905
C21   C     C_R   0.275297 0.712386 0.334954 -0.119910
C22   C     C_R   0.690399 0.207832 0.631350 0.120705
C23   C     C_R   0.871237 0.997710 0.501228 -0.221513
C24   C     C_R   0.309605 0.792170 0.368645 0.120701
C25   C     C_R   0.515331 0.283830 0.513699 0.094838
C26   C     C_R   0.484667 0.716169 0.486303 0.094835
C27   C     C_R   0.552789 0.372900 0.535731 0.026327
C28   C     C_R   0.447210 0.627100 0.464270 0.026326
C29   C     C_R   0.648811 0.368293 0.622639 0.004687
C30   C     C_R   0.351191 0.631709 0.377359 0.004689
C31   C     C_R   0.492343 0.462899 0.478524 -0.007723
C32   C     C_R   0.507655 0.537100 0.521477 -0.007722
C33   C     C_R   0.578315 0.516360 0.621945 0.329183
C34   C     C_R   0.128763 0.002292 0.498770 -0.221513
C35   C     C_R   0.421686 0.483640 0.378055 0.329182
C36   C     C_R   0.657326 0.439269 0.667499 -0.074280
C37   C     C_R   0.342678 0.560733 0.332499 -0.074280
C38   C     C_R   0.357101 0.997117 0.807938 -0.149713
C39   C     C_R   0.642897 0.002885 0.192060 -0.149712
C40   C     C_R   0.262397 0.971101 0.735467 -0.195707
C41   C     C_R   0.737601 0.028902 0.264529 -0.195710
C42   C     C_R   0.194543 0.045475 0.655959 0.141930
C43   C     C_R   0.805455 0.954528 0.344036 0.141931
C44   C     C_R   0.221933 0.145791 0.650038 -0.186130
C45   C     C_R   0.904623 0.980231 0.422849 -0.090817
C46   C     C_R   0.778066 0.854212 0.349957 -0.186129
C47   C     C_R   0.316763 0.171984 0.722369 0.321096
C48   C     C_R   0.683235 0.828017 0.277627 0.321097
C49   C     C_R   0.385335 0.097439 0.801402 0.430313
C50   C     C_R   0.614664 0.902562 0.198596 0.430310
C51   C     C_R   0.966132 0.015202 0.579300 0.339256
C52   C     C_R   0.033868 0.984800 0.420698 0.339258
C53   C     C_1   0.236688 0.189106 0.955740 0.441226
C54   C     C_1   0.763308 0.810899 0.044262 0.441227
C55   C     C_1   0.259800 0.570077 0.832435 0.269851
C56   C     C_R   0.095376 0.019772 0.577148 -0.090818
C57   C     C_1   0.740205 0.429927 0.167568 0.269851
C58   C     C_1   0.732617 0.426936 0.767649 0.402261
C59   C     C_1   0.267395 0.573070 0.232346 0.402265
C60   C     C_1   0.841476 0.285187 0.738588 0.327632
C61   C     C_1   0.158537 0.714824 0.261396 0.327641
C62   C     C_R   0.449743 0.185573 0.201444 -0.174175
C63   C     C_R   0.550260 0.814427 0.798555 -0.174174
C64   C     C_R   0.329429 0.223628 0.028603 -0.086711
Cl1   Cl    Cl    0.506440 0.127890 0.892854 -0.515779
Cl2   Cl    Cl    0.305287 0.022834 0.154053 -0.528961
Cl3   Cl    Cl    0.493560 0.872108 0.107147 -0.515789
Cl4   Cl    Cl    0.548412 0.569398 0.702493 -0.653666
Cl5   Cl    Cl    0.451589 0.430598 0.297510 -0.653666
Cl6   Cl    Cl    0.345793 0.298142 0.713173 -0.597175
Cl7   Cl    Cl    0.654203 0.701858 0.286825 -0.597181
Cl8   Cl    Cl    0.924201 0.021579 0.686337 -0.569006
Cl9   Cl    Cl    0.075798 0.978419 0.313663 -0.569003
Cl10  Cl    Cl    0.694702 0.977170 0.845946 -0.528957
Cu1   Cu    Cu3+1 0.466270 0.918260 0.475690 1.007925
Cu2   Cu    Cu3+1 0.533730 0.081740 0.524310 1.007927
H1    H     H_    0.571908 0.725020 0.538025 0.173011
H2    H     H_    0.830275 0.796415 0.411141 0.181418
H3    H     H_    0.233522 0.380046 0.869079 0.169393
H4    H     H_    0.766479 0.619958 0.130922 0.169393
H5    H     H_    0.442137 0.688334 0.767205 0.219222
H6    H     H_    0.557874 0.311664 0.232796 0.219218
H7    H     H_    0.428088 0.274977 0.461979 0.173011
H8    H     H_    0.253261 0.853769 0.336533 0.218914
H9    H     H_    0.746746 0.146236 0.663460 0.218910
H10   H     H_    0.408732 0.939134 0.869095 0.221576
H11   H     H_    0.591264 0.060867 0.130904 0.221575
H12   H     H_    0.242335 0.893397 0.740937 0.158953
H13   H     H_    0.757662 0.106607 0.259059 0.158952
H14   H     H_    0.169724 0.203588 0.588854 0.181417
N1    N     N_R   0.584450 0.204570 0.560790 -0.217483
N2    N     N_1   0.064692 0.717063 0.202722 -0.213188
N3    N     N_R   0.415550 0.795430 0.439210 -0.217484
N4    N     N_1   0.162536 0.160782 0.898220 -0.157539
N5    N     N_1   0.837458 0.839224 0.101782 -0.157543
N6    N     N_1   0.184111 0.622357 0.779171 -0.255691
N7    N     N_1   0.815893 0.377649 0.220833 -0.255696
N8    N     N_1   0.791922 0.417715 0.847692 -0.213587
N9    N     N_1   0.208096 0.582294 0.152300 -0.213586
N10   N     N_1   0.935329 0.282955 0.797253 -0.213195
O1    O     O_R   0.455540 0.022090 0.338120 -0.536524
O2    O     O_R   0.544460 0.977910 0.661880 -0.536519
O3    O     O_R   0.512510 0.160150 0.379180 -0.577806
O4    O     O_R   0.487490 0.839850 0.620820 -0.577809
O5    O     O_R   0.291160 0.930970 0.479480 -0.553479
O6    O     O_R   0.708840 0.069030 0.520520 -0.553483
O7    O     O_R   0.348130 0.069020 0.520540 -0.600970
O8    O     O_R   0.651870 0.930980 0.479460 -0.600970

loop_
_geom_bond_atom_site_label_1
_geom_bond_atom_site_label_2
_ccdc_geom_bond_type
C41   H13   S    
C34   C56   A    
C8    C13   A    
C23   C45   A    
C27   C29   A    
C9    C64   A    
C59   N9    T    
C14   C18   A    
C58   N8    T    
C39   H11   S    
C1    C62   S    
C39   C41   A    
C38   C49   A    
C3    C64   A    
C7    C11   A    
C4    C63   A    
C17   C23   S    
C49   Cl1   S    
C38   H10   S    
C35   C37   A    
C12   O4    A    
C36   C58   S    
C53   C64   S    
C33   C36   A    
C51   C56   A    
C22   H9    S    
C16   O7    A    
C16   C34   S    
C15   C19   A    
C11   C15   A    
C18   H3    S    
C22   N1    A    
C20   C60   S    
C50   Cl3   S    
C1    O3    A    
C4    Cl10  S    
Cu1   O1    S    
C61   N2    T    
C42   C56   S    
Cu2   O3    S    
C40   C42   A    
C14   C55   S    
Cu1   O8    S    
C6    H5    S    
C13   C14   A    
C15   C57   S    
C42   C44   A    
C26   C28   A    
C20   C29   A    
Cu2   O2    S    
C46   C48   A    
C25   N1    A    
C26   H1    S    
C27   C31   A    
C28   C32   A    
C47   C49   A    
C52   Cl9   S    
C2    C54   S    
C17   O8    A    
C46   H2    S    
C12   C63   S    
C6    C8    A    
C45   C52   A    
C30   C37   A    
C6    C63   A    
C2    C4    A    
Cu1   Cu2   S    
C47   Cl6   S    
C12   O2    A    
C23   C51   A    
C31   C32   A    
C29   C36   A    
C10   C19   A    
C57   N7    T    
C43   C45   S    
C54   N5    T    
C37   C59   S    
C16   O5    A    
C20   C22   A    
Cu1   O5    S    
Cu2   O7    S    
Cu1   O4    S    
C31   C35   A    
C3    Cl2   S    
C51   Cl8   S    
C48   Cl7   S    
C2    C10   A    
C1    O1    A    
C44   H14   S    
Cu1   N3    S    
C5    C7    A    
C3    C62   A    
C7    C9    A    
Cu2   O6    S    
C53   N4    T    
C21   C61   S    
C41   C43   A    
C55   N6    T    
C60   N10   T    
C44   C47   A    
C25   C27   A    
C21   C30   A    
C34   C52   A    
C32   C33   A    
C40   H12   S    
C28   C30   A    
C24   H8    S    
C24   N3    A    
C38   C40   A    
C5    H6    S    
C11   C13   A    
C26   N3    A    
C48   C50   A    
C5    C62   A    
C19   H4    S    
C43   C46   A    
Cu2   N1    S    
C9    C18   A    
C39   C50   A    
C35   Cl5   S    
C8    C10   A    
C21   C24   A    
C25   H7    S    
C17   O6    A    
C33   Cl4   S    
