data_mof_unit_50318.cif
_audit_creation_date              2012-12-10T19:05:17-0500
_audit_creation_method            fapswitch 2.2
_symmetry_space_group_name_H-M    P1
_symmetry_Int_Tables_number       1
_space_group_crystal_system       triclinic
_cell_length_a                    9.536532
_cell_length_b                    10.863689
_cell_length_c                    17.362955
_cell_angle_alpha                 90.304513
_cell_angle_beta                  85.697833
_cell_angle_gamma                 90.060958
_cell_volume                      1793.74111947

loop_
_atom_site_label
_atom_site_type_symbol
_atom_type_description
_atom_site_fract_x
_atom_site_fract_y
_atom_site_fract_z
_atom_type_partial_charge
C1    C     C_R   0.500172 0.737310 0.500323 0.807689
C2    C     C_R   0.340706 0.508677 0.776421 -0.200419
C3    C     C_R   0.413822 0.548085 0.148240 -0.148286
C4    C     C_R   0.406858 0.539352 0.228083 -0.206017
C5    C     C_R   0.657031 0.496914 0.222569 -0.193842
C6    C     C_R   0.664013 0.505642 0.142455 -0.168747
C7    C     C_R   0.542001 0.528487 0.104870 0.191700
C8    C     C_2   0.444609 0.491791 0.980106 -0.230073
C9    C     C_2   0.551122 0.530372 0.020344 -0.231083
C10   C     C_R   0.527939 0.511930 0.265851 -0.029262
C11   C     C_R   0.378325 0.937629 0.508106 0.084168
C12   C     C_R   0.481356 0.498679 0.649869 0.787176
C13   C     C_R   0.501801 0.869903 0.501428 -0.088817
C14   C     C_R   0.629872 0.935657 0.496062 -0.217426
C15   C     C_R   0.629510 0.064739 0.496198 -0.205336
C16   C     C_R   0.501146 0.130065 0.502234 -0.110233
C17   C     C_R   0.377687 0.061747 0.509379 0.058049
C18   C     C_3   0.220585 0.069068 0.514813 -0.043098
C19   C     C_3   0.222242 0.926790 0.513737 -0.474988
C20   C     C_R   0.930790 0.404941 0.466867 0.254216
C21   C     C_R   0.920205 0.586616 0.539771 -0.081778
C22   C     C_R   0.069144 0.586457 0.539902 -0.085802
C23   C     C_R   0.499935 0.262675 0.500654 0.803461
C24   C     C_R   0.078247 0.405169 0.466641 0.263737
C25   C     C_3   0.094991 0.365975 0.384073 -0.500590
C26   C     C_3   0.935933 0.365041 0.384523 -0.514882
C27   C     C_R   0.518508 0.502509 0.350099 0.793997
C28   C     C_R   0.471022 0.494219 0.734174 -0.027566
C29   C     C_R   0.592465 0.473965 0.773072 -0.206954
C30   C     C_R   0.584499 0.470791 0.853073 -0.150265
C31   C     C_R   0.455077 0.489724 0.895482 0.194350
C32   C     C_R   0.332902 0.506029 0.856773 -0.172384
Cu1   Cu    Cu3+1 0.359330 0.500020 0.500000 0.933564
Cu2   Cu    Cu3+1 0.640670 0.499980 0.500000 0.939684
H1    H     H_    0.693810 0.459858 0.741773 0.153436
H2    H     H_    0.764021 0.491791 0.109671 0.120714
H3    H     H_    0.729970 0.888149 0.490966 0.161806
H4    H     H_    0.729339 0.112628 0.490713 0.160322
H5    H     H_    0.180122 0.109950 0.462346 0.154551
H6    H     H_    0.181645 0.882707 0.568597 0.189252
H7    H     H_    0.182620 0.886352 0.460579 0.183404
H8    H     H_    0.860244 0.658101 0.570747 0.137259
H9    H     H_    0.120801 0.657479 0.571196 0.134559
H10   H     H_    0.144343 0.437912 0.345791 0.213580
H11   H     H_    0.306713 0.555275 0.260127 0.144440
H12   H     H_    0.142508 0.273090 0.376409 0.185162
H13   H     H_    0.895772 0.436511 0.346570 0.212942
H14   H     H_    0.891134 0.271423 0.377814 0.190867
H15   H     H_    0.752101 0.477273 0.250238 0.139539
H16   H     H_    0.649903 0.559790 0.990998 0.143526
H17   H     H_    0.231997 0.519040 0.888783 0.120570
H18   H     H_    0.319125 0.571181 0.120828 0.122684
H19   H     H_    0.245350 0.523319 0.747546 0.148900
H20   H     H_    0.345887 0.462472 0.009616 0.144080
H21   H     H_    0.679580 0.452251 0.881271 0.121869
N1    N     N_R   0.852130 0.499070 0.499500 -0.184000
N2    N     N_R   0.148040 0.499110 0.499500 -0.187419
O1    O     O_R   0.381190 0.680360 0.500000 -0.582534
O2    O     O_R   0.618770 0.680320 0.499990 -0.591222
O3    O     O_R   0.367430 0.500040 0.613600 -0.592607
O4    O     O_R   0.605020 0.500000 0.613590 -0.586486
O5    O     O_R   0.381230 0.319680 0.500010 -0.592449
O6    O     O_R   0.618810 0.319640 0.500000 -0.583945
O7    O     O_R   0.394980 0.500000 0.386410 -0.586869
O8    O     O_R   0.632570 0.499960 0.386400 -0.584941
C33   C     C_3   0.158576 0.125771 0.591230 -0.346127
C34   C     C_3   0.998318 0.118635 0.597288 -0.855528
H22   H     H_    0.956019 0.162175 0.652177 0.242864
H23   H     H_    0.955681 0.168231 0.548440 0.241613
H24   H     H_    0.962874 0.021248 0.596544 0.253878
H25   H     H_    0.199598 0.078060 0.641421 0.205563
H26   H     H_    0.189724 0.224070 0.594097 0.222802

loop_
_geom_bond_atom_site_label_1
_geom_bond_atom_site_label_2
_ccdc_geom_bond_type
C10   C27   S    
C15   C16   A    
C21   N1    A    
C2    C28   A    
C18   H5    S    
C32   H17   S    
Cu2   N1    S    
Cu1   O1    S    
C27   O8    A    
C34   H22   S    
C13   C14   A    
C18   C33   S    
C29   C30   A    
C30   H21   S    
C29   H1    S    
C22   H9    S    
C26   H14   S    
C30   C31   A    
C20   N1    A    
C34   H24   S    
C11   C19   S    
C16   C23   S    
C22   N2    A    
C23   O6    A    
Cu1   Cu2   S    
C19   H7    S    
C5    C10   A    
C15   H4    S    
C21   C22   A    
C14   H3    S    
C12   O4    A    
C11   C13   A    
C5    H15   S    
C6    C7    A    
C20   C26   S    
C26   H13   S    
C12   C28   S    
Cu1   O7    S    
C5    C6    A    
Cu2   O8    S    
C28   C29   A    
C24   N2    A    
C6    H2    S    
C17   C18   S    
Cu1   O3    S    
C3    C7    A    
C4    H11   S    
C1    O2    A    
Cu2   O2    S    
C3    H18   S    
C1    C13   S    
C19   H6    S    
C4    C10   A    
C3    C4    A    
C12   O3    A    
C20   C24   A    
C33   C34   S    
C24   C25   S    
C25   H10   S    
C2    C32   A    
C18   C19   S    
C27   O7    A    
C8    H20   S    
C7    C9    S    
C14   C15   A    
Cu2   O6    S    
Cu1   N2    S    
C21   H8    S    
C23   O5    A    
C25   C26   S    
C1    O1    A    
C8    C31   S    
Cu1   O5    S    
C25   H12   S    
C2    H19   S    
C31   C32   A    
C33   H26   S    
C9    H16   S    
C33   H25   S    
C16   C17   A    
C8    C9    D    
C34   H23   S    
Cu2   O4    S    
C11   C17   A    
