data_mof_unit_18724.cif
_audit_creation_date              2012-12-11T16:23:20-0500
_audit_creation_method            fapswitch 2.2
_symmetry_space_group_name_H-M    P1
_symmetry_Int_Tables_number       1
_space_group_crystal_system       triclinic
_cell_length_a                    19.949951
_cell_length_b                    7.198617
_cell_length_c                    19.812046
_cell_angle_alpha                 91.361353
_cell_angle_beta                  98.561321
_cell_angle_gamma                 91.576907
_cell_volume                      2811.36197275

loop_
_atom_site_label
_atom_site_type_symbol
_atom_type_description
_atom_site_fract_x
_atom_site_fract_y
_atom_site_fract_z
_atom_type_partial_charge
O1    O     O_R   0.188410 0.619490 0.310050 -0.533760
O2    O     O_R   0.811590 0.380510 0.689950 -0.534882
O3    O     O_R   0.311590 0.119490 0.189950 -0.535979
O4    O     O_R   0.688410 0.880510 0.810050 -0.535110
O5    O     O_R   0.327280 0.288800 0.321740 -0.536757
O6    O     O_R   0.672720 0.711200 0.678260 -0.536088
O7    O     O_R   0.172720 0.788800 0.178260 -0.541607
O8    O     O_R   0.827280 0.211200 0.821740 -0.542441
C1    C     C_R   0.351640 0.462622 0.338561 0.683976
C2    C     C_R   0.648351 0.537381 0.661453 0.689373
C3    C     C_R   0.148613 0.954272 0.160437 0.689091
C4    C     C_R   0.851379 0.045727 0.839570 0.683747
O9    O     O_R   0.189900 0.289710 0.318190 -0.537997
O10   O     O_R   0.810100 0.710290 0.681810 -0.540903
O11   O     O_R   0.310100 0.789710 0.181810 -0.541249
O12   O     O_R   0.689900 0.210290 0.818190 -0.538097
O13   O     O_R   0.173230 0.120350 0.186370 -0.534314
O14   O     O_R   0.826770 0.879650 0.813630 -0.534556
O15   O     O_R   0.326770 0.620350 0.313630 -0.537640
O16   O     O_R   0.673230 0.379650 0.686370 -0.537140
C5    C     C_R   0.169803 0.458267 0.334010 0.686432
C6    C     C_R   0.830451 0.541848 0.665979 0.687789
C7    C     C_R   0.330421 0.958479 0.165866 0.687400
C8    C     C_R   0.669760 0.041437 0.834044 0.686163
O17   O     O_3   0.244690 0.453290 0.206760 -0.374725
O18   O     O_3   0.755310 0.546710 0.793240 -0.374358
O19   O     O_3   0.255310 0.953290 0.293240 -0.371624
O20   O     O_3   0.744690 0.046710 0.706760 -0.371933
V1    V     V_3+5 0.250980 0.178070 0.258020 1.398211
V2    V     V_3+5 0.749020 0.821930 0.741980 1.396975
V3    V     V_3+5 0.249020 0.678070 0.241980 1.394573
V4    V     V_3+5 0.750980 0.321930 0.758020 1.396948
C9    C     C_R   0.469917 0.129621 0.069050 -0.192526
C10   C     C_R   0.518368 0.128524 0.924332 -0.171952
C11   C     C_R   0.018249 0.362874 0.424590 -0.172611
C12   C     C_R   0.969793 0.376671 0.569351 -0.192300
H1    H     H_    0.504185 0.249515 0.070733 0.124850
H2    H     H_    0.475306 0.218355 0.919035 0.123148
H3    H     H_    0.975042 0.266306 0.419453 0.123347
H4    H     H_    0.003883 0.261758 0.571207 0.124838
C13   C     C_R   0.422992 0.123213 0.114916 -0.162657
C14   C     C_R   0.565949 0.147019 0.879471 -0.169651
C15   C     C_R   0.065890 0.344176 0.379824 -0.168934
C16   C     C_R   0.922969 0.383379 0.615303 -0.161190
H5    H     H_    0.422190 0.238580 0.150859 0.127088
H6    H     H_    0.558536 0.249722 0.840186 0.119498
H7    H     H_    0.058335 0.234644 0.340756 0.122186
H8    H     H_    0.922068 0.273122 0.651444 0.127446
C17   C     C_R   0.379005 0.967829 0.115702 -0.081854
C18   C     C_R   0.621401 0.030260 0.883910 -0.074326
C19   C     C_R   0.121544 0.469236 0.384036 -0.075150
C20   C     C_R   0.879163 0.532707 0.615885 -0.080767
C21   C     C_R   0.381638 0.821473 0.067995 -0.179676
C22   C     C_R   0.629897 0.899316 0.935613 -0.166113
C23   C     C_R   0.130160 0.609042 0.435477 -0.165889
C24   C     C_R   0.881971 0.672452 0.567915 -0.179882
H9    H     H_    0.347291 0.701957 0.067321 0.130630
H10   H     H_    0.674122 0.813816 0.940573 0.121061
H11   H     H_    0.174491 0.701512 0.440282 0.122311
H12   H     H_    0.847789 0.787055 0.567074 0.129957
C25   C     C_R   0.426810 0.829197 0.019630 0.178331
C26   C     C_R   0.583282 0.881301 0.982236 0.158790
C27   C     C_R   0.083499 0.627640 0.481993 0.158405
C28   C     C_R   0.927061 0.663823 0.519454 0.178689
C29   C     C_R   0.473396 0.982796 0.021847 0.041099
C30   C     C_R   0.525707 0.995438 0.975483 0.039091
C31   C     C_R   0.025707 0.504667 0.475436 0.039223
C32   C     C_R   0.973405 0.516930 0.521828 0.040726
C33   C     C_R   0.089013 0.947286 0.104463 -0.067312
C34   C     C_R   0.910963 0.052714 0.895559 -0.065555
C35   C     C_R   0.412564 0.491565 0.391772 -0.064709
C36   C     C_R   0.587410 0.508456 0.608268 -0.064242
C37   C     C_R   0.002507 0.235935 0.965234 -0.201434
C38   C     C_R   0.997458 0.764073 0.034797 -0.202148
C39   C     C_R   0.492694 0.302749 0.556944 -0.194873
C40   C     C_R   0.507263 0.697302 0.443118 -0.195191
C41   C     C_R   0.949343 0.220313 0.910468 -0.164668
C42   C     C_R   0.050639 0.779679 0.089549 -0.163563
C43   C     C_R   0.545781 0.347238 0.609730 -0.157661
C44   C     C_R   0.454175 0.652829 0.390335 -0.158187
C45   C     C_R   0.928000 0.899430 0.936958 -0.237296
C46   C     C_R   0.071956 0.100588 0.063080 -0.236029
C47   C     C_R   0.573496 0.627227 0.552956 -0.238914
C48   C     C_R   0.426480 0.372779 0.447082 -0.240035
C49   C     C_R   0.981242 0.915102 0.992797 0.158309
C50   C     C_R   0.018714 0.084914 0.007242 0.158270
C51   C     C_R   0.520263 0.582073 0.499135 0.156152
C52   C     C_R   0.479703 0.417950 0.500915 0.155773
H13   H     H_    0.100951 0.230408 0.073227 0.125981
H14   H     H_    0.898995 0.769623 0.926817 0.125135
H15   H     H_    0.394657 0.249280 0.449415 0.123674
H16   H     H_    0.605328 0.750701 0.550611 0.123271
H17   H     H_    0.061814 0.658806 0.120278 0.131543
H18   H     H_    0.938183 0.341168 0.879725 0.130728
H19   H     H_    0.445130 0.747045 0.348344 0.128333
H20   H     H_    0.554814 0.253072 0.651740 0.126818
H21   H     H_    0.030799 0.366892 0.974888 0.119720
H22   H     H_    0.969169 0.633112 0.025142 0.119675
H23   H     H_    0.462217 0.176969 0.559705 0.120052
H24   H     H_    0.537733 0.823099 0.440365 0.120232
C53   C     C_3   0.422737 0.673708 0.966133 -0.382488
C54   C     C_3   0.355866 0.674124 0.917319 -0.752968
H25   H     H_    0.312195 0.647875 0.944962 0.223674
H26   H     H_    0.350111 0.809996 0.891962 0.231676
H27   H     H_    0.355465 0.562712 0.877503 0.216017
H28   H     H_    0.464104 0.685715 0.934758 0.195188
H29   H     H_    0.427526 0.537993 0.991771 0.177416
C55   C     C_3   0.599020 0.748872 0.040573 -0.384382
C56   C     C_3   0.601308 0.546817 0.015547 -0.756197
H30   H     H_    0.552585 0.501856 0.984390 0.222422
H31   H     H_    0.642822 0.528292 0.984656 0.229543
H32   H     H_    0.610667 0.455529 0.060144 0.215881
H33   H     H_    0.649147 0.790228 0.070271 0.180338
H34   H     H_    0.561656 0.756428 0.076681 0.185903
C57   C     C_3   0.099394 0.770980 0.540023 -0.384476
C58   C     C_3   0.101917 0.969596 0.514541 -0.756226
H35   H     H_    0.143594 0.989486 0.483790 0.229101
H36   H     H_    0.053320 0.002797 0.483105 0.222851
H37   H     H_    0.111141 0.068935 0.558909 0.216030
H38   H     H_    0.062015 0.763560 0.576140 0.186433
H39   H     H_    0.149471 0.741127 0.569818 0.180084
C59   C     C_3   0.923149 0.810869 0.465670 -0.381755
C60   C     C_3   0.856163 0.794241 0.417025 -0.754051
H40   H     H_    0.850067 0.653854 0.391937 0.231863
H41   H     H_    0.812627 0.818697 0.444738 0.222775
H42   H     H_    0.855883 0.899716 0.376989 0.216316
H43   H     H_    0.928275 0.950999 0.491051 0.177264
H44   H     H_    0.964398 0.799779 0.434199 0.195162

loop_
_geom_bond_atom_site_label_1
_geom_bond_atom_site_label_2
_ccdc_geom_bond_type
C53   H29   S    
C47   C51   A    
C51   C52   A    
O1    C5    A    
C53   C54   S    
C57   H39   S    
C23   H11   S    
O19   V1    S    
O13   V1    S    
O3    C7    A    
C10   C14   A    
O15   V3    S    
C10   C30   A    
C9    C29   A    
C60   H40   S    
C38   H22   S    
C49   C50   A    
C58   H35   S    
O7    C3    A    
C47   H16   S    
C18   C22   A    
C46   H13   S    
C28   C32   A    
O9    V1    S    
C36   C43   A    
C56   H31   S    
O16   V4    S    
C11   H3    S    
O4    C8    A    
C28   C59   S    
C7    C17   S    
C26   C55   S    
C42   H17   S    
C57   C58   S    
C41   H18   S    
O1    V3    S    
C55   C56   S    
C54   H27   S    
O2    V4    S    
C14   H6    S    
C55   H34   S    
C59   H43   S    
O3    V1    S    
C34   C45   A    
C33   C46   A    
C21   C25   A    
C1    O15   A    
C2    O16   A    
C23   C27   A    
O2    C6    A    
C24   C28   A    
O14   V2    S    
C48   H15   S    
C11   C15   A    
C27   C57   S    
C16   C20   A    
O11   C7    A    
O12   C8    A    
C34   C41   A    
C33   C42   A    
O10   V2    S    
C13   C17   A    
C35   C44   A    
O5    V1    S    
C8    C18   S    
C27   C31   A    
O7    V3    S    
C26   C30   A    
C31   C32   S    
O8    V4    S    
C40   C44   A    
C12   H4    S    
C56   H32   S    
C21   H9    S    
O18   V4    S    
C60   H42   S    
C22   C26   A    
C46   C50   A    
C9    H1    S    
C25   C53   S    
C24   H12   S    
C55   H33   S    
C37   H21   S    
O5    C1    A    
C11   C31   A    
O8    C4    A    
C39   H23   S    
O9    C5    A    
C44   H19   S    
C54   H26   S    
C40   C51   A    
C14   C18   A    
C45   H14   S    
O6    V2    S    
C57   H38   S    
C3    C33   S    
C12   C16   A    
C40   H24   S    
C5    C19   S    
C6    C20   S    
C35   C48   A    
C22   H10   S    
C53   H28   S    
C4    C34   S    
C3    O13   A    
C37   C41   A    
C1    C35   S    
C10   H2    S    
O17   V3    S    
C48   C52   A    
O6    C2    A    
C12   C32   A    
O11   V3    S    
O12   V4    S    
C58   H37   S    
C9    C13   A    
O10   C6    A    
O20   V2    S    
C43   H20   S    
C16   H8    S    
C56   H30   S    
C15   C19   A    
C15   H7    S    
C17   C21   A    
C58   H36   S    
C19   C23   A    
C38   C49   A    
C59   H44   S    
C54   H25   S    
O4    V2    S    
C37   C50   A    
C36   C47   A    
C60   H41   S    
C25   C29   A    
C39   C52   A    
C29   C30   S    
C38   C42   A    
C4    O14   A    
C13   H5    S    
C59   C60   S    
C39   C43   A    
C45   C49   A    
C20   C24   A    
C2    C36   S    
