data_mof_unit_28122.cif
_audit_creation_date              2012-12-10T16:53:55-0500
_audit_creation_method            fapswitch 2.2
_symmetry_space_group_name_H-M    P1
_symmetry_Int_Tables_number       1
_space_group_crystal_system       triclinic
_cell_length_a                    7.771139
_cell_length_b                    8.565217
_cell_length_c                    10.616297
_cell_angle_alpha                 91.168607
_cell_angle_beta                  85.136222
_cell_angle_gamma                 93.844557
_cell_volume                      702.430664948

loop_
_atom_site_label
_atom_site_type_symbol
_atom_type_description
_atom_site_fract_x
_atom_site_fract_y
_atom_site_fract_z
_atom_type_partial_charge
C1    C     C_R   0.545922 0.794784 0.496330 0.967791
C2    C     C_3   0.497140 0.499246 0.121762 0.148948
C3    C     C_3   0.564989 0.343467 0.067144 -0.418074
C4    C     C_3   0.615410 0.639060 0.067245 -0.397382
C5    C     C_2   0.570033 0.958355 0.493526 -0.368869
C6    C     C_2   0.429901 0.041550 0.502902 -0.350189
C7    C     C_R   0.500337 0.499175 0.742300 0.881179
C8    C     C_R   0.454049 0.205195 0.502234 0.993243
C9    C     C_R   0.498792 0.500057 0.257889 0.832238
C10   C     C_3   0.311928 0.515669 0.940956 -0.366294
C11   C     C_3   0.310597 0.513724 0.083844 -0.396448
C12   C     C_3   0.567224 0.341888 0.922170 -0.011885
C13   C     C_3   0.617450 0.637192 0.922628 -0.452544
C14   C     C_3   0.498902 0.497245 0.878927 0.119485
H1    H     H_    0.220431 0.420106 0.909508 0.206878
H2    H     H_    0.749993 0.632201 0.094328 0.184498
H3    H     H_    0.703180 0.333138 0.881540 0.153962
H4    H     H_    0.698537 0.329701 0.093973 0.170175
H5    H     H_    0.702250 0.009778 0.484383 0.180384
H6    H     H_    0.297681 0.990140 0.512083 0.182476
H7    H     H_    0.014092 0.382535 0.404421 0.186329
H8    H     H_    0.985915 0.617471 0.595578 0.191050
H9    H     H_    0.263826 0.628373 0.912599 0.186929
H10   H     H_    0.257491 0.623445 0.124054 0.185083
H11   H     H_    0.223664 0.413407 0.121070 0.182533
H12   H     H_    0.481776 0.243161 0.107996 0.183913
H13   H     H_    0.752686 0.628006 0.880547 0.179878
H14   H     H_    0.572250 0.749396 0.890758 0.201894
H15   H     H_    0.567536 0.751460 0.106002 0.175999
N1    N     N_2   0.950330 0.457950 0.465890 -0.174941
N2    N     N_2   0.049670 0.542050 0.534110 -0.173219
O1    O     O_R   0.389250 0.738570 0.508370 -0.609973
O2    O     O_R   0.678390 0.711620 0.486510 -0.630299
O3    O     O_R   0.355430 0.513500 0.696140 -0.616994
O4    O     O_R   0.644580 0.486550 0.674270 -0.631054
O5    O     O_R   0.321610 0.288380 0.513490 -0.620714
O6    O     O_R   0.610750 0.261430 0.491630 -0.609109
O7    O     O_R   0.355420 0.513450 0.325730 -0.639035
O8    O     O_R   0.644570 0.486500 0.303860 -0.630896
Zn1   Zn    Zn3+2 0.306940 0.517990 0.514600 0.945494
Zn2   Zn    Zn3+2 0.693060 0.482010 0.485400 0.939223
I1    I     I_    0.426648 0.133385 0.856969 -0.481662

loop_
_geom_bond_atom_site_label_1
_geom_bond_atom_site_label_2
_ccdc_geom_bond_type
C12   H3    S    
C4    H2    S    
C2    C4    S    
C13   H14   S    
C5    H5    S    
C10   H9    S    
C7    C14   S    
C6    H6    S    
H7    N1    S    
C4    H15   S    
O5    Zn1   S    
O2    Zn2   S    
H8    N2    S    
C2    C3    S    
C1    O2    A    
N1    Zn2   S    
C13   C14   S    
O7    Zn1   S    
C5    C6    D    
C3    H4    S    
O3    Zn1   S    
C2    C11   S    
C6    C8    S    
C9    O7    A    
C12   C14   S    
C10   H1    S    
O1    Zn1   S    
O6    Zn2   S    
N1    N2    D    
O4    Zn2   S    
C7    O3    A    
C1    C5    S    
C10   C11   S    
C11   H11   S    
C11   H10   S    
C9    O8    A    
N2    Zn1   S    
C8    O6    A    
O8    Zn2   S    
C8    O5    A    
C4    C13   S    
C13   H13   S    
C12   I1    S    
C3    C12   S    
C2    C9    S    
C7    O4    A    
C3    H12   S    
C1    O1    A    
C10   C14   S    
