data_mof_unit_47063.cif
_audit_creation_date              2012-12-10T18:09:33-0500
_audit_creation_method            fapswitch 2.2
_symmetry_space_group_name_H-M    P1
_symmetry_Int_Tables_number       1
_space_group_crystal_system       triclinic
_cell_length_a                    15.213266
_cell_length_b                    15.407802
_cell_length_c                    9.70654
_cell_angle_alpha                 89.662166
_cell_angle_beta                  89.815898
_cell_angle_gamma                 89.889742
_cell_volume                      2275.18657486

loop_
_atom_site_label
_atom_site_type_symbol
_atom_type_description
_atom_site_fract_x
_atom_site_fract_y
_atom_site_fract_z
_atom_type_partial_charge
C1    C     C_R   0.120319 0.380358 0.500663 0.767497
C2    C     C_R   0.121430 0.618587 0.499811 0.772451
C3    C     C_R   0.619828 0.880199 0.500508 0.746950
C4    C     C_R   0.622369 0.117978 0.499507 0.758760
C5    C     C_3   0.092848 0.514291 0.080218 0.042391
C6    C     C_3   0.092765 0.484390 0.918849 0.039142
C7    C     C_3   0.593898 0.997349 0.080013 0.098131
C8    C     C_3   0.591274 0.019609 0.915387 0.046545
C9    C     C_R   0.885011 0.376968 0.500518 0.728303
C10   C     C_R   0.884360 0.623170 0.499512 0.731514
C11   C     C_R   0.383672 0.877848 0.499777 0.734781
C12   C     C_R   0.383475 0.122076 0.499913 0.736330
C13   C     C_3   0.816551 0.255782 0.644425 -0.062771
C14   C     C_3   0.836877 0.238087 0.381939 -0.030940
C15   C     C_3   0.805547 0.733668 0.647948 -0.041773
C16   C     C_3   0.835858 0.769381 0.388824 -0.044420
C17   C     C_3   0.317730 0.755667 0.639668 -0.042194
C18   C     C_3   0.330701 0.741051 0.373911 -0.055595
C19   C     C_3   0.335114 0.262931 0.616598 -0.069173
C20   C     C_3   0.308677 0.237792 0.354351 -0.055000
C21   C     C_3   0.242823 0.687921 0.638500 -0.376541
C22   C     C_3   0.262809 0.666425 0.387088 -0.339472
C23   C     C_3   0.268403 0.338765 0.599821 -0.351539
C24   C     C_3   0.230078 0.300734 0.357614 -0.403608
C25   C     C_3   0.735672 0.194887 0.644031 -0.380130
C26   C     C_3   0.772501 0.161365 0.400931 -0.380629
C27   C     C_3   0.725288 0.794894 0.649122 -0.391687
C28   C     C_3   0.770667 0.844872 0.416674 -0.391501
C29   C     C_3   0.728545 0.345911 0.474494 -0.470517
C30   C     C_3   0.727788 0.654285 0.458293 -0.452545
C31   C     C_3   0.225957 0.847522 0.480489 -0.462850
C32   C     C_3   0.226557 0.152277 0.535199 -0.465254
C33   C     C_3   0.820809 0.304284 0.501320 0.105155
C34   C     C_3   0.817780 0.695010 0.498981 0.090046
C35   C     C_3   0.318478 0.805509 0.498710 0.100744
C36   C     C_3   0.317531 0.193803 0.500531 0.106704
C37   C     C_3   0.193486 0.686142 0.499513 0.076191
C38   C     C_3   0.191669 0.312228 0.502997 0.097704
C39   C     C_3   0.695233 0.185406 0.498830 0.110138
C40   C     C_3   0.691042 0.812625 0.501861 0.107051
C41   C     C_3   0.154052 0.776952 0.473958 -0.415428
C42   C     C_3   0.155262 0.223414 0.550215 -0.416770
C43   C     C_3   0.658342 0.274852 0.453979 -0.413056
C44   C     C_3   0.657065 0.725962 0.443130 -0.411664
C45   C     C_3   0.943652 0.569684 0.080836 -0.140783
C46   C     C_3   0.962539 0.580600 0.918423 -0.281425
C47   C     C_3   0.962077 0.419405 0.081762 -0.277364
C48   C     C_3   0.943159 0.431197 0.919775 -0.144820
C49   C     C_3   0.452297 0.075053 0.080420 -0.209013
C50   C     C_3   0.436929 0.063464 0.918692 -0.157339
C51   C     C_3   0.453564 0.923553 0.083372 -0.252129
C52   C     C_3   0.469876 0.916052 0.920409 -0.287916
Cu1   Cu    Cu3+1 0.000100 0.500000 0.642410 0.939942
Cu2   Cu    Cu3+1 0.000100 0.500000 0.357590 0.940128
Cu3   Cu    Cu3+1 0.500100 0.000000 0.642410 0.926412
Cu4   Cu    Cu3+1 0.500100 1.000000 0.357590 0.917054
H1    H     H_    0.800792 0.306484 0.722431 0.131374
H2    H     H_    0.817919 0.273211 0.285465 0.162440
H3    H     H_    0.789741 0.679059 0.719552 0.150642
H4    H     H_    0.818163 0.742515 0.286080 0.171093
H5    H     H_    0.296874 0.804163 0.718479 0.134055
H6    H     H_    0.313906 0.778754 0.279060 0.157616
H7    H     H_    0.319548 0.230212 0.716584 0.159588
H8    H     H_    0.293296 0.186351 0.277880 0.152803
H9    H     H_    0.267215 0.622164 0.657950 0.214499
H10   H     H_    0.295141 0.603389 0.412134 0.176542
H11   H     H_    0.301042 0.398020 0.558226 0.169159
H12   H     H_    0.251781 0.365385 0.324314 0.227030
H13   H     H_    0.750325 0.130271 0.685087 0.206845
H14   H     H_    0.805227 0.100903 0.436150 0.136773
H15   H     H_    0.746065 0.857077 0.691960 0.218074
H16   H     H_    0.803072 0.898258 0.474012 0.153974
H17   H     H_    0.195532 0.707629 0.719531 0.145480
H18   H     H_    0.231157 0.658922 0.286228 0.208616
H19   H     H_    0.242735 0.355072 0.702976 0.210732
H20   H     H_    0.178629 0.276378 0.287049 0.149826
H21   H     H_    0.685839 0.224568 0.711204 0.185668
H22   H     H_    0.749535 0.149261 0.298783 0.199319
H23   H     H_    0.672125 0.767066 0.714928 0.151299
H24   H     H_    0.749482 0.872971 0.318007 0.211969
H25   H     H_    0.709404 0.387735 0.562867 0.170136
H26   H     H_    0.729886 0.388550 0.381448 0.170706
H27   H     H_    0.706535 0.606413 0.538031 0.161922
H28   H     H_    0.733321 0.618385 0.359403 0.171024
H29   H     H_    0.211459 0.892297 0.567339 0.165456
H30   H     H_    0.223880 0.887424 0.384534 0.169294
H31   H     H_    0.229865 0.113838 0.632574 0.170821
H32   H     H_    0.207227 0.106414 0.452413 0.163834
H33   H     H_    0.102487 0.790921 0.552227 0.152726
H34   H     H_    0.123354 0.777655 0.370989 0.218201
H35   H     H_    0.133548 0.227077 0.659301 0.228616
H36   H     H_    0.097643 0.205663 0.487095 0.156793
H37   H     H_    0.599170 0.291584 0.514497 0.160336
H38   H     H_    0.638362 0.272836 0.343870 0.215187
H39   H     H_    0.596308 0.705332 0.497572 0.155365
H40   H     H_    0.641215 0.735383 0.332657 0.185559
H41   H     H_    0.945845 0.632095 0.135434 0.201979
H42   H     H_    0.005750 0.636913 0.897746 0.167697
H43   H     H_    0.005052 0.362442 0.101221 0.153568
H44   H     H_    0.945619 0.369752 0.864732 0.197959
H45   H     H_    0.486465 0.136755 0.100341 0.212302
H46   H     H_    0.433614 0.126316 0.864342 0.196414
H47   H     H_    0.468757 0.861951 0.137045 0.142477
H48   H     H_    0.516180 0.862205 0.899311 0.115497
H49   H     H_    0.872868 0.553038 0.095653 0.106258
H50   H     H_    0.899058 0.595336 0.867907 0.164264
H51   H     H_    0.898600 0.403681 0.132567 0.162002
H52   H     H_    0.872399 0.448234 0.905601 0.105166
H53   H     H_    0.386833 0.081877 0.130155 0.135780
H54   H     H_    0.368196 0.040490 0.902822 0.109008
H55   H     H_    0.381485 0.929751 0.102488 0.149760
H56   H     H_    0.406561 0.896877 0.873282 0.162978
N1    N     N_3   0.001260 0.500000 0.143650 -0.152102
N2    N     N_3   0.001260 0.500000 0.856350 -0.155313
N3    N     N_3   0.501260 0.000000 0.143650 -0.158748
N4    N     N_3   0.501260 0.000000 0.856350 -0.162013
O1    O     O_R   0.091250 0.408820 0.620260 -0.520412
O2    O     O_R   0.091250 0.408820 0.379740 -0.605746
O3    O     O_R   0.091250 0.591180 0.620260 -0.605740
O4    O     O_R   0.091250 0.591180 0.379740 -0.519200
O5    O     O_R   0.591250 0.908820 0.620260 -0.599448
O6    O     O_R   0.591250 0.908820 0.379740 -0.612896
O7    O     O_R   0.591250 0.091180 0.620260 -0.556091
O8    O     O_R   0.591250 0.091180 0.379740 -0.549014
O9    O     O_R   0.908940 0.408800 0.620260 -0.594761
O10   O     O_R   0.908940 0.408800 0.379740 -0.602548
O11   O     O_R   0.908940 0.591200 0.620260 -0.600260
O12   O     O_R   0.908940 0.591200 0.379740 -0.594671
O13   O     O_R   0.408940 0.908800 0.620260 -0.599290
O14   O     O_R   0.408940 0.908800 0.379740 -0.598332
O15   O     O_R   0.408940 0.091200 0.620260 -0.591732
O16   O     O_R   0.408940 0.091200 0.379740 -0.595306
C53   C     C_3   0.905604 0.214509 0.695847 -0.368549
C54   C     C_3   0.911589 0.114818 0.711111 -0.332202
C55   C     C_3   0.005716 0.084271 0.735610 -0.892645
H57   H     H_    0.044634 0.090658 0.639462 0.250536
H58   H     H_    0.037033 0.122252 0.818963 0.271271
H59   H     H_    0.005526 0.014690 0.765679 0.246948
H60   H     H_    0.871796 0.094086 0.801674 0.250706
H61   H     H_    0.886983 0.081303 0.618699 0.224467
H62   H     H_    0.961193 0.238822 0.632560 0.207370
H63   H     H_    0.918166 0.239044 0.800912 0.196042
C56   C     C_3   0.932250 0.206487 0.355781 -0.458932
C57   C     C_3   0.941505 0.163212 0.213833 -0.343493
C58   C     C_3   0.037732 0.149123 0.175366 -0.862711
H64   H     H_    0.070259 0.212559 0.157649 0.246996
H65   H     H_    0.072577 0.112927 0.258155 0.251041
H66   H     H_    0.041911 0.111516 0.078427 0.243631
H67   H     H_    0.907351 0.099500 0.215136 0.221528
H68   H     H_    0.911017 0.204424 0.132512 0.213677
H69   H     H_    0.978099 0.262195 0.359313 0.214390
H70   H     H_    0.952539 0.158758 0.435102 0.215790
C59   C     C_3   0.888842 0.780032 0.704124 -0.418203
C60   C     C_3   0.886328 0.793042 0.860734 -0.340552
C61   C     C_3   0.976967 0.818247 0.915330 -0.854457
H71   H     H_    0.031478 0.791378 0.852124 0.239994
H72   H     H_    0.983530 0.889919 0.918281 0.254926
H73   H     H_    0.984792 0.791311 0.020334 0.275995
H74   H     H_    0.838417 0.844774 0.887509 0.271853
H75   H     H_    0.863867 0.733227 0.913715 0.198565
H76   H     H_    0.948190 0.741762 0.677096 0.204168
H77   H     H_    0.895833 0.845455 0.657113 0.212182
C62   C     C_3   0.931792 0.801860 0.368882 -0.456419
C63   C     C_3   0.936956 0.881303 0.271120 -0.315471
C64   C     C_3   0.031272 0.907571 0.237898 -0.891965
H78   H     H_    0.064894 0.929773 0.332693 0.255571
H79   H     H_    0.068333 0.853087 0.191458 0.275696
H80   H     H_    0.030661 0.961688 0.162226 0.251607
H81   H     H_    0.901243 0.867415 0.174304 0.253136
H82   H     H_    0.905091 0.938597 0.318935 0.213558
H83   H     H_    0.962572 0.819767 0.466842 0.191307
H84   H     H_    0.971250 0.748238 0.324324 0.239117
C65   C     C_3   0.410811 0.724848 0.689968 -0.397309
C66   C     C_3   0.421604 0.631353 0.742151 -0.332076
C67   C     C_3   0.514911 0.616852 0.795165 -0.907257
H85   H     H_    0.533422 0.667810 0.870140 0.255639
H86   H     H_    0.518532 0.553362 0.848255 0.254622
H87   H     H_    0.562559 0.617433 0.708283 0.247830
H88   H     H_    0.374880 0.619193 0.828409 0.247966
H89   H     H_    0.409338 0.584588 0.657658 0.224600
H90   H     H_    0.461938 0.738314 0.611641 0.187720
H91   H     H_    0.429230 0.766509 0.777343 0.192044
C68   C     C_3   0.424222 0.704263 0.347961 -0.452672
C69   C     C_3   0.430495 0.658594 0.207391 -0.345675
C70   C     C_3   0.522996 0.624409 0.179521 -0.892064
H92   H     H_    0.567092 0.678751 0.150206 0.242009
H93   H     H_    0.549481 0.589847 0.271236 0.259490
H94   H     H_    0.521287 0.577945 0.092874 0.253162
H95   H     H_    0.384427 0.602817 0.204900 0.252992
H96   H     H_    0.411900 0.704200 0.123150 0.207684
H97   H     H_    0.473203 0.757401 0.349830 0.208026
H98   H     H_    0.441323 0.656093 0.428905 0.213497
C71   C     C_3   0.431454 0.294986 0.631991 -0.456078
C72   C     C_3   0.446909 0.342246 0.767762 -0.318182
C73   C     C_3   0.539792 0.379824 0.772729 -0.832212
H99   H     H_    0.548124 0.430566 0.692006 0.239766
H100  H     H_    0.552888 0.408478 0.874885 0.235533
H101  H     H_    0.589270 0.328575 0.756006 0.277690
H102  H     H_    0.398945 0.396217 0.779159 0.236470
H103  H     H_    0.438018 0.295830 0.854261 0.241901
H104  H     H_    0.477219 0.239099 0.628408 0.236688
H105  H     H_    0.450718 0.340566 0.550193 0.196122
C74   C     C_3   0.391828 0.286002 0.301223 -0.410840
C75   C     C_3   0.385329 0.313409 0.148780 -0.348782
C76   C     C_3   0.445166 0.390981 0.118824 -0.811776
H106  H     H_    0.435285 0.443064 0.195933 0.261784
H107  H     H_    0.515135 0.370301 0.119846 0.255462
H108  H     H_    0.428453 0.419814 0.017680 0.248494
H109  H     H_    0.403490 0.258391 0.081757 0.195072
H110  H     H_    0.317252 0.332292 0.120885 0.224423
H111  H     H_    0.397769 0.346685 0.359586 0.213378
H112  H     H_    0.452351 0.246840 0.316973 0.210342
C77   C     C_2   0.126800 0.610011 0.094288 0.350525
H113  H     H_    0.193181 0.625149 0.060131 0.066401
O17   O     O_2   0.085908 0.669720 0.145487 -0.619882
C78   C     C_2   0.161911 0.536833 0.845103 0.337525
H114  H     H_    0.151747 0.605429 0.838763 0.054841
O18   O     O_2   0.231197 0.506063 0.803597 -0.648881
C79   C     C_2   0.161813 0.461332 0.153684 0.344178
H115  H     H_    0.152572 0.392185 0.159389 0.042917
O19   O     O_2   0.229775 0.492647 0.198564 -0.632133
C80   C     C_2   0.126417 0.388378 0.903771 0.356078
H116  H     H_    0.193060 0.372821 0.935694 0.062168
O20   O     O_2   0.084679 0.328739 0.854922 -0.610530
C81   C     C_2   0.655259 0.061308 0.145861 0.365571
H117  H     H_    0.718475 0.039516 0.184480 0.077866
O21   O     O_2   0.637860 0.138930 0.148712 -0.615594
C82   C     C_2   0.620120 0.114585 0.887085 0.490072
H118  H     H_    0.688764 0.131380 0.901911 0.077230
O22   O     O_2   0.570366 0.173998 0.859280 -0.609579
C83   C     C_2   0.638493 0.907759 0.108630 0.164459
H119  H     H_    0.603549 0.852190 0.148100 0.127156
O23   O     O_2   0.716489 0.895793 0.083642 -0.641633
C84   C     C_2   0.660145 0.964557 0.844756 0.395837
H120  H     H_    0.651020 0.895185 0.845065 0.097068
O24   O     O_2   0.728745 0.993736 0.798183 -0.658703

loop_
_geom_bond_atom_site_label_1
_geom_bond_atom_site_label_2
_ccdc_geom_bond_type
C12   O16   A    
C16   C28   S    
C55   H59   S    
C41   H33   S    
C74   C75   S    
Cu3   O5    S    
C15   H3    S    
C64   H78   S    
C31   H29   S    
C12   O15   A    
Cu2   O4    S    
C61   H72   S    
C63   H82   S    
C62   C63   S    
C67   H85   S    
Cu3   Cu4   S    
C30   C44   S    
C68   H98   S    
C14   C33   S    
C82   O22   D    
C58   H64   S    
C8    C82   S    
C71   H104  S    
C7    C8    S    
C67   H86   S    
C7    C83   S    
C45   C46   S    
C60   H75   S    
Cu2   O10   S    
C5    C79   S    
C53   H63   S    
C26   H22   S    
C37   C41   S    
C25   H21   S    
Cu4   O8    S    
C49   H53   S    
C63   C64   S    
C78   O18   D    
C38   C42   S    
C81   O21   D    
C27   H23   S    
C19   C36   S    
C49   H45   S    
C5    C6    S    
Cu1   O1    S    
C26   C39   S    
C70   H93   S    
C13   H1    S    
Cu3   N4    S    
C52   H56   S    
C51   H47   S    
C56   C57   S    
C32   H32   S    
Cu2   N1    S    
C21   H17   S    
C50   H54   S    
C43   H38   S    
C47   H43   S    
C69   C70   S    
C4    O8    A    
C55   H58   S    
C42   H35   S    
C16   H4    S    
C7    N3    S    
C30   H27   S    
C49   C50   S    
C66   C67   S    
C22   H10   S    
C57   H68   S    
Cu1   O11   S    
C17   H5    S    
C72   H103  S    
C20   C24   S    
C29   C33   S    
C19   H7    S    
Cu3   O13   S    
C75   H109  S    
C24   C38   S    
C51   H55   S    
C12   C36   S    
C24   H12   S    
C62   H83   S    
C18   C35   S    
C15   C34   S    
C50   N4    S    
C3    O6    A    
C73   H101  S    
C21   H9    S    
C76   H107  S    
C41   H34   S    
C46   H42   S    
C65   H90   S    
C64   H79   S    
C31   H30   S    
C29   C43   S    
C61   H73   S    
C9    C33   S    
C75   C76   S    
C74   H111  S    
C63   H81   S    
C28   H16   S    
C84   O24   D    
C10   O12   A    
C11   O13   A    
C82   H118  S    
C58   H65   S    
C17   C65   S    
C67   H87   S    
C52   N4    S    
C16   C62   S    
C32   C42   S    
C14   H2    S    
Cu3   O7    S    
C46   N2    S    
C51   C52   S    
C55   H57   S    
C48   H44   S    
C78   H114  S    
C10   C34   S    
C54   H60   S    
C30   C34   S    
C24   H20   S    
C70   H94   S    
C39   C43   S    
C7    C81   S    
C65   C66   S    
C32   H31   S    
Cu2   O12   S    
C51   N3    S    
C71   H105  S    
C4    O7    A    
C59   H76   S    
Cu4   O6    S    
C20   H8    S    
C19   C23   S    
C68   C69   S    
C13   C33   S    
C57   H67   S    
C44   H40   S    
C79   O19   D    
C15   C27   S    
C47   C48   S    
C83   H119  S    
C4    C39   S    
C77   H113  S    
C27   C40   S    
Cu1   Cu2   S    
C5    C77   S    
C81   H117  S    
C21   C37   S    
C83   O23   D    
C1    O1    A    
C14   C26   S    
C80   O20   D    
C62   H84   S    
C60   C61   S    
Cu4   O16   S    
Cu1   O9    S    
C1    C38   S    
C56   H70   S    
C49   N3    S    
C29   H25   S    
C19   C71   S    
C64   H80   S    
C47   H51   S    
Cu2   O2    S    
C53   C54   S    
C26   H14   S    
C31   C35   S    
C74   H112  S    
C25   H13   S    
C84   H120  S    
C22   H18   S    
C10   O11   A    
C11   O14   A    
C32   C36   S    
C79   H115  S    
C58   H66   S    
C27   H15   S    
Cu1   N2    S    
C48   N2    S    
C76   H108  S    
C47   N1    S    
C76   H106  S    
C14   C56   S    
C52   H48   S    
C69   H96   S    
C2    O4    A    
C31   C41   S    
C5    N1    S    
C3    C40   S    
C18   C22   S    
C13   C53   S    
C18   H6    S    
C20   C74   S    
C23   H19   S    
C57   C58   S    
C13   C25   S    
C68   H97   S    
C65   H91   S    
C2    O3    A    
Cu1   O3    S    
C50   H46   S    
C54   C55   S    
C72   H102  S    
C23   C38   S    
C66   H89   S    
Cu3   O15   S    
C9    O10   A    
C59   H77   S    
C16   C34   S    
C11   C35   S    
C77   O17   D    
C60   H74   S    
C44   H39   S    
C45   H41   S    
C25   C39   S    
C54   H61   S    
C22   C37   S    
C2    C37   S    
C70   H92   S    
C48   H52   S    
C45   H49   S    
C18   C68   S    
C46   H50   S    
C56   H69   S    
C43   H37   S    
Cu4   N3    S    
C72   C73   S    
C6    N2    S    
C42   H36   S    
C1    O2    A    
C30   H28   S    
C80   H116  S    
C28   H24   S    
C17   C21   S    
C15   C59   S    
C23   H11   S    
C8    N4    S    
C73   H99   S    
C20   C36   S    
C9    O9    A    
C45   N1    S    
C40   C44   S    
C6    C78   S    
C29   H26   S    
C71   C72   S    
C75   H110  S    
C61   H71   S    
C28   C40   S    
C69   H95   S    
C53   H62   S    
C17   C35   S    
C6    C80   S    
C59   C60   S    
C66   H88   S    
Cu4   O14   S    
C3    O5    A    
C73   H100  S    
C8    C84   S    
