data_mof_unit_16627.cif
_audit_creation_date              2012-12-10T16:51:10-0500
_audit_creation_method            fapswitch 2.2
_symmetry_space_group_name_H-M    P1
_symmetry_Int_Tables_number       1
_space_group_crystal_system       triclinic
_cell_length_a                    27.484236
_cell_length_b                    8.766157
_cell_length_c                    7.518768
_cell_angle_alpha                 103.827335
_cell_angle_beta                  94.13621
_cell_angle_gamma                 89.13805
_cell_volume                      1754.42247706

loop_
_atom_site_label
_atom_site_type_symbol
_atom_type_description
_atom_site_fract_x
_atom_site_fract_y
_atom_site_fract_z
_atom_type_partial_charge
C1    C     C_R   0.497735 0.200616 0.453963 0.773939
C2    C     C_R   0.501845 0.799439 0.546287 0.775054
C3    C     C_R   0.101844 0.522282 0.502737 -0.164301
C4    C     C_R   0.898143 0.430737 0.461092 -0.154066
C5    C     C_R   0.133296 0.391147 0.475096 -0.107622
C6    C     C_R   0.870144 0.547461 0.573075 -0.098813
C7    C     C_R   0.113649 0.238036 0.412405 0.426751
C8    C     C_R   0.892708 0.687460 0.675628 0.413920
C9    C     C_R   0.121370 0.676243 0.567287 -0.181527
C10   C     C_R   0.875152 0.293523 0.352474 -0.189708
C11   C     C_R   0.354058 0.529394 0.513273 -0.127517
C12   C     C_R   0.645304 0.456785 0.484085 -0.137175
C13   C     C_R   0.978814 0.329136 0.365786 -0.047806
C14   C     C_R   0.019514 0.627848 0.531587 -0.062103
C15   C     C_R   0.970218 0.598025 0.551135 0.031112
C16   C     C_R   0.030812 0.347270 0.396806 0.044750
C17   C     C_R   0.949133 0.451974 0.459332 0.013488
C18   C     C_R   0.050699 0.499099 0.475098 0.019991
C19   C     C_R   0.954943 0.194362 0.250887 0.326869
C20   C     C_R   0.038919 0.781416 0.570439 0.255544
C21   C     C_R   0.904292 0.172631 0.252340 0.420751
C22   C     C_R   0.089249 0.805968 0.600263 0.400058
C23   C     C_R   0.407330 0.505893 0.503370 0.799564
C24   C     C_R   0.592496 0.489430 0.495813 0.804330
C25   C     C_R   0.063303 0.218594 0.370924 -0.212158
C26   C     C_R   0.942173 0.708432 0.667416 -0.228144
C27   C     C_2   0.492124 0.033670 0.430670 0.149856
C28   C     C_2   0.506335 0.966682 0.570997 0.149998
C29   C     C_R   0.183573 0.417807 0.516974 0.550647
C30   C     C_R   0.820194 0.521379 0.577988 0.546270
C31   C     C_R   0.172598 0.695095 0.585363 0.559620
C32   C     C_R   0.823487 0.285355 0.343615 0.558269
C33   C     C_R   0.285210 0.609658 0.701906 -0.078352
C34   C     C_R   0.717342 0.435807 0.308810 -0.102794
C35   C     C_R   0.335199 0.585368 0.686547 -0.234375
C36   C     C_R   0.667707 0.468017 0.325217 -0.256565
C37   C     C_R   0.321471 0.503340 0.353767 0.350378
C38   C     C_R   0.673694 0.406951 0.624727 0.348837
C39   C     C_R   0.271903 0.531871 0.371231 -0.195701
C40   C     C_R   0.723031 0.374842 0.606382 -0.155893
C41   C     C_R   0.253424 0.581124 0.544097 0.286693
C42   C     C_R   0.745347 0.391387 0.450977 0.261722
Cu1   Cu    Cu3+1 0.505380 0.517380 0.684380 1.004805
Cu2   Cu    Cu3+1 0.494620 0.482620 0.315620 0.983741
H1    H     H_    0.462797 0.380469 0.948666 0.258150
H2    H     H_    0.537220 0.619474 0.051338 0.245074
H3    H     H_    0.246799 0.504832 0.249941 0.160539
H4    H     H_    0.745157 0.346713 0.719310 0.175874
H5    H     H_    0.647072 0.506500 0.215974 0.225881
H6    H     H_    0.358992 0.607503 0.811167 0.203727
H7    H     H_    0.734533 0.453458 0.190103 0.178658
H8    H     H_    0.271037 0.643540 0.836377 0.162021
H9    H     H_    0.050044 0.099764 0.338098 0.256592
H10   H     H_    0.958705 0.810912 0.759358 0.249624
N1    N     N_R   0.202046 0.566335 0.556584 -0.452738
N2    N     N_R   0.797612 0.397482 0.457315 -0.453451
N3    N     N_2   0.486510 0.456430 0.038510 -0.203485
N4    N     N_2   0.513490 0.543570 0.961490 -0.193680
O1    O     O_R   0.503500 0.286120 0.619780 -0.543516
O2    O     O_R   0.496500 0.713880 0.380220 -0.560852
O3    O     O_R   0.494410 0.256780 0.308360 -0.578749
O4    O     O_R   0.505590 0.743220 0.691640 -0.566458
O5    O     O_R   0.434810 0.514700 0.655690 -0.595075
O6    O     O_R   0.565190 0.485300 0.344310 -0.607150
O7    O     O_R   0.425720 0.485350 0.344280 -0.534017
O8    O     O_R   0.574280 0.514650 0.655720 -0.523161
O9    O     O_2   0.214584 0.297268 0.516243 -0.521726
O10   O     O_2   0.793779 0.620099 0.700493 -0.534219
O11   O     O_2   0.799174 0.168554 0.222368 -0.559394
O12   O     O_2   0.192931 0.839431 0.626577 -0.497044
Cl1   Cl    Cl    0.338953 0.424193 0.128909 -0.662095
Cl2   Cl    Cl    0.650691 0.384920 0.829416 -0.725359
O13   O     O_3   0.140571 0.108160 0.435026 -0.515866
C43   C     C_3   0.166844 0.040047 0.281265 0.198847
H11   H     H_    0.205294 0.027527 0.332276 0.229305
H12   H     H_    0.168032 0.113795 0.180555 0.074535
C44   C     C_3   0.147627 0.874212 0.192674 -0.375658
H13   H     H_    0.141395 0.811837 0.299729 0.268293
H14   H     H_    0.111821 0.879269 0.117184 0.192475
C45   C     C_3   0.184089 0.778601 0.067136 -0.938586
H15   H     H_    0.196706 0.845800 0.971721 0.287333
H16   H     H_    0.166885 0.667559 0.986555 0.258742
H17   H     H_    0.216370 0.749662 0.150450 0.262040
O14   O     O_3   0.867644 0.802562 0.793178 -0.551118
C46   C     C_3   0.844355 0.904285 0.694211 0.129459
H18   H     H_    0.827830 0.837638 0.559034 0.117991
H19   H     H_    0.871435 0.989789 0.672553 0.121360
C47   C     C_3   0.803811 0.995164 0.804423 -0.190384
H20   H     H_    0.793035 0.933432 0.908672 0.287230
H21   H     H_    0.817516 0.113884 0.877346 0.225645
C48   C     C_3   0.758411 0.012488 0.681309 -0.930879
H22   H     H_    0.767953 0.070520 0.572360 0.255179
H23   H     H_    0.730774 0.083997 0.764961 0.273238
H24   H     H_    0.742268 0.895307 0.615963 0.284588
O15   O     O_3   0.884401 0.029062 0.157555 -0.508869
C49   C     C_3   0.877803 0.936999 0.285348 0.110706
H25   H     H_    0.908449 0.949808 0.393025 0.166031
H26   H     H_    0.843739 0.973907 0.353245 0.114956
C50   C     C_3   0.872626 0.762543 0.190030 -0.312211
H27   H     H_    0.859748 0.697892 0.287539 0.136311
H28   H     H_    0.844318 0.745690 0.074523 0.275498
C51   C     C_3   0.921084 0.691015 0.125221 -0.649682
H29   H     H_    0.937307 0.759226 0.038555 0.307056
H30   H     H_    0.915419 0.567597 0.046026 0.215714
H31   H     H_    0.947357 0.692729 0.244067 0.250919
O16   O     O_3   0.106559 0.958765 0.646733 -0.493842
C52   C     C_3   0.099662 0.028399 0.833025 0.157740
H32   H     H_    0.134155 0.015873 0.911073 0.157879
H33   H     H_    0.070130 0.972271 0.889413 0.135978
C53   C     C_3   0.087133 0.203346 0.860716 -0.279093
H34   H     H_    0.064061 0.222508 0.740879 0.268315
H35   H     H_    0.065461 0.241123 0.982731 0.206865
C54   C     C_3   0.132500 0.307291 0.892200 -0.816123
H36   H     H_    0.149435 0.318484 0.033222 0.221643
H37   H     H_    0.121967 0.426297 0.876567 0.231167
H38   H     H_    0.159728 0.257379 0.792490 0.326433
Cl3   Cl    Cl    0.984306 0.061408 0.077146 -0.686858
Cl4   Cl    Cl    0.002379 0.945513 0.550514 -0.694728
O17   O     O_3   0.475285 0.944284 0.258669 -0.609564
C55   C     C_3   0.426037 0.981172 0.215526 0.102745
H39   H     H_    0.423328 0.998716 0.073568 0.191637
H40   H     H_    0.412233 0.090994 0.306154 0.129175
C56   C     C_3   0.392874 0.844294 0.222164 -0.320530
H41   H     H_    0.405132 0.735391 0.126980 0.257524
H42   H     H_    0.395385 0.825573 0.363614 0.209261
C57   C     C_3   0.339797 0.876869 0.167915 -0.879144
H43   H     H_    0.326449 0.983235 0.264290 0.274805
H44   H     H_    0.316635 0.775632 0.172961 0.269403
H45   H     H_    0.336245 0.894550 0.026110 0.262853
O18   O     O_3   0.520177 0.055805 0.746305 -0.595129
C58   C     C_3   0.570380 0.033852 0.789404 0.079591
H46   H     H_    0.592518 0.097294 0.711775 0.173573
H47   H     H_    0.581146 0.907771 0.755350 0.133284
C59   C     C_3   0.581630 0.099881 0.995594 -0.253217
H48   H     H_    0.576403 0.229309 0.029507 0.260270
H49   H     H_    0.555867 0.048069 0.072435 0.241998
C60   C     C_3   0.633643 0.062172 0.057391 -0.868549
H50   H     H_    0.638759 0.933021 0.032321 0.255502
H51   H     H_    0.640582 0.114635 0.206710 0.256330
H52   H     H_    0.660493 0.110935 0.982369 0.296301

loop_
_geom_bond_atom_site_label_1
_geom_bond_atom_site_label_2
_ccdc_geom_bond_type
C57   H43   S    
C8    C26   A    
O13   C43   S    
C14   C18   A    
O15   C49   S    
C34   C42   A    
C58   C59   S    
C59   C60   S    
C20   Cl4   S    
Cu1   O5    S    
C56   H41   S    
C39   C41   A    
C44   H13   S    
Cu2   O6    S    
C33   H8    S    
C60   H51   S    
H1    N3    S    
C34   H7    S    
C43   H12   S    
C51   H31   S    
C19   C21   A    
C25   H9    S    
C1    O1    A    
C2    O2    A    
C9    C22   A    
C56   H42   S    
O16   C52   S    
C49   C50   S    
C3    C18   A    
C40   H4    S    
C11   C23   S    
C11   C37   A    
C53   H34   S    
C41   N1    S    
Cu1   N4    S    
C42   N2    S    
C29   O9    S    
C31   O12   S    
C43   C44   S    
C49   H26   S    
C52   H32   S    
C12   C36   A    
C28   O18   S    
C55   C56   S    
Cu1   O1    S    
C54   H38   S    
C40   C42   A    
C24   O6    A    
H2    N4    S    
C52   H33   S    
Cu2   O7    S    
C45   H17   S    
C26   H10   S    
C55   H40   S    
C5    C29   A    
C44   H14   S    
C10   C21   A    
C60   H52   S    
C38   Cl2   S    
C43   H11   S    
C13   C19   A    
C46   H19   S    
C14   C20   A    
O14   C46   S    
C4    C6    A    
C48   H22   S    
C5    C7    A    
C15   C26   A    
C6    C8    A    
C29   N1    A    
C57   H45   S    
C3    C5    A    
C46   H18   S    
C30   N2    A    
C56   C57   S    
Cu1   Cu2   S    
C3    C9    A    
C48   H23   S    
C50   H27   S    
C47   C48   S    
Cu2   N3    S    
C49   H25   S    
C7    O13   S    
C35   H6    S    
C47   H20   S    
C51   H30   S    
C53   C54   S    
C59   H48   S    
C4    C17   A    
C45   H16   S    
C50   H28   S    
C47   H21   S    
C37   Cl1   S    
C52   C53   S    
C4    C10   A    
C58   H46   S    
C55   H39   S    
C39   H3    S    
C54   H36   S    
C46   C47   S    
C16   C25   A    
C15   C17   A    
C57   H44   S    
C6    C30   A    
C8    O14   S    
C20   C22   A    
C45   H15   S    
C58   H47   S    
C1    O3    A    
C59   H49   S    
O17   C55   S    
C32   O11   S    
C27   O17   S    
Cu2   O3    S    
C21   O15   S    
C60   H50   S    
C12   C24   S    
C7    C25   A    
C13   C17   A    
C33   C41   A    
C23   O7    A    
C11   C35   A    
O18   C58   S    
C37   C39   A    
C22   O16   S    
C48   H24   S    
C38   C40   A    
C44   C45   S    
N3    N4    D    
Cu2   O2    S    
Cu1   O8    S    
C23   O5    A    
C33   C35   A    
C34   C36   A    
C12   C38   A    
C51   H29   S    
C53   H35   S    
C9    C31   A    
C10   C32   A    
C50   C51   S    
C24   O8    A    
C19   Cl3   S    
C16   C18   A    
C13   C16   A    
C27   C28   D    
C1    C27   S    
C14   C15   A    
C2    C28   S    
C31   N1    A    
C32   N2    A    
C30   O10   S    
C36   H5    S    
C2    O4    A    
Cu1   O4    S    
C54   H37   S    
