data_mof_unit_59258.cif
_audit_creation_date              2013-03-05T15:45:20-0500
_audit_creation_method            fapswitch 2.2
_symmetry_space_group_name_H-M    P1
_symmetry_Int_Tables_number       1
_space_group_crystal_system       triclinic
_cell_length_a                    10.770601
_cell_length_b                    10.9123
_cell_length_c                    9.904584
_cell_angle_alpha                 110.72162
_cell_angle_beta                  98.349411
_cell_angle_gamma                 91.70097
_cell_volume                      1073.11923051

loop_
_atom_site_label
_atom_site_type_symbol
_atom_site_description
_atom_site_fract_x
_atom_site_fract_y
_atom_site_fract_z
_atom_type_partial_charge
O1    O     O_R   0.511700 0.332340 0.577400 -0.488906
O2    O     O_R   0.488300 0.667660 0.422600 -0.521790
O3    O     O_R   0.474680 0.295500 0.332650 -0.574019
O4    O     O_R   0.525320 0.704500 0.667350 -0.560234
C1    C     C_R   0.486356 0.253269 0.441359 0.788107
C2    C     C_R   0.505490 0.746584 0.558744 0.767568
O5    O     O_R   0.338170 0.518410 0.622370 -0.541393
O6    O     O_R   0.661830 0.481590 0.377630 -0.604576
O7    O     O_R   0.301150 0.481570 0.377630 -0.577268
O8    O     O_R   0.698850 0.518430 0.622370 -0.586048
C3    C     C_R   0.263281 0.500396 0.500990 0.772737
C4    C     C_R   0.736725 0.499526 0.498994 0.750571
Cu1   Cu    Cu3+1 0.521920 0.521810 0.644910 1.080263
Cu2   Cu    Cu3+1 0.478080 0.478190 0.355090 1.034885
H1    H     H_    0.071031 0.052571 0.246954 0.145003
H2    H     H_    0.929352 0.947545 0.752653 0.181281
C5    C     C_R   0.154440 0.740171 0.640303 -0.117360
C6    C     C_R   0.845568 0.259809 0.358455 -0.111016
C7    C     C_R   0.102514 0.857992 0.706596 0.451750
C8    C     C_R   0.897656 0.142094 0.291824 0.490875
C9    C     C_R   0.971999 0.857276 0.702826 -0.208128
C10   C     C_R   0.028267 0.142787 0.296700 -0.255810
C11   C     C_R   0.895246 0.740067 0.634065 -0.182058
C12   C     C_R   0.104952 0.259899 0.366281 -0.164688
C13   C     C_R   0.947045 0.619599 0.568059 0.060758
C14   C     C_R   0.053030 0.380327 0.432019 0.075606
C15   C     C_R   0.078032 0.619688 0.570936 -0.021279
C16   C     C_R   0.921989 0.380249 0.428713 -0.029535
C17   C     C_R   0.870475 0.499880 0.497398 -0.104117
C18   C     C_R   0.129556 0.500033 0.502598 -0.105249
H3    H     H_    0.255308 0.744736 0.643856 0.151000
H4    H     H_    0.744596 0.255222 0.354351 0.169417
H5    H     H_    0.794976 0.745431 0.632657 0.161354
H6    H     H_    0.205262 0.254520 0.368329 0.145898
C19   C     C_2   0.473636 0.111273 0.412226 0.075828
C20   C     C_2   0.502938 0.888219 0.587998 0.136160
C21   C     C_2   0.429063 0.068642 0.510906 0.249591
C22   C     C_2   0.426355 0.928109 0.492645 0.276557
N1    N     N_2   0.445130 0.445420 0.137360 -0.092104
N2    N     N_2   0.554870 0.554580 0.862640 -0.039247
C23   C     C_2   0.496336 0.524102 0.082296 0.531015
C24   C     C_2   0.477096 0.501321 0.920382 0.662280
O9    O     O_3   0.181791 0.971871 0.773683 -0.718966
H7    H     H_    0.130832 0.046221 0.815141 0.334653
O10   O     O_3   0.818485 0.028287 0.223314 -0.627559
H8    H     H_    0.869540 0.954125 0.181494 0.337046
O11   O     O_3   0.343288 0.837592 0.378375 -0.694476
H9    H     H_    0.292790 0.885503 0.324489 0.330561
O12   O     O_3   0.384135 0.156278 0.628990 -0.649968
H10   H     H_    0.353422 0.106877 0.686312 0.379879
N3    N     N_R   0.586122 0.980217 0.713126 0.100744
O13   O     O_R   0.612926 0.955297 0.832687 -0.270153
O14   O     O_R   0.648209 0.079459 0.702082 -0.331307
N4    N     N_R   0.514559 0.021728 0.283311 0.116792
O15   O     O_R   0.498318 0.044785 0.162015 -0.262496
O16   O     O_R   0.582399 0.927146 0.291518 -0.249757
O17   O     O_3   0.370996 0.427431 0.829557 -0.661384
H11   H     H_    0.302433 0.436405 0.888244 0.322313
O18   O     O_3   0.564163 0.639736 0.173747 -0.633185
H12   H     H_    0.626477 0.617901 0.243094 0.357310
O19   O     O_3   0.661142 0.622469 0.948274 -0.597916
H13   H     H_    0.703600 0.656735 0.885157 0.378863
O20   O     O_3   0.393744 0.327192 0.042392 -0.622682
H14   H     H_    0.356910 0.284294 0.101896 0.388010

loop_
_geom_bond_atom_site_label_1
_geom_bond_atom_site_label_2
_geom_bond_distance
_ccdc_geom_bond_type
C7    C9    1.400506 A    
O1    Cu1   1.928934 S    
O7    Cu2   1.950533 S    
H2    C9    1.083294 S    
O3    Cu2   1.924786 S    
C4    C17   1.442858 S    
C13   C15   1.406918 A    
C21   O12   1.384535 S    
C23   C24   1.514890 S    
C14   C16   1.406975 A    
C8    O10   1.379362 S    
O6    C4    1.294796 A    
N2    C24   1.308428 D    
O17   H11   0.990686 S    
O2    Cu2   1.928933 S    
C6    C16   1.418194 A    
O18   H12   0.985101 S    
N1    C23   1.315079 D    
Cu1   Cu2   2.704749 S    
C19   N4    1.444129 S    
O5    C3    1.294715 A    
O7    C3    1.293643 A    
C12   C14   1.416877 A    
C22   O11   1.385427 S    
O2    C2    1.300205 A    
C20   N3    1.445750 S    
O8    C4    1.293674 A    
O1    C1    1.300398 A    
C1    C19   1.470553 S    
C24   O17   1.377943 S    
C20   C22   1.359339 D    
C16   C17   1.413862 A    
C19   C21   1.359013 D    
C21   C22   1.478118 S    
C2    C20   1.470176 S    
C14   C18   1.413124 A    
C10   C12   1.392511 A    
C11   C13   1.417073 A    
O9    H7    0.992092 S    
C13   C17   1.413523 A    
O19   H13   0.988965 S    
C5    H3    1.080947 S    
N4    O16   1.301012 A    
C6    H4    1.081377 S    
N2    O19   1.342170 S    
N3    O13   1.301108 A    
C5    C15   1.417813 A    
O5    Cu1   1.956912 S    
N1    O20   1.342834 S    
C23   O18   1.375000 S    
C6    C8    1.396683 A    
O4    C2    1.304725 A    
O12   H10   0.991424 S    
O4    Cu1   1.924786 S    
C15   C18   1.413395 A    
N4    O15   1.301040 A    
C5    C7    1.396019 A    
Cu1   N2    2.031970 S    
O6    Cu2   1.956912 S    
O3    C1    1.304897 A    
Cu2   N1    2.031971 S    
O10   H8    0.992088 S    
C9    C11   1.392986 A    
H1    C10   1.083349 S    
C12   H6    1.081369 S    
C11   H5    1.081626 S    
O11   H9    0.991993 S    
C3    C18   1.442603 S    
C8    C10   1.400271 A    
O20   H14   0.987916 S    
N3    O14   1.301546 A    
O8    Cu1   1.950532 S    
C7    O9    1.379410 S    
