data_mof_unit_23458.cif
_audit_creation_date              2013-03-05T16:30:42-0500
_audit_creation_method            fapswitch 2.2
_symmetry_space_group_name_H-M    P1
_symmetry_Int_Tables_number       1
_space_group_crystal_system       triclinic
_cell_length_a                    10.927252
_cell_length_b                    10.839596
_cell_length_c                    9.562448
_cell_angle_alpha                 89.91987
_cell_angle_beta                  89.602222
_cell_angle_gamma                 90.250458
_cell_volume                      1132.6039768

loop_
_atom_site_label
_atom_site_type_symbol
_atom_site_description
_atom_site_fract_x
_atom_site_fract_y
_atom_site_fract_z
_atom_type_partial_charge
O1    O     O_R   0.500000 0.319640 0.618810 -0.550255
O2    O     O_R   0.500010 0.319680 0.381230 -0.577701
C1    C     C_R   0.496957 0.262345 0.499936 0.816103
O3    O     O_R   0.321940 0.499980 0.618760 -0.538456
O4    O     O_R   0.321950 0.500020 0.381180 -0.630571
C2    C     C_R   0.265414 0.495540 0.500631 0.767326
Cu1   Cu    Cu3+1 0.499990 0.499980 0.640670 1.011349
Cu2   Cu    Cu3+1 0.500010 0.500020 0.359330 0.977827
O5    O     O_R   0.499990 0.680320 0.618770 -0.582808
O6    O     O_R   0.500000 0.680360 0.381190 -0.592453
O7    O     O_R   0.678050 0.499980 0.618820 -0.581767
O8    O     O_R   0.678060 0.500020 0.381240 -0.548372
C3    C     C_R   0.499875 0.737597 0.499692 0.810181
C4    C     C_R   0.734558 0.501936 0.499640 0.818549
C5    C     C_2   0.933557 0.477295 0.389613 -0.036371
C6    C     C_2   0.866301 0.512064 0.499991 -0.231819
H1    H     H_    0.890103 0.443155 0.295423 0.211853
H2    H     H_    0.907294 0.552074 0.592429 0.203824
C7    C     C_2   0.066905 0.489638 0.388393 -0.279274
C8    C     C_2   0.133929 0.479155 0.504778 0.458512
H3    H     H_    0.110676 0.506215 0.287725 0.151208
C9    C     C_R   0.452038 0.062368 0.617353 0.108371
C10   C     C_R   0.485269 0.129079 0.497648 -0.161980
C11   C     C_R   0.503393 0.064546 0.371660 -0.171152
H4    H     H_    0.523371 0.112748 0.275004 0.208810
C12   C     C_R   0.505119 0.936032 0.371310 -0.174106
H5    H     H_    0.524185 0.888763 0.273897 0.171085
C13   C     C_R   0.491095 0.870691 0.497510 -0.094920
C14   C     C_R   0.458778 0.935551 0.617784 0.076308
C15   C     C_3   0.509354 0.931341 0.762312 -0.535390
C16   C     C_3   0.495303 0.071274 0.764893 0.295945
H6    H     H_    0.449720 0.878730 0.835714 0.244671
H7    H     H_    0.606866 0.902634 0.762514 0.165102
H8    H     H_    0.583036 0.122653 0.775534 0.102285
C17   C     C_R   0.606180 0.518334 0.072825 0.225554
N1    N     N_R   0.500780 0.500930 0.147930 -0.227807
C18   C     C_R   0.396536 0.474635 0.074961 -0.061496
H9    H     H_    0.312168 0.454369 0.129887 0.151980
C19   C     C_R   0.396330 0.475708 0.926767 0.039970
H10   H     H_    0.311454 0.458132 0.873191 0.199797
N2    N     N_R   0.500780 0.500890 0.852020 -0.198704
C20   C     C_R   0.606197 0.517771 0.925293 0.191130
C21   C     C_3   0.686000 0.629342 0.917403 -0.528674
C22   C     C_3   0.684889 0.631197 0.075852 0.408801
H11   H     H_    0.777214 0.608518 0.871159 0.241543
H12   H     H_    0.638686 0.709422 0.870339 0.165342
H13   H     H_    0.639118 0.712923 0.122535 0.089765
F1    F     F_    0.799150 0.607238 0.130525 -0.649083
F2    F     F_    0.083225 0.443771 0.629075 -0.644739
S1    S     S_3+6 0.375510 0.124292 0.879225 0.015510
O9    O     O_2   0.305422 0.225194 0.808226 -0.263596
O10   O     O_2   0.288496 0.021218 0.916075 -0.275145
O11   O     O_3   0.438953 0.179542 0.026005 -0.558553
H14   H     H_    0.368859 0.199238 0.088202 0.366490

loop_
_geom_bond_atom_site_label_1
_geom_bond_atom_site_label_2
_geom_bond_distance
_ccdc_geom_bond_type
O4    Cu2   1.955450 S    
S1    O10   1.503826 D    
C21   C22   1.515283 S    
C3    C13   1.446422 S    
C18   H9    1.079454 S    
C9    C14   1.376943 A    
C8    F2    1.361821 S    
C2    C8    1.447193 S    
N2    C20   1.364202 A    
C1    C10   1.449834 S    
C7    C8    1.341490 D    
C22   H13   1.111801 S    
Cu2   O8    1.958291 S    
C10   C11   1.407204 A    
S1    O9    1.502067 D    
C16   H8    1.111947 S    
Cu1   Cu2   2.690297 S    
C18   C19   1.417149 A    
O7    C4    1.292516 A    
O1    Cu1   1.966250 S    
O11   H14   0.990672 S    
C15   H6    1.109863 S    
C17   C22   1.492807 S    
C21   H11   1.111790 S    
C12   H5    1.083152 S    
C14   C15   1.492705 S    
O3    Cu1   1.958291 S    
O4    C2    1.295576 A    
C6    H2    1.083952 S    
N1    C18   1.369089 A    
C7    H3    1.086315 S    
C11   C12   1.393258 A    
O2    C1    1.293518 A    
Cu1   N2    2.021139 S    
C15   C16   1.525451 S    
C21   H12   1.108773 S    
C4    C6    1.443313 S    
S1    O11   1.679740 S    
C9    C16   1.494169 S    
C16   S1    1.796536 S    
C5    C6    1.337517 D    
Cu1   O5    1.965706 S    
C11   H4    1.081558 S    
C19   N2    1.368757 A    
Cu2   O6    1.966248 S    
O3    C2    1.292066 A    
Cu2   N1    2.021472 S    
C19   H10   1.079010 S    
C5    H1    1.085811 S    
C17   C20   1.410788 A    
O5    C3    1.296193 A    
C9    C10   1.398088 A    
C13   C14   1.393032 A    
Cu1   O7    1.955449 S    
C15   H7    1.111373 S    
C5    C7    1.462648 S    
C12   C13   1.405538 A    
O6    C3    1.292651 A    
O2    Cu2   1.965706 S    
C22   F1    1.382465 S    
C20   C21   1.489409 S    
O8    C4    1.293481 A    
O1    C1    1.296640 A    
C17   N1    1.365330 A    
