data_mof_unit_38739.cif
_audit_creation_date              2012-12-11T16:41:12-0500
_audit_creation_method            fapswitch 2.2
_symmetry_space_group_name_H-M    P1
_symmetry_Int_Tables_number       1
_space_group_crystal_system       triclinic
_cell_length_a                    8.405892
_cell_length_b                    17.366746
_cell_length_c                    18.892648
_cell_angle_alpha                 99.433196
_cell_angle_beta                  91.430331
_cell_angle_gamma                 96.463323
_cell_volume                      2700.76475503

loop_
_atom_site_label
_atom_site_type_symbol
_atom_type_description
_atom_site_fract_x
_atom_site_fract_y
_atom_site_fract_z
_atom_type_partial_charge
Ba1   Ba    Ba6+2 0.849550 0.533890 0.465080 1.737717
Ba2   Ba    Ba6+2 0.340280 0.466170 0.534930 1.724037
C1    C     C_3   0.744268 0.814546 0.276682 -0.189784
C2    C     C_R   0.898760 0.428314 0.097595 -0.093089
C3    C     C_R   0.811594 0.401998 0.941351 0.010351
C4    C     C_3   0.080455 0.677126 0.270927 0.375334
C5    C     C_R   0.948397 0.452190 0.972100 0.037350
C6    C     C_R   0.750327 0.404704 0.872920 -0.071463
C7    C     C_R   0.834452 0.449121 0.827594 -0.037214
C8    C     C_R   0.985864 0.490562 0.852634 0.025679
C9    C     C_R   0.041882 0.493232 0.925704 0.021457
C10   C     C_R   0.776535 0.449264 0.756537 0.007508
C11   C     C_R   0.876583 0.483181 0.709156 -0.200340
C12   C     C_3   0.641237 0.738396 0.290420 0.184004
C13   C     C_R   0.026139 0.525045 0.731899 0.005168
C14   C     C_R   0.081599 0.528785 0.804797 -0.030381
C15   C     C_R   0.152430 0.497164 0.070716 0.025139
C16   C     C_3   0.069587 0.691691 0.193643 -0.320715
C17   C     C_R   0.208434 0.498889 0.143523 0.006996
C18   C     C_R   0.113743 0.458661 0.190706 -0.090444
C19   C     C_R   0.967870 0.414458 0.162295 -0.029771
C20   C     C_R   0.230658 0.568458 0.831499 -0.050956
C21   C     C_R   0.284463 0.572015 0.902105 -0.067465
C22   C     C_R   0.192562 0.534998 0.951144 0.015468
C23   C     C_3   0.466103 0.331740 0.314659 0.312059
C24   C     C_R   0.248248 0.536900 0.023721 0.014202
C25   C     C_R   0.396532 0.578474 0.051522 -0.027451
C26   C     C_R   0.361271 0.539219 0.168327 -0.047052
C27   C     C_R   0.451306 0.579000 0.121445 -0.034284
C28   C     C_3   0.268358 0.720668 0.722313 0.237769
C29   C     C_R   0.419541 0.539017 0.239362 -0.007940
C30   C     C_R   0.321707 0.502556 0.285612 -0.270858
C31   C     C_R   0.168282 0.465223 0.264440 0.005708
C32   C     C_R   0.405384 0.718166 0.470975 -0.292448
C33   C     C_R   0.556403 0.743763 0.504486 0.056551
C34   C     C_3   0.370278 0.292416 0.245333 -0.185264
C35   C     C_R   0.615232 0.823841 0.511409 -0.085072
C36   C     C_R   0.521428 0.877514 0.487376 -0.049063
C37   C     C_R   0.367359 0.850739 0.455946 -0.049112
C38   C     C_R   0.308497 0.770804 0.447963 0.055151
C39   C     C_R   0.584515 0.163980 0.488677 -0.109965
C40   C     C_3   0.178666 0.740738 0.791519 -0.453460
C41   C     C_R   0.637425 0.244395 0.495095 0.027612
C42   C     C_R   0.882670 0.225646 0.557456 -0.007227
C43   C     C_R   0.830344 0.144869 0.550831 -0.012717
C44   C     C_R   0.680347 0.113836 0.516736 0.004479
C45   C     C_3   0.081615 0.309556 0.730426 0.321279
C46   C     C_1   0.627533 0.030195 0.506718 0.082232
C47   C     C_1   0.580257 0.960563 0.497887 0.044388
C48   C     C_R   0.783064 0.275157 0.531858 -0.312576
C49   C     C_3   0.955451 0.294552 0.380822 0.260616
C50   C     C_3   0.922782 0.204497 0.361661 -0.233031
C51   C     C_3   0.765640 0.738639 0.693594 0.185647
C52   C     C_3   0.714712 0.787580 0.763434 -0.208361
C53   C     C_2   0.065106 0.164212 0.378082 0.902103
C54   C     C_2   0.893098 0.790403 0.661702 0.415822
C55   C     C_2   0.822548 0.665195 0.710442 0.440279
C56   C     C_3   0.103029 0.290270 0.805853 -0.268661
C57   C     C_2   0.731559 0.882578 0.336296 0.492087
C58   C     C_2   0.469401 0.741895 0.268897 0.366885
C59   C     C_2   0.706176 0.836129 0.203962 0.858258
C60   C     C_2   0.449830 0.228845 0.201339 0.611001
C61   C     C_2   0.993832 0.218900 0.815742 0.546544
C62   C     C_2   0.560144 0.118093 0.700954 0.898066
C63   C     C_2   0.513058 0.195021 0.820726 0.549336
C64   C     C_2   0.924309 0.335776 0.180796 0.927526
C65   C     C_2   0.721791 0.429144 0.092425 0.885970
C66   C     C_2   0.338815 0.637870 0.470274 0.602640
C67   C     C_3   0.560513 0.264752 0.715034 0.187087
C68   C     C_2   0.329190 0.796905 0.697966 0.904817
C69   C     C_3   0.490368 0.188519 0.740166 -0.205758
C70   C     C_R   0.998394 0.458631 0.046328 -0.018730
H1    H     H_    0.651810 0.734940 0.348648 0.028162
H2    H     H_    0.816944 0.803322 0.803578 0.099898
H3    H     H_    0.615890 0.754450 0.787854 0.113309
H4    H     H_    0.384481 0.367451 0.347676 -0.010688
H5    H     H_    0.568763 0.372180 0.301495 0.074017
H6    H     H_    0.251032 0.266300 0.258586 0.176618
H7    H     H_    0.350530 0.337881 0.212167 -0.011685
H8    H     H_    0.870690 0.804139 0.276178 0.142965
H9    H     H_    0.167953 0.736270 0.183718 0.151231
H10   H     H_    0.158581 0.365488 0.728294 0.085387
H11   H     H_    0.954429 0.317815 0.720454 -0.102178
H12   H     H_    0.106629 0.688779 0.804981 0.139946
H13   H     H_    0.079504 0.341242 0.846112 0.073593
H14   H     H_    0.228340 0.279614 0.815566 0.087468
H15   H     H_    0.689294 0.277382 0.732518 -0.015191
H16   H     H_    0.548660 0.256516 0.655369 0.044009
H17   H     H_    0.359318 0.179765 0.727346 0.098162
H18   H     H_    0.974971 0.636167 0.279622 0.103746
H19   H     H_    0.833147 0.480875 0.654365 0.042822
H20   H     H_    0.639583 0.368610 0.855234 0.090153
H21   H     H_    0.309708 0.598520 0.798788 0.094397
H22   H     H_    0.567848 0.610400 0.137361 0.148702
H23   H     H_    0.265634 0.764741 0.837169 0.135958
H24   H     H_    0.368307 0.500785 0.338783 0.045695
H25   H     H_    0.749145 0.359370 0.969622 0.094330
H26   H     H_    0.401086 0.604141 0.915806 0.082720
H27   H     H_    0.189673 0.648696 0.278901 -0.083858
H28   H     H_    0.475995 0.611383 0.020649 0.097207
H29   H     H_    0.472948 0.140100 0.459094 0.104999
H30   H     H_    0.293454 0.891722 0.438117 0.113150
H31   H     H_    0.907503 0.106297 0.570419 0.125772
H32   H     H_    0.730961 0.844951 0.537976 0.146472
H33   H     H_    0.824855 0.337015 0.535528 0.056798
H34   H     H_    0.096001 0.785104 0.785897 0.127037
H35   H     H_    0.076599 0.636387 0.156005 0.066077
H36   H     H_    0.954139 0.712854 0.182086 0.176261
H37   H     H_    0.373574 0.690342 0.732269 0.025843
H38   H     H_    0.154052 0.085818 0.431392 0.324877
H39   H     H_    0.994223 0.766389 0.636476 0.080937
H40   H     H_    0.850005 0.622481 0.665844 -0.046079
H41   H     H_    0.619543 0.907668 0.343893 0.077696
H42   H     H_    0.411841 0.700458 0.224438 0.000803
H43   H     H_    0.631814 0.915590 0.147507 0.340174
H44   H     H_    0.499748 0.237963 0.150595 0.052757
H45   H     H_    0.840368 0.318606 0.390421 0.014473
H46   H     H_    0.000986 0.163093 0.781158 0.091954
H47   H     H_    0.516403 0.008037 0.645246 0.318415
H48   H     H_    0.476231 0.245134 0.855836 -0.002809
H49   H     H_    0.771264 0.263259 0.226290 0.309322
H50   H     H_    0.501167 0.384993 0.115688 0.299538
H51   H     H_    0.371965 0.591160 0.430845 -0.061000
H52   H     H_    0.351920 0.858746 0.616742 0.308722
H53   H     H_    0.034954 0.311771 0.430129 0.031736
H54   H     H_    0.820904 0.182795 0.391704 0.030297
H55   H     H_    0.887011 0.186749 0.303787 0.119780
H56   H     H_    0.674274 0.843300 0.752806 0.187227
O1    O     O_2   0.878040 0.448040 0.325130 -0.441962
O2    O     O_2   0.214927 0.229706 0.547648 -0.456831
O3    O     O_3   0.128810 0.248719 0.679630 -0.595784
O4    O     O_3   0.126800 0.453980 0.414370 -0.482071
O5    O     O_3   0.569440 0.593820 0.536390 -0.469098
O6    O     O_2   0.359400 0.311980 0.465480 -0.437536
O7    O     O_3   0.523989 0.274611 0.350243 -0.593362
O8    O     O_2   0.458254 0.476020 0.757760 -0.468795
O9    O     O_3   0.474977 0.326417 0.744934 -0.611800
O10   O     O_3   0.651020 0.589120 0.368830 -0.500674
O11   O     O_2   0.742726 0.526311 0.243156 -0.465083
O12   O     O_3   0.628129 0.713564 0.648076 -0.651026
O13   O     O_3   0.025423 0.323205 0.322553 -0.625156
O14   O     O_3   0.699835 0.672659 0.249363 -0.630523
O15   O     O_2   0.830300 0.688050 0.534560 -0.493859
O16   O     O_3   0.068750 0.630380 0.404830 -0.503948
O17   O     O_2   0.970529 0.770927 0.447339 -0.446944
O18   O     O_2   0.191455 0.177726 0.349425 -0.566403
O19   O     O_R   0.050854 0.109436 0.424760 -0.734955
O20   O     O_2   0.880074 0.859598 0.660799 -0.565180
O21   O     O_2   0.820836 0.649060 0.771042 -0.632570
O22   O     O_2   0.847710 0.910739 0.376015 -0.534161
O23   O     O_3   0.084235 0.748861 0.318393 -0.567505
O24   O     O_2   0.397585 0.794815 0.297806 -0.605349
O25   O     O_2   0.721391 0.789516 0.149260 -0.597804
O26   O     O_R   0.653423 0.908763 0.199015 -0.717001
O27   O     O_2   0.458233 0.166304 0.221938 -0.502938
O28   O     O_2   0.898021 0.222839 0.863275 -0.536904
O29   O     O_2   0.705115 0.115950 0.702545 -0.608412
O30   O     O_R   0.457284 0.054114 0.664891 -0.726831
O31   O     O_2   0.569310 0.144174 0.847721 -0.484302
O32   O     O_2   0.012421 0.284862 0.164488 -0.615170
O33   O     O_R   0.784440 0.319047 0.216180 -0.723139
O34   O     O_2   0.311660 0.551990 0.674910 -0.453494
O35   O     O_2   0.666834 0.476783 0.060756 -0.636754
O36   O     O_R   0.617747 0.377663 0.123948 -0.748004
O37   O     O_2   0.249397 0.623640 0.516978 -0.488951
O38   O     O_2   0.388892 0.853328 0.741617 -0.611409
O39   O     O_R   0.311883 0.804075 0.625689 -0.742486
O40   O     O_3   0.062910 0.546080 0.585630 -0.410597
O41   O     O_3   0.538690 0.410940 0.631180 -0.462755
O42   O     O_3   0.164009 0.676568 0.667065 -0.618959
O43   O     O_3   0.620260 0.406250 0.463620 -0.491171
O44   O     O_3   0.120960 0.369680 0.595180 -0.499298
P1    P     P_3+3 0.048060 0.426210 0.336320 1.001076
P2    P     P_3+3 0.655920 0.678120 0.556130 1.025402
P3    P     P_3+3 0.106316 0.732036 0.406667 1.047521
P4    P     P_3+3 0.141640 0.573850 0.663690 1.050427
P5    P     P_3+3 0.085872 0.267918 0.593607 0.986260
P6    P     P_3+3 0.624367 0.582932 0.275630 0.915236
P7    P     P_3+3 0.537281 0.307406 0.443249 0.998026
P8    P     P_3+3 0.565622 0.414912 0.723549 0.973212

loop_
_geom_bond_atom_site_label_1
_geom_bond_atom_site_label_2
_ccdc_geom_bond_type
O44   P5    S    
C12   O14   S    
C19   C64   S    
C25   C27   A    
C51   O12   S    
C58   H42   S    
C17   C18   A    
C63   O31   D    
Ba1   O4    S    
O1    P1    D    
C59   O26   S    
Ba2   O34   S    
C64   O32   D    
O3    P5    S    
C36   C47   S    
O42   P4    S    
C43   C44   A    
C5    C9    A    
C41   P7    S    
C24   C25   A    
Ba2   O6    S    
C13   P4    S    
C32   C38   A    
C15   C24   A    
C26   C27   A    
C33   C35   A    
C22   C24   A    
C61   O28   D    
C32   C33   A    
Ba1   O1    S    
C68   O38   D    
C36   C37   A    
C34   C60   S    
C45   H10   S    
C55   H40   S    
O34   P4    D    
C59   O25   D    
C13   C14   A    
C9    C22   A    
C16   H9    S    
H50   O36   S    
C60   O27   D    
Ba1   Ba2   S    
C58   O24   D    
C62   C69   S    
C67   C69   S    
C16   H35   S    
C28   O42   S    
C43   H31   S    
Ba2   P4    S    
C52   H2    S    
C65   O36   S    
O17   P3    D    
C6    C7    A    
C55   O21   D    
C62   O29   D    
C48   H33   S    
Ba2   O4    S    
C39   C44   A    
C6    H20   S    
C45   H11   S    
O6    P7    D    
C31   P1    S    
C7    C8    A    
C54   H39   S    
C67   H15   S    
C50   C53   S    
C57   H41   S    
Ba2   O43   S    
C66   O37   D    
C35   H32   S    
C49   O13   S    
C11   H19   S    
O13   P1    S    
C39   C41   A    
O43   P7    S    
Ba1   O5    S    
C1    H8    S    
C56   H14   S    
C66   H51   S    
C28   C68   S    
C50   H55   S    
C1    C59   S    
C67   O9    S    
C4    C16   S    
C44   C46   S    
C25   H28   S    
Ba2   O5    S    
O23   P3    S    
C28   H37   S    
C40   H23   S    
C49   H53   S    
C12   H1    S    
C40   H12   S    
C32   C66   S    
C37   C38   A    
C3    C5    A    
C61   H46   S    
C50   H54   S    
C53   O18   D    
C29   P6    S    
Ba1   O40   S    
C63   C69   S    
C52   H56   S    
Ba1   O43   S    
C49   C50   S    
C64   O33   S    
C45   O3    S    
C54   O20   D    
C5    C70   A    
C60   H44   S    
C35   C36   A    
Ba1   O15   S    
O2    P5    D    
C3    C6    A    
H52   O39   S    
C53   O19   S    
C29   C30   A    
C69   H17   S    
C21   C22   A    
H49   O33   S    
C10   C11   A    
C17   C26   A    
C40   H34   S    
C67   H16   S    
C18   C31   A    
C46   C47   T    
C30   H24   S    
C3    H25   S    
C11   C13   A    
H43   O26   S    
C27   H22   S    
C49   H45   S    
C20   H21   S    
C23   H5    S    
Ba1   P1    S    
C4    O23   S    
H38   O19   S    
O10   P6    S    
C56   H13   S    
Ba2   O40   S    
C2    C70   A    
C42   C43   A    
C37   H30   S    
O5    P2    S    
C51   C54   S    
C42   C48   A    
C56   C61   S    
O40   P4    S    
C14   C20   A    
O41   P8    S    
C10   P8    S    
C23   C34   S    
C33   P2    S    
C26   C29   A    
C57   O22   D    
C34   H7    S    
C51   C55   S    
C42   P5    S    
C38   P3    S    
C41   C48   A    
C51   C52   S    
C1    C12   S    
C12   C58   S    
O8    P8    D    
C23   H4    S    
C30   C31   A    
O7    P7    S    
Ba1   P2    S    
O11   P6    D    
C8    C14   A    
C68   O39   S    
C4    H27   S    
C45   C56   S    
C2    C19   A    
O14   P6    S    
O9    P8    S    
H47   O30   S    
O16   P3    S    
C15   C17   A    
C63   H48   S    
C39   H29   S    
O4    P1    S    
C23   O7    S    
C7    C10   A    
C16   H36   S    
C8    C9    A    
Ba1   O10   S    
Ba2   O41   S    
C52   H3    S    
C65   O35   D    
C21   H26   S    
C4    H18   S    
C18   C19   A    
C15   C70   A    
O12   P2    S    
C62   O30   S    
Ba1   O16   S    
C20   C21   A    
C28   C40   S    
C34   H6    S    
O15   P2    D    
C2    C65   S    
Ba2   O44   S    
C1    C57   S    
