data_mof_unit_33337.cif
_audit_creation_date              2012-12-10T19:17:50-0500
_audit_creation_method            fapswitch 2.2
_symmetry_space_group_name_H-M    P1
_symmetry_Int_Tables_number       1
_space_group_crystal_system       triclinic
_cell_length_a                    16.008725
_cell_length_b                    14.791155
_cell_length_c                    10.667491
_cell_angle_alpha                 90.000363
_cell_angle_beta                  90.162495
_cell_angle_gamma                 89.999063
_cell_volume                      2525.91871655

loop_
_atom_site_label
_atom_site_type_symbol
_atom_type_description
_atom_site_fract_x
_atom_site_fract_y
_atom_site_fract_z
_atom_type_partial_charge
C1    C     C_R   0.341027 0.500037 0.500522 0.817688
C2    C     C_R   0.658973 0.500035 0.499478 0.817654
C3    C     C_1   0.822639 0.500710 0.494611 0.051338
C4    C     C_1   0.177361 0.500719 0.505387 0.051328
C5    C     C_R   0.955935 0.584229 0.496233 -0.072329
C6    C     C_R   0.043998 0.417818 0.504479 -0.069055
C7    C     C_R   0.044060 0.584234 0.503631 -0.072315
C8    C     C_R   0.956007 0.417813 0.495660 -0.069039
C9    C     C_R   0.912608 0.500981 0.492114 -0.042506
C10   C     C_R   0.087392 0.500991 0.507886 -0.042507
C11   C     C_R   0.496033 0.499875 0.259208 0.839669
C12   C     C_R   0.503966 0.499875 0.740793 0.839624
C13   C     C_1   0.252232 0.500279 0.502921 -0.094072
C14   C     C_1   0.747768 0.500274 0.497077 -0.094082
C15   C     C_R   0.576431 0.951634 0.509162 0.115598
C16   C     C_R   0.423833 0.048601 0.486638 0.117699
C17   C     C_R   0.423566 0.951635 0.490798 0.115589
C18   C     C_R   0.576161 0.048598 0.513340 0.117724
C19   C     C_R   0.499999 0.903029 0.499980 -0.061107
C20   C     C_R   0.499997 0.097136 0.499989 -0.066799
C21   C     C_3   0.459059 0.574006 0.038348 -0.053919
C22   C     C_3   0.540720 0.424972 0.961629 -0.061823
C23   C     C_3   0.540877 0.574045 0.961656 -0.053899
C24   C     C_3   0.459345 0.424932 0.038373 -0.061809
C25   C     C_3   0.421853 0.499272 0.953334 0.042390
C26   C     C_3   0.578146 0.499347 0.046670 0.042391
C27   C     C_3   0.503596 0.499374 0.877084 -0.203529
C28   C     C_3   0.496404 0.499371 0.122918 -0.203540
C29   C     C_1   0.499999 0.802480 0.499990 0.176432
C30   C     C_1   0.499998 0.197566 0.499995 0.187176
Cu1   Cu    Cu3+1 0.500000 0.589220 0.500000 1.022883
Cu2   Cu    Cu3+1 0.500000 0.410780 0.500000 1.024323
N1    N     N_1   0.500000 0.276710 0.500000 -0.134934
N2    N     N_1   0.500000 0.723290 0.500000 -0.147062
O1    O     O_R   0.380310 0.575320 0.500020 -0.557457
O2    O     O_R   0.619690 0.424680 0.499980 -0.570805
O3    O     O_R   0.619690 0.575320 0.499980 -0.557480
O4    O     O_R   0.380310 0.424680 0.500020 -0.570844
O5    O     O_R   0.499980 0.575330 0.316850 -0.565724
O6    O     O_R   0.500020 0.424670 0.683150 -0.555205
O7    O     O_R   0.500020 0.575330 0.683150 -0.565696
O8    O     O_R   0.499980 0.424670 0.316850 -0.555212
C31   C     C_3   0.656904 0.101627 0.532199 -0.432939
C32   C     C_3   0.693901 0.130768 0.406772 -0.723085
H1    H     H_    0.705631 0.071108 0.346180 0.246550
H2    H     H_    0.650770 0.177599 0.357293 0.266738
H3    H     H_    0.754040 0.166183 0.423176 0.270854
H4    H     H_    0.645748 0.162472 0.590856 0.212180
H5    H     H_    0.703984 0.062778 0.586073 0.214770
C33   C     C_3   0.341974 0.898622 0.485269 -0.392984
C34   C     C_3   0.321909 0.869713 0.351167 -0.775000
H6    H     H_    0.313722 0.929702 0.289849 0.253070
H7    H     H_    0.373127 0.827338 0.313082 0.265524
H8    H     H_    0.263233 0.829709 0.350013 0.245168
H9    H     H_    0.345569 0.837632 0.545797 0.222594
H10   H     H_    0.288838 0.937293 0.524360 0.216300
C35   C     C_3   0.343083 0.101632 0.467846 -0.432937
C36   C     C_3   0.306113 0.130736 0.593308 -0.723113
H11   H     H_    0.294405 0.071058 0.653876 0.246569
H12   H     H_    0.349251 0.177556 0.642789 0.266736
H13   H     H_    0.245967 0.166150 0.576956 0.270768
H14   H     H_    0.354222 0.162493 0.409215 0.212191
H15   H     H_    0.295993 0.062795 0.413976 0.214783
C37   C     C_3   0.658024 0.898619 0.514665 -0.392989
C38   C     C_3   0.678088 0.869669 0.648750 -0.775106
H16   H     H_    0.686319 0.929641 0.710086 0.253060
H17   H     H_    0.626851 0.827326 0.686835 0.265513
H18   H     H_    0.736741 0.829622 0.649872 0.245197
H19   H     H_    0.654428 0.837646 0.454101 0.222578
H20   H     H_    0.711161 0.937302 0.475603 0.216289
C39   C     C_3   0.336404 0.497452 0.887332 -0.374273
C40   C     C_3   0.263440 0.513659 0.976354 -0.666891
H21   H     H_    0.272185 0.477143 0.066272 0.276481
H22   H     H_    0.256571 0.586978 0.995402 0.251473
H23   H     H_    0.204670 0.489882 0.931727 0.247680
H24   H     H_    0.335018 0.550087 0.813043 0.198048
H25   H     H_    0.328671 0.430655 0.841115 0.238362
C41   C     C_3   0.663594 0.497609 0.112683 -0.374319
C42   C     C_3   0.736552 0.513885 0.023675 -0.666821
H26   H     H_    0.727837 0.477374 0.933746 0.276496
H27   H     H_    0.743369 0.587212 0.004648 0.251478
H28   H     H_    0.795336 0.490150 0.068303 0.247657
H29   H     H_    0.664932 0.550243 0.186975 0.198086
H30   H     H_    0.671380 0.430818 0.158900 0.238324
C43   C     C_2   0.409697 0.652758 0.087490 0.884679
O9    O     O_2   0.420239 0.728421 0.044594 -0.549792
O10   O     O_R   0.350280 0.638234 0.181075 -0.778844
H31   H     H_    0.318417 0.695108 0.203476 0.330176
C44   C     C_2   0.582285 0.339727 0.916745 0.892840
O11   O     O_2   0.654307 0.322948 0.946771 -0.586573
O12   O     O_R   0.537149 0.278649 0.843079 -0.740256
H32   H     H_    0.571325 0.223738 0.818608 0.327392
C45   C     C_2   0.590181 0.652837 0.912514 0.884728
O13   O     O_2   0.579554 0.728499 0.955360 -0.549810
O14   O     O_R   0.649644 0.638347 0.818981 -0.778846
H33   H     H_    0.681475 0.695240 0.796596 0.330159
C46   C     C_2   0.417853 0.339645 0.083256 0.892866
O15   O     O_2   0.345847 0.322795 0.053227 -0.586592
O16   O     O_R   0.463041 0.278613 0.156927 -0.740254
H34   H     H_    0.428909 0.223675 0.181412 0.327395
C47   C     C_2   0.091236 0.671155 0.501133 0.902111
O17   O     O_2   0.148052 0.684474 0.575788 -0.583741
O18   O     O_R   0.070621 0.737513 0.412936 -0.741408
H35   H     H_    0.106836 0.793468 0.420817 0.335322
C48   C     C_2   0.908883 0.330915 0.495339 0.900900
O19   O     O_2   0.853700 0.318018 0.417865 -0.592460
O20   O     O_R   0.927596 0.264178 0.583923 -0.735222
H36   H     H_    0.891336 0.208406 0.574121 0.335969
C49   C     C_2   0.908754 0.671151 0.498592 0.902114
O21   O     O_2   0.851941 0.684407 0.423912 -0.583760
O22   O     O_R   0.929362 0.737581 0.586688 -0.741413
H37   H     H_    0.893143 0.793528 0.578719 0.335331
C50   C     C_2   0.091128 0.330922 0.504946 0.900895
O23   O     O_2   0.146309 0.318094 0.582447 -0.592431
O24   O     O_R   0.072426 0.264112 0.416464 -0.735239
H38   H     H_    0.108691 0.208351 0.426358 0.335947

loop_
_geom_bond_atom_site_label_1
_geom_bond_atom_site_label_2
_ccdc_geom_bond_type
C8    C9    A    
C7    C10   A    
O10   H31   S    
C45   O13   D    
C15   C18   A    
O14   H33   S    
C8    C48   S    
C46   O15   D    
C15   C37   S    
C35   H14   S    
C20   C30   S    
C43   O9    D    
C15   C19   A    
C48   O20   S    
C26   C41   S    
Cu2   O2    S    
C49   O22   S    
C39   H24   S    
C36   H12   S    
O24   H38   S    
C11   O8    A    
C23   C26   S    
C4    C13   T    
C41   H29   S    
Cu1   Cu2   S    
C16   C17   A    
C38   H17   S    
O20   H36   S    
C25   C39   S    
Cu2   O4    S    
C44   O12   S    
C31   H4    S    
C18   C20   A    
C30   N1    T    
C32   H3    S    
C36   H13   S    
C47   O18   S    
C40   H23   S    
C46   O16   S    
C32   H2    S    
C35   H15   S    
C23   C27   S    
C43   O10   S    
C21   C43   S    
C12   C27   S    
C24   C46   S    
C47   O17   D    
C24   C25   S    
C40   H22   S    
O12   H32   S    
C42   H27   S    
C41   C42   S    
C31   H5    S    
C6    C8    A    
C36   H11   S    
C29   N2    T    
C33   H10   S    
C23   C45   S    
Cu1   O3    S    
C34   H7    S    
C12   O6    A    
C31   C32   S    
C6    C50   S    
C5    C9    A    
C12   O7    A    
C3    C9    S    
O16   H34   S    
C16   C20   A    
C38   H18   S    
C33   C34   S    
Cu1   N2    S    
C37   H19   S    
C11   O5    A    
C3    C14   T    
C1    O4    A    
C21   C28   S    
C37   H20   S    
C22   C27   S    
C21   C23   S    
C7    C47   S    
C22   C24   S    
C1    C13   S    
C4    C10   S    
C19   C29   S    
C39   H25   S    
C32   H1    S    
C1    O1    A    
C5    C7    A    
C50   O23   D    
C2    O2    A    
C21   C25   S    
Cu1   O7    S    
O22   H37   S    
C24   C28   S    
C40   H21   S    
C17   C33   S    
C6    C10   A    
C42   H28   S    
C25   C27   S    
C48   O19   D    
C26   C28   S    
C33   H9    S    
C34   H8    S    
Cu2   N1    S    
C34   H6    S    
C18   C31   S    
C37   C38   S    
C2    O3    A    
C35   C36   S    
C5    C49   S    
C11   C28   S    
C17   C19   A    
C22   C44   S    
Cu1   O5    S    
Cu1   O1    S    
C16   C35   S    
Cu2   O6    S    
C2    C14   S    
C42   H26   S    
C41   H30   S    
C39   C40   S    
C45   O14   S    
C38   H16   S    
C22   C26   S    
O18   H35   S    
Cu2   O8    S    
C44   O11   D    
C49   O21   D    
C50   O24   S    
