data_mof_unit_62077.cif
_audit_creation_date              2012-12-10T18:21:18-0500
_audit_creation_method            fapswitch 2.2
_symmetry_space_group_name_H-M    P1
_symmetry_Int_Tables_number       1
_space_group_crystal_system       triclinic
_cell_length_a                    9.409648
_cell_length_b                    10.619723
_cell_length_c                    17.200809
_cell_angle_alpha                 89.590575
_cell_angle_beta                  85.11323
_cell_angle_gamma                 89.647517
_cell_volume                      1712.52172783

loop_
_atom_site_label
_atom_site_type_symbol
_atom_type_description
_atom_site_fract_x
_atom_site_fract_y
_atom_site_fract_z
_atom_type_partial_charge
C1    C     C_R   0.499578 0.740535 0.499848 0.835167
C2    C     C_R   0.500421 0.259465 0.500152 0.835168
C3    C     C_3   0.364553 0.960216 0.498926 -0.182862
C4    C     C_3   0.635447 0.039784 0.501074 -0.182862
C5    C     C_3   0.445149 0.042837 0.435720 0.193594
C6    C     C_3   0.554851 0.957163 0.564280 0.193594
C7    C     C_3   0.501294 0.122653 0.500022 -0.067251
C8    C     C_3   0.498706 0.877347 0.499978 -0.067251
C9    C     C_3   0.421177 0.042016 0.563641 -0.206652
C10   C     C_3   0.578823 0.957984 0.436359 -0.206652
C11   C     C_3   0.948301 0.388127 0.513349 -0.042090
C12   C     C_3   0.051699 0.611873 0.486651 -0.042090
C13   C     C_3   0.040510 0.462084 0.566593 -0.031026
C14   C     C_3   0.959490 0.537915 0.433407 -0.031026
C15   C     C_3   0.059355 0.426082 0.446695 -0.006912
C16   C     C_3   0.940645 0.573918 0.553305 -0.006911
C17   C     C_R   0.480143 0.501103 0.650020 0.828185
C18   C     C_R   0.519857 0.498897 0.349980 0.828184
C19   C     C_R   0.466943 0.494653 0.734955 -0.075811
C20   C     C_R   0.533057 0.505347 0.265045 -0.075810
C21   C     C_R   0.560868 0.415286 0.771576 -0.200190
C22   C     C_R   0.439132 0.584714 0.228424 -0.200190
C23   C     C_R   0.551466 0.405056 0.852316 -0.096473
C24   C     C_R   0.448534 0.594944 0.147684 -0.096473
C25   C     C_R   0.449528 0.475691 0.897199 0.104006
C26   C     C_R   0.550472 0.524309 0.102801 0.104006
C27   C     C_R   0.353853 0.553542 0.861313 -0.122177
C28   C     C_R   0.646147 0.446458 0.138687 -0.122177
C29   C     C_R   0.361884 0.564012 0.780199 0.153267
C30   C     C_R   0.638116 0.435988 0.219801 0.153267
C31   C     C_2   0.447326 0.472832 0.981988 0.064233
C32   C     C_2   0.552674 0.527168 0.018012 0.064233
Cu1   Cu    Cu3+1 0.356850 0.500010 0.499980 0.971598
Cu2   Cu    Cu3+1 0.643150 0.499990 0.500020 0.971598
H1    H     H_    0.641080 0.360511 0.737560 0.162234
H2    H     H_    0.358920 0.639488 0.262440 0.162234
H3    H     H_    0.900436 0.293819 0.524724 0.131210
H4    H     H_    0.099564 0.706181 0.475276 0.131210
H5    H     H_    0.114265 0.363873 0.401884 0.162302
H6    H     H_    0.885734 0.636127 0.598116 0.162302
H7    H     H_    0.275825 0.608786 0.896513 0.177227
H8    H     H_    0.724175 0.391214 0.103487 0.177227
H9    H     H_    0.374703 0.655832 0.119993 0.165253
H10   H     H_    0.625297 0.344168 0.880007 0.165253
H11   H     H_    0.253723 0.925443 0.497789 0.164192
H12   H     H_    0.746277 0.074557 0.502211 0.164192
H13   H     H_    0.357334 0.079185 0.615822 0.169297
H14   H     H_    0.642666 0.920815 0.384178 0.169297
H15   H     H_    0.079275 0.429957 0.622633 0.145736
H16   H     H_    0.920725 0.570043 0.377367 0.145736
N1    N     N_3   0.141720 0.500030 0.499940 -0.168025
N2    N     N_3   0.858280 0.499970 0.500060 -0.168025
O1    O     O_R   0.379130 0.683150 0.499960 -0.583304
O2    O     O_R   0.620870 0.316850 0.500040 -0.583305
O3    O     O_R   0.620910 0.683140 0.500000 -0.575107
O4    O     O_R   0.379090 0.316860 0.500000 -0.575107
O5    O     O_R   0.365090 0.500030 0.613580 -0.568685
O6    O     O_R   0.634910 0.499970 0.386420 -0.568686
O7    O     O_R   0.606870 0.500020 0.613610 -0.578097
O8    O     O_R   0.393130 0.499980 0.386390 -0.578097
I1    I     I_    0.779682 0.305912 0.268177 -0.310449
I2    I     I_    0.220318 0.694087 0.731823 -0.310449
I3    I     I_    0.726714 0.623964 0.957326 -0.282499
I4    I     I_    0.273286 0.376036 0.042673 -0.282500
I5    I     I_    0.358440 0.113646 0.333090 -0.329890
I6    I     I_    0.641559 0.886353 0.666910 -0.329890

loop_
_geom_bond_atom_site_label_1
_geom_bond_atom_site_label_2
_ccdc_geom_bond_type
C17   O5    A    
C25   C31   S    
Cu1   O5    S    
C26   C32   S    
C3    C9    S    
C15   N1    S    
Cu1   N1    S    
C1    C8    S    
C22   H2    S    
C27   H7    S    
C26   C28   A    
C2    C7    S    
C14   C15   S    
C6    I6    S    
C3    C5    S    
C7    C9    S    
C12   N1    S    
Cu1   O4    S    
C28   C30   A    
Cu1   Cu2   S    
C1    O3    A    
Cu2   O3    S    
C2    O4    A    
Cu2   N2    S    
C20   C30   A    
C10   H14   S    
C11   C13   S    
Cu2   O2    S    
C15   H5    S    
C14   H16   S    
C16   H6    S    
C4    C7    S    
C21   H1    S    
C22   C24   A    
C8    C10   S    
C17   C19   S    
C17   O7    A    
C9    H13   S    
Cu1   O8    S    
C18   C20   S    
C23   C25   A    
C21   C23   A    
Cu1   O1    S    
Cu2   O7    S    
C4    H12   S    
Cu2   O6    S    
C13   H15   S    
C3    C8    S    
C5    I5    S    
C27   C29   A    
C20   C22   A    
C4    C10   S    
C19   C29   A    
C12   H4    S    
C16   N2    S    
C5    C10   S    
C6    C9    S    
C13   N1    S    
C5    C7    S    
C4    C6    S    
C2    O2    A    
C13   C16   S    
C18   O8    A    
C11   H3    S    
C24   H9    S    
C1    O1    A    
C29   I2    S    
C6    C8    S    
C11   N2    S    
C28   H8    S    
C19   C21   A    
C30   I1    S    
C11   C15   S    
C31   I4    S    
C3    H11   S    
C31   C32   D    
C14   N2    S    
C23   H10   S    
C12   C16   S    
C32   I3    S    
C12   C14   S    
C18   O6    A    
C24   C26   A    
C25   C27   A    
