data_mof_unit_66804.cif
_audit_creation_date              2013-03-05T15:41:08-0500
_audit_creation_method            fapswitch 2.2
_symmetry_space_group_name_H-M    P1
_symmetry_Int_Tables_number       1
_space_group_crystal_system       triclinic
_cell_length_a                    8.504877
_cell_length_b                    14.515718
_cell_length_c                    15.218224
_cell_angle_alpha                 94.124563
_cell_angle_beta                  100.266543
_cell_angle_gamma                 90.948529
_cell_volume                      1843.06241339

loop_
_atom_site_label
_atom_site_type_symbol
_atom_site_description
_atom_site_fract_x
_atom_site_fract_y
_atom_site_fract_z
_atom_type_partial_charge
P1    P     P_3+3 0.947560 0.714050 0.560480 0.618724
O1    O     O_2   0.113690 0.728200 0.532750 -0.323145
O2    O     O_3   0.871900 0.612110 0.540440 -0.334982
O3    O     O_3   0.325660 0.668890 0.372600 -0.262377
O4    O     O_2   0.201268 0.826727 0.421426 -0.318856
O5    O     O_3   0.012992 0.731101 0.676332 -0.460398
O6    O     O_3   0.293986 0.821977 0.268908 -0.484384
H1    H     H_    0.484589 0.744161 0.238394 0.053339
C1    C     C_3   0.369409 0.813936 0.122699 0.695593
P2    P     P_3+3 0.325150 0.423860 0.297970 0.570856
P3    P     P_3+3 0.847735 0.599507 0.212825 0.605232
O7    O     O_2   0.147570 0.451710 0.282630 -0.312529
O8    O     O_3   0.905540 0.621350 0.329600 -0.348168
O9    O     O_2   0.951115 0.522146 0.183691 -0.249971
O10   O     O_3   0.320177 0.303589 0.275986 -0.576548
O11   O     O_3   0.911263 0.690051 0.158579 -0.433020
C2    C     C_3   0.868332 0.773599 0.198206 0.169935
H2    H     H_    0.930170 0.784348 0.269243 0.080522
H3    H     H_    0.738078 0.774745 0.196207 0.038375
C3    C     C_3   0.922561 0.850558 0.146103 0.556521
H4    H     H_    0.051742 0.858919 0.168322 0.099110
C4    C     C_3   0.708527 0.327131 0.284755 0.167314
H5    H     H_    0.603553 0.322253 0.317359 0.122278
H6    H     H_    0.757402 0.399299 0.295202 0.085513
C5    C     C_3   0.653453 0.301978 0.183593 0.428923
H7    H     H_    0.546818 0.341344 0.160427 -0.029076
Ba1   Ba    Ba6+2 0.142880 0.544780 0.454020 1.782736
C6    C     C_3   0.055179 0.646695 0.712272 0.379808
H8    H     H_    0.156328 0.617727 0.683996 0.071799
H9    H     H_    0.953253 0.595862 0.698832 0.133726
C7    C     C_3   0.102053 0.664142 0.813238 -0.645330
H10   H     H_    0.199501 0.717618 0.830119 0.273528
H11   H     H_    0.141853 0.599844 0.844102 0.178962
H12   H     H_    0.998014 0.688812 0.842122 0.301014
C8    C     C_3   0.223915 0.256336 0.324766 0.088770
H13   H     H_    0.141092 0.301520 0.355128 0.087285
H14   H     H_    0.303566 0.224510 0.379672 0.141595
C9    C     C_3   0.127473 0.180215 0.260900 0.502580
H15   H     H_    0.020182 0.211150 0.223173 0.146850
P4    P     P_3+3 0.862730 0.285940 0.439440 0.531166
O12   O     O_2   0.696600 0.271740 0.467230 -0.332751
O13   O     O_3   0.938380 0.387880 0.459490 -0.402566
O14   O     O_3   0.484630 0.331100 0.627330 -0.351146
O15   O     O_3   0.824952 0.267209 0.321966 -0.521415
P5    P     P_3+3 0.962205 0.379266 0.785961 0.581194
O16   O     O_3   0.389110 0.548970 0.605210 -0.323105
O17   O     O_3   0.904740 0.378630 0.670330 -0.405862
O18   O     O_2   0.865763 0.455672 0.826671 -0.295566
O19   O     O_3   0.893673 0.276170 0.820304 -0.424122
Ba2   Ba    Ba6+2 0.667290 0.455210 0.545900 1.729767
P6    P     P_3+3 0.342078 0.789577 0.379014 0.660941
C10   C     C_3   0.426156 0.811081 0.225160 0.030227
H16   H     H_    0.514446 0.868334 0.249610 0.141147
O20   O     O_3   0.421180 0.451020 0.394720 -0.319918
C11   C     C_3   0.523958 0.759288 0.742579 1.033597
C12   C     C_3   0.535294 0.834673 0.819759 -0.126286
H17   H     H_    0.578985 0.803447 0.883821 0.210365
H18   H     H_    0.415229 0.862190 0.823532 0.144155
P7    P     P_3+3 0.480658 0.569682 0.718552 0.553974
O21   O     O_2   0.662730 0.548230 0.717350 -0.310542
O22   O     O_3   0.451055 0.680742 0.768652 -0.681608
C13   C     C_3   0.948416 0.202330 0.770152 0.191414
H19   H     H_    0.879833 0.196825 0.700429 0.121020
H20   H     H_    0.077844 0.210684 0.768798 0.052502
C14   C     C_3   0.923302 0.113654 0.813815 0.228358
H21   H     H_    0.794637 0.101461 0.812728 0.163323
H22   H     H_    0.984757 0.119655 0.884771 0.225849
P8    P     P_3+3 0.456169 0.209873 0.621338 0.510619
C15   C     C_3   0.461611 0.183868 0.790881 0.578154
H23   H     H_    0.341933 0.211866 0.767634 -0.064350
O23   O     O_2   0.559769 0.170286 0.555006 -0.325097
O24   O     O_3   0.551954 0.168953 0.722025 -0.573146
C16   C     C_3   0.437813 0.090071 0.828255 0.064483
H24   H     H_    0.555201 0.065402 0.859320 0.184197
H25   H     H_    0.381111 0.039437 0.773258 0.124765
C17   C     C_R   0.009848 0.941223 0.546721 0.065970
C18   C     C_R   0.810490 0.807123 0.513891 0.135687
C19   C     C_R   0.648735 0.779410 0.485058 0.198923
C20   C     C_R   0.538083 0.838074 0.441422 -0.003228
C21   C     C_R   0.578196 0.931481 0.440949 0.392068
C22   C     C_R   0.739274 0.964535 0.470005 -0.193399
C23   C     C_R   0.855644 0.903230 0.510193 -0.148761
C24   C     C_R   0.936440 0.097202 0.499535 -0.136860
C25   C     C_R   0.049376 0.036693 0.544303 0.069118
C26   C     C_R   0.984147 0.194097 0.498303 0.284525
C27   C     C_R   0.136968 0.224766 0.541317 -0.493105
C28   C     C_R   0.248494 0.164589 0.580730 0.209583
C29   C     C_R   0.204954 0.071106 0.582839 -0.136907
C30   C     C_R   0.786690 0.056057 0.455280 0.600159
H26   H     H_    0.293827 0.024672 0.612891 0.169975
H27   H     H_    0.173470 0.296380 0.539913 0.149368
H28   H     H_    0.099271 0.897627 0.580486 0.189338
C31   C     C_R   0.259389 0.445217 0.761709 -0.542052
C32   C     C_R   0.178670 0.404804 0.821593 0.063170
C33   C     C_R   0.254340 0.400857 0.911109 0.432518
C34   C     C_R   0.382069 0.464232 0.948910 0.028427
C35   C     C_R   0.453912 0.511231 0.886709 -0.201541
C36   C     C_R   0.401016 0.495413 0.793502 0.339314
C37   C     C_R   0.591548 0.525694 0.082071 -0.145310
C38   C     C_R   0.641820 0.555546 0.172428 0.109618
C39   C     C_R   0.405221 0.485392 0.209564 0.065051
C40   C     C_R   0.340523 0.469614 0.116252 0.229089
C41   C     C_R   0.436976 0.486131 0.050029 -0.029542
C42   C     C_R   0.546470 0.537812 0.234740 0.040918
H29   H     H_    0.676204 0.533258 0.037769 0.212671
H30   H     H_    0.547679 0.563091 0.909142 0.179514
H31   H     H_    0.204162 0.445562 0.691912 0.155147
N1    N     N_R   0.612165 0.204387 0.161721 0.308601
O25   O     O_R   0.485436 0.181433 0.102337 -0.178275
O26   O     O_R   0.721657 0.143725 0.178271 -0.183754
Cl1   Cl    Cl    0.797455 0.334246 0.120234 -0.457325
N2    N     N_R   0.252636 0.738655 0.087979 0.238619
O27   O     O_R   0.193856 0.729615 0.002916 -0.323327
O28   O     O_R   0.225993 0.672591 0.137391 -0.365675
Cl2   Cl    Cl    0.064832 0.089544 0.319856 -0.537772
N3    N     N_R   0.221170 0.139690 0.197557 0.298243
O29   O     O_R   0.168501 0.140014 0.111896 -0.180193
O30   O     O_R   0.349787 0.095616 0.226421 -0.208375
N4    N     N_R   0.504696 0.805468 0.075367 0.186268
O31   O     O_R   0.551267 0.724040 0.051434 -0.444947
O32   O     O_R   0.557717 0.877054 0.041465 -0.278134
Cl3   Cl    Cl    0.719782 0.740990 0.724717 -0.546503
Cl4   Cl    Cl    0.400770 0.801520 0.647901 -0.593588
N5    N     N_R   0.644515 0.910599 0.809891 0.261842
O33   O     O_R   0.763938 0.934373 0.874008 -0.239893
O34   O     O_R   0.629158 0.951183 0.735392 -0.367432
Cl5   Cl    Cl    0.278645 0.922687 0.100055 -0.354193
N6    N     N_R   0.852253 0.939194 0.163496 0.263887
O35   O     O_R   0.762970 0.951401 0.224108 -0.360623
O36   O     O_R   0.888961 0.008976 0.121307 -0.190104
Cl6   Cl    Cl    0.997734 0.017655 0.756066 -0.559623
N7    N     N_R   0.550825 0.250236 0.859516 0.252022
O37   O     O_R   0.586262 0.331624 0.837247 -0.343971
O38   O     O_R   0.611402 0.226685 0.939143 -0.266205
Cl7   Cl    Cl    0.317967 0.092918 0.912513 -0.372525
Cl8   Cl    Cl    0.571688 0.678500 0.521390 -0.408949
Cl9   Cl    Cl    0.415738 0.006479 0.421073 -0.484525
Cl10  Cl    Cl    0.681306 0.101306 0.358645 -0.414251
Cl11  Cl    Cl    0.221281 0.298897 0.960961 -0.458283
N8    N     N_R   0.175787 0.443036 0.090241 0.287797
O39   O     O_R   0.080905 0.490307 0.034682 -0.299085
O40   O     O_R   0.121945 0.368453 0.118381 -0.247513
Cl12  Cl    Cl    0.609913 0.578071 0.345842 -0.558998
Cl13  Cl    Cl    0.885059 0.819347 0.028038 -0.368520

loop_
_geom_bond_atom_site_label_1
_geom_bond_atom_site_label_2
_geom_bond_distance
_ccdc_geom_bond_type
P2    Ba1   3.453456 S    
C37   C41   1.414925 A    
C28   C29   1.404775 A    
C39   C40   1.429069 A    
O16   P7    1.763715 S    
P1    C18   1.892694 S    
C16   H24   1.102911 S    
C3    Cl13  1.791388 S    
C33   C34   1.423129 A    
C11   C12   1.535423 S    
N6    O35   1.299782 A    
C17   C25   1.425200 A    
N2    O28   1.301413 A    
C35   C36   1.410450 A    
Ba1   O20   2.993379 S    
C7    H10   1.108857 S    
C18   C19   1.409975 A    
N1    O25   1.298848 A    
Ba2   O20   2.817302 S    
C12   N5    1.462778 S    
C6    H8    1.104499 S    
C8    H14   1.111135 S    
N8    O40   1.298216 A    
O6    C10   1.410443 S    
C3    N6    1.454611 S    
C27   H27   1.082744 S    
C15   N7    1.464011 S    
C9    H15   1.108081 S    
P3    O9    1.526656 D    
C21   Cl9   1.770278 S    
C38   C42   1.387596 A    
C2    C3    1.526460 S    
C42   Cl12  1.735972 S    
C12   H17   1.110854 S    
P1    O1    1.559486 D    
C13   H20   1.109438 S    
O5    C6    1.403567 S    
C16   Cl7   1.773270 S    
N1    O26   1.296701 A    
O14   P8    1.765901 S    
C14   H22   1.109314 S    
C4    C5    1.542474 S    
C7    H11   1.105953 S    
C15   C16   1.536739 S    
O1    Ba1   2.873143 S    
H1    C10   1.113367 S    
Ba1   Ba2   4.702088 S    
C22   C30   1.426567 A    
C1    N2    1.467515 S    
P4    O13   1.590665 S    
C11   Cl3   1.756088 S    
P7    O21   1.587575 D    
C16   H25   1.108678 S    
C15   H23   1.110114 S    
C1    C10   1.551666 S    
C24   C30   1.429534 A    
P5    C32   1.847540 S    
O10   C8    1.401110 S    
N2    O27   1.298304 A    
C14   Cl6   1.779403 S    
O2    Ba2   2.858280 S    
C22   C23   1.427287 A    
O17   Ba2   2.813137 S    
P5    O17   1.739666 S    
C37   H29   1.079836 S    
C11   Cl4   1.777552 S    
P7    O22   1.774445 S    
O3    P6    1.749428 S    
P1    O5    1.749929 S    
C8    C9    1.539386 S    
N8    O39   1.302104 A    
N3    O30   1.300430 A    
C17   C23   1.416059 A    
C19   C20   1.391719 A    
N7    O37   1.297541 A    
O7    Ba1   2.856869 S    
C5    H7    1.097942 S    
C26   C27   1.397006 A    
P3    C38   1.837095 S    
P1    O2    1.590688 S    
C8    H13   1.107955 S    
P4    C26   1.879828 S    
C15   O24   1.412490 S    
C13   H19   1.112699 S    
C9    N3    1.455346 S    
P3    O11   1.729856 S    
C24   C25   1.427914 A    
P5    O19   1.744895 S    
P8    O24   1.751100 S    
C34   C35   1.421288 A    
C2    H2    1.113548 S    
C7    H12   1.109450 S    
C32   C33   1.404702 A    
C31   C32   1.390164 A    
C40   N8    1.425109 S    
N4    O32   1.301477 A    
P2    O7    1.551463 D    
O13   Ba2   2.995101 S    
C35   H30   1.079493 S    
Ba1   O16   2.818014 S    
P4    O12   1.559990 D    
C24   C26   1.459738 A    
C17   H28   1.079958 S    
C30   Cl10  1.756707 S    
C39   C42   1.390203 A    
C6    C7    1.518646 S    
C1    N4    1.464658 S    
C4    H6    1.110645 S    
O12   Ba2   2.873640 S    
P7    C36   1.830331 S    
O3    Ba1   2.848223 S    
C10   H16   1.108254 S    
N5    O34   1.302056 A    
P5    O18   1.548904 D    
C1    Cl5   1.797336 S    
C4    O15   1.399009 S    
O19   C13   1.404862 S    
C13   C14   1.519383 S    
C27   C28   1.386527 A    
P2    C39   1.884381 S    
O4    P6    1.545448 D    
C25   C29   1.415488 A    
C29   H26   1.082951 S    
C21   C22   1.426286 A    
N6    O36   1.300094 A    
N4    O31   1.300610 A    
O14   Ba2   2.847684 S    
O16   Ba2   2.992571 S    
C33   Cl11  1.751824 S    
C37   C38   1.399991 A    
P2    O10   1.752162 S    
Ba2   O21   2.857171 S    
C6    H9    1.109818 S    
O6    P6    1.752590 S    
C31   H31   1.082533 S    
C9    Cl2   1.771474 S    
P3    O8    1.761451 S    
Ba1   O13   2.857747 S    
O11   C2    1.398476 S    
C18   C23   1.448473 A    
P8    O23   1.541406 D    
P4    Ba2   3.456508 S    
C11   O22   1.403984 S    
O2    Ba1   2.994386 S    
C2    H3    1.103214 S    
C12   H18   1.112063 S    
N3    O29   1.301101 A    
C40   C41   1.438400 A    
P2    O20   1.570833 S    
P6    C20   1.864692 S    
C5    Cl1   1.765204 S    
C20   C21   1.393478 A    
P4    O15   1.759442 S    
C3    H4    1.092424 S    
N7    O38   1.301382 A    
C14   H21   1.102619 S    
C34   C41   1.534854 S    
P1    Ba1   3.455920 S    
P8    C28   1.856787 S    
C4    H5    1.099607 S    
O8    Ba1   2.812417 S    
C19   Cl8   1.759137 S    
C31   C36   1.388651 A    
C5    N1    1.454267 S    
N5    O33   1.299792 A    
