data_mof_unit_23988.cif
_audit_creation_date              2012-12-11T18:11:08-0500
_audit_creation_method            fapswitch 2.2
_symmetry_space_group_name_H-M    P1
_symmetry_Int_Tables_number       1
_space_group_crystal_system       triclinic
_cell_length_a                    8.352904
_cell_length_b                    12.932556
_cell_length_c                    18.79867
_cell_angle_alpha                 101.010828
_cell_angle_beta                  91.412436
_cell_angle_gamma                 97.529133
_cell_volume                      1973.56963551

loop_
_atom_site_label
_atom_site_type_symbol
_atom_type_description
_atom_site_fract_x
_atom_site_fract_y
_atom_site_fract_z
_atom_type_partial_charge
Ba1   Ba    Ba6+2 0.852780 0.548340 0.465070 1.658090
Ba2   Ba    Ba6+2 0.337060 0.451750 0.534940 1.652415
C1    C     C_3   0.724003 0.902313 0.263186 -0.334321
C2    C     C_3   0.640039 0.803457 0.285819 0.311692
C3    C     C_3   0.456787 0.197471 0.295435 0.345991
C4    C     C_3   0.495452 0.131636 0.220733 -0.171512
C5    C     C_3   0.091333 0.239620 0.735755 0.328760
C6    C     C_3   0.125813 0.210567 0.808841 -0.355764
C7    C     C_3   0.590387 0.203120 0.723397 0.382951
C8    C     C_3   0.632448 0.141709 0.781875 -0.316206
C9    C     C_R   0.996363 0.426310 0.043933 0.000162
C10   C     C_R   0.895590 0.392229 0.096916 -0.118427
C11   C     C_R   0.778529 0.385593 0.942714 -0.047730
C12   C     C_3   0.064856 0.734607 0.268249 0.333775
C13   C     C_R   0.938750 0.427765 0.971037 -0.032196
C14   C     C_R   0.721308 0.409540 0.878553 -0.104307
C15   C     C_R   0.824553 0.452361 0.830899 -0.053415
C16   C     C_R   0.986501 0.490832 0.854321 -0.018918
C17   C     C_R   0.043175 0.479684 0.925202 0.024784
C18   C     C_R   0.770075 0.453323 0.759416 -0.002698
C19   C     C_R   0.877791 0.489145 0.710892 -0.291381
C20   C     C_R   0.033052 0.541385 0.733890 0.051362
C21   C     C_R   0.087475 0.546570 0.809115 -0.036414
C22   C     C_R   0.159941 0.465907 0.066654 0.046195
C23   C     C_3   0.045736 0.741564 0.188444 -0.360596
C24   C     C_R   0.216422 0.470233 0.140095 0.006105
C25   C     C_R   0.111656 0.431635 0.190501 -0.046078
C26   C     C_R   0.955118 0.386344 0.165497 -0.026122
C27   C     C_R   0.232886 0.606919 0.843711 0.112233
C28   C     C_R   0.294280 0.585963 0.908790 -0.060096
C29   C     C_R   0.204316 0.520684 0.949490 -0.003180
C30   C     C_R   0.265801 0.507128 0.018043 0.042742
C31   C     C_R   0.430705 0.536607 0.040398 -0.046623
C32   C     C_R   0.377139 0.515124 0.163484 -0.034031
C33   C     C_R   0.484608 0.541733 0.111662 -0.074204
C34   C     C_3   0.273603 0.807942 0.672305 0.291071
C35   C     C_R   0.424648 0.533406 0.238098 0.020437
C36   C     C_R   0.315055 0.503811 0.287780 -0.280952
C37   C     C_R   0.163576 0.446217 0.265033 0.020280
C38   C     C_R   0.759054 0.186907 0.535944 -0.297535
C39   C     C_R   0.446031 0.812144 0.468671 -0.246262
C40   C     C_R   0.407176 0.986377 0.451664 -0.098610
C41   C     C_R   0.348867 0.878053 0.443249 0.012248
C42   C     C_R   0.585212 0.853380 0.513615 0.042642
C43   C     C_R   0.647765 0.965831 0.524858 0.027314
C44   C     C_R   0.556351 0.031863 0.490526 -0.043493
C45   C     C_3   0.288992 0.911847 0.729739 -0.416043
C46   C     C_R   0.612824 0.143088 0.498033 0.042314
C47   C     C_R   0.854248 0.124413 0.566047 -0.002132
C48   C     C_R   0.795016 0.017834 0.567141 0.023291
C49   C     C_3   0.945662 0.227109 0.389968 0.318750
C50   C     C_3   0.953231 0.108386 0.383125 -0.356348
C51   C     C_3   0.731129 0.697885 0.679603 0.287024
C52   C     C_3   0.775921 0.740834 0.759904 -0.412624
H1    H     H_    0.678942 0.807989 0.343537 0.067954
H2    H     H_    0.414773 0.932935 0.753230 0.127537
H3    H     H_    0.251139 0.979341 0.708028 0.154860
H4    H     H_    0.208321 0.904653 0.775094 0.114084
H5    H     H_    0.823245 0.244665 0.401225 0.028858
H6    H     H_    0.028331 0.268422 0.436803 0.059170
H7    H     H_    0.953150 0.069846 0.325504 0.175874
H8    H     H_    0.849745 0.068893 0.408024 0.069814
H9    H     H_    0.066795 0.095347 0.409650 0.119828
H10   H     H_    0.839355 0.673660 0.651892 0.058979
H11   H     H_    0.635605 0.628095 0.674019 0.064097
H12   H     H_    0.686921 0.973922 0.297762 0.132822
H13   H     H_    0.882459 0.803601 0.766127 0.131587
H14   H     H_    0.804901 0.676897 0.787572 0.063977
H15   H     H_    0.673448 0.775901 0.786973 0.115426
H16   H     H_    0.692512 0.901693 0.205282 0.138749
H17   H     H_    0.463380 0.045013 0.219932 0.085697
H18   H     H_    0.418104 0.150009 0.176926 0.002425
H19   H     H_    0.856055 0.905285 0.270712 0.139684
H20   H     H_    0.165463 0.754918 0.165147 0.087360
H21   H     H_    0.155322 0.320577 0.735595 0.088305
H22   H     H_    0.959460 0.239738 0.729443 -0.045659
H23   H     H_    0.257814 0.222333 0.822499 0.173768
H24   H     H_    0.066803 0.261399 0.851864 0.074953
H25   H     H_    0.076948 0.125998 0.807426 0.103894
H26   H     H_    0.705579 0.236064 0.703007 -0.141607
H27   H     H_    0.717225 0.193853 0.824000 0.071849
H28   H     H_    0.693141 0.072365 0.758374 0.098329
H29   H     H_    0.948626 0.701048 0.286227 0.131855
H30   H     H_    0.521445 0.113802 0.808043 0.121403
H31   H     H_    0.835241 0.483092 0.655193 0.051237
H32   H     H_    0.594542 0.386337 0.864287 0.156503
H33   H     H_    0.871494 0.353050 0.200368 0.118158
H34   H     H_    0.611608 0.568053 0.125303 0.114147
H35   H     H_    0.351526 0.521890 0.344937 0.072088
H36   H     H_    0.766662 0.375464 0.090060 0.082875
H37   H     H_    0.407395 0.632264 0.931265 0.054347
H38   H     H_    0.151665 0.678044 0.272544 -0.017053
H39   H     H_    0.521473 0.556084 0.003391 0.072012
H40   H     H_    0.332414 0.034377 0.428226 0.110224
H41   H     H_    0.805565 0.269464 0.537305 0.056350
H42   H     H_    0.404076 0.727537 0.458586 0.092607
H43   H     H_    0.978965 0.665593 0.157591 0.103452
H44   H     H_    0.977679 0.807145 0.181369 0.139072
H45   H     H_    0.386400 0.771945 0.673436 0.046008
O1    O     O_2   0.873090 0.425890 0.325140 -0.472054
O2    O     O_3   0.672310 0.778642 0.651232 -0.658584
O3    O     O_3   0.115640 0.835779 0.311737 -0.637659
O4    O     O_2   0.316610 0.574140 0.674900 -0.484039
O5    O     O_3   0.067290 0.565720 0.585630 -0.432419
O6    O     O_3   0.530210 0.372990 0.631200 -0.484305
O7    O     O_3   0.141165 0.742165 0.689293 -0.658313
O8    O     O_3   0.611340 0.366290 0.463630 -0.485475
O9    O     O_3   0.108550 0.314140 0.595200 -0.488268
O10   O     O_2   0.180525 0.124812 0.542076 -0.485928
O11   O     O_3   0.145027 0.164484 0.680521 -0.603826
O12   O     O_3   0.122420 0.434370 0.414380 -0.493626
O13   O     O_3   0.578370 0.633800 0.536380 -0.481255
O14   O     O_2   0.341510 0.231850 0.465510 -0.482304
O15   O     O_3   0.529124 0.158197 0.352023 -0.639888
O16   O     O_2   0.439042 0.473573 0.757716 -0.487156
O17   O     O_3   0.494507 0.280656 0.753018 -0.627821
O18   O     O_3   0.659500 0.627100 0.368810 -0.486823
O19   O     O_2   0.753443 0.527034 0.243311 -0.504535
O20   O     O_3   0.985963 0.257296 0.323949 -0.604856
O21   O     O_3   0.685818 0.714080 0.239914 -0.614712
O22   O     O_2   0.848200 0.768190 0.534530 -0.439989
O23   O     O_3   0.081160 0.685950 0.404810 -0.446877
O24   O     O_2   0.010703 0.881855 0.442298 -0.480195
P1    P     P_3+3 0.041040 0.394770 0.336330 0.964289
P2    P     P_3+3 0.672880 0.754030 0.556100 0.985181
P3    P     P_3+3 0.140804 0.821044 0.402311 0.975684
P4    P     P_3+3 0.148670 0.605320 0.663680 1.022286
P5    P     P_3+3 0.068521 0.180780 0.596224 0.933678
P6    P     P_3+3 0.627982 0.598538 0.274165 0.911838
P7    P     P_3+3 0.522522 0.228470 0.443720 0.919335
P8    P     P_3+3 0.560298 0.399701 0.725008 0.931721
C53   C     C_3   0.458703 0.803205 0.278147 -0.338091
H46   H     H_    0.416962 0.778923 0.220199 0.114042
H47   H     H_    0.400136 0.746195 0.309571 0.034369
H48   H     H_    0.424978 0.883032 0.299929 0.102636
C54   C     C_3   0.274878 0.179724 0.297992 -0.311112
H49   H     H_    0.229476 0.094230 0.295114 0.108708
H50   H     H_    0.243461 0.226535 0.349100 0.127328
H51   H     H_    0.217282 0.207722 0.252451 0.090800
C55   C     C_3   0.517597 0.314735 0.300185 -0.281287
H52   H     H_    0.456762 0.365157 0.342458 0.068334
H53   H     H_    0.644084 0.323806 0.317166 0.166488
H54   H     H_    0.506448 0.339872 0.247381 0.025439
C56   C     C_2   0.666716 0.152899 0.199379 0.501695
H55   H     H_    0.694045 0.196314 0.156164 -0.034009
O25   O     O_2   0.775917 0.120473 0.228773 -0.579597
C57   C     C_2   0.497442 0.132921 0.659752 0.491487
H56   H     H_    0.438400 0.168644 0.620677 0.079263
O26   O     O_2   0.491632 0.036861 0.649724 -0.685120
C58   C     C_3   0.304385 0.710793 0.825755 -0.375066
H57   H     H_    0.204172 0.753734 0.814487 0.119175
H58   H     H_    0.374767 0.763991 0.872757 0.078458
H59   H     H_    0.389203 0.699551 0.781936 0.141477
C59   C     C_2   0.671764 0.303263 0.970601 0.451099
H60   H     H_    0.721533 0.237389 0.986859 -0.010119
O27   O     O_2   0.527654 0.309030 0.976256 -0.590855
C60   C     C_3   0.894747 0.973862 0.619114 -0.267792
H61   H     H_    0.923203 0.033143 0.669864 0.070080
H62   H     H_    0.835740 0.914801 0.644306 0.145524
H63   H     H_    0.006966 0.951114 0.594578 0.124911
C61   C     C_2   0.239047 0.828223 0.598538 0.442077
H64   H     H_    0.265868 0.906706 0.586146 0.013553
O28   O     O_2   0.182056 0.754601 0.550658 -0.549307

loop_
_geom_bond_atom_site_label_1
_geom_bond_atom_site_label_2
_ccdc_geom_bond_type
C3    C54   S    
C6    H24   S    
C60   H61   S    
C3    O15   S    
C32   C35   A    
O15   P7    S    
Ba2   O8    S    
C57   H56   S    
C55   H54   S    
C17   C29   A    
C61   H64   S    
C5    C6    S    
O6    P8    S    
O16   P8    D    
O20   P1    S    
C4    H18   S    
O5    P4    S    
C36   H35   S    
Ba2   O13   S    
C24   C25   A    
C35   C36   A    
C10   C26   A    
C21   C27   A    
C10   H36   S    
C57   O26   D    
C22   C24   A    
C34   C61   S    
C32   C33   A    
C50   H7    S    
C54   H51   S    
Ba1   O13   S    
C3    C4    S    
Ba2   O14   S    
C12   O3    S    
C39   H42   S    
C52   H14   S    
C38   C47   A    
C9    C22   A    
C15   C18   A    
Ba1   O1    S    
C34   C45   S    
Ba1   Ba2   S    
C40   C44   A    
Ba2   O9    S    
Ba1   O23   S    
C27   C58   S    
C9    C13   A    
C24   C32   A    
C29   C30   A    
C51   O2    S    
C14   C15   A    
C58   H59   S    
C6    H25   S    
C49   O20   S    
O18   P6    S    
C7    C8    S    
C59   O27   D    
Ba2   P4    S    
C60   H62   S    
C19   C20   A    
C14   H32   S    
C39   C41   A    
C46   P7    S    
C12   H29   S    
O8    P7    S    
C41   P3    S    
C61   O28   D    
C44   C46   A    
C20   C21   A    
C48   C60   S    
C4    H17   S    
Ba2   O12   S    
C19   H31   S    
C42   P2    S    
O14   P7    D    
C34   O7    S    
C49   C50   S    
C1    H16   S    
C55   H52   S    
C54   H50   S    
C25   C37   A    
C51   H10   S    
C16   C17   A    
O24   P3    D    
C5    H21   S    
C52   H13   S    
C43   C44   A    
O7    P4    S    
C8    H28   S    
C37   P1    S    
O21   P6    S    
O1    P1    D    
C7    H26   S    
O23   P3    S    
C13   C17   A    
C22   C30   A    
O22   P2    D    
C27   C28   A    
C45   H3    S    
C33   H34   S    
O10   P5    D    
O2    P2    S    
C16   C21   A    
Ba2   O5    S    
C28   C29   A    
C51   H11   S    
C26   H33   S    
C15   C16   A    
C59   H60   S    
Ba1   O18   S    
O9    P5    S    
Ba1   O5    S    
C12   H38   S    
O13   P2    S    
Ba1   O8    S    
C56   O25   D    
C60   H63   S    
C11   C13   A    
C2    H1    S    
C6    H23   S    
C39   C42   A    
C58   H58   S    
C1    H12   S    
C49   H5    S    
C40   C41   A    
C38   H41   S    
C4    C56   S    
C1    C2    S    
O4    P4    D    
C42   C43   A    
C3    C55   S    
C23   H43   S    
C38   C46   A    
C47   P5    S    
C52   H15   S    
C8    H27   S    
O12   P1    S    
C40   H40   S    
C7    O17   S    
Ba1   P2    S    
C28   H37   S    
O3    P3    S    
C50   H9    S    
C31   H39   S    
C9    C10   A    
C51   C52   S    
C5    H22   S    
C55   H53   S    
Ba2   O6    S    
C5    O11   S    
C56   H55   S    
C23   H20   S    
C30   C31   A    
Ba1   P1    S    
O19   P6    D    
C50   H8    S    
Ba1   O12   S    
C45   H4    S    
C43   C48   A    
C2    C53   S    
C20   P4    S    
C36   C37   A    
O17   P8    S    
Ba2   O4    S    
C53   H48   S    
C8    H30   S    
C31   C33   A    
C7    C57   S    
C53   H46   S    
C34   H45   S    
C12   C23   S    
C1    H19   S    
Ba1   O22   S    
C11   C59   S    
C23   H44   S    
C18   C19   A    
C53   H47   S    
C47   C48   A    
C11   C14   A    
C25   C26   A    
C58   H57   S    
C2    O21   S    
C49   H6    S    
C18   P8    S    
C35   P6    S    
C54   H49   S    
O11   P5    S    
C45   H2    S    
