data_mof_unit_19333.cif
_audit_creation_date              2012-12-10T17:07:13-0500
_audit_creation_method            fapswitch 2.2
_symmetry_space_group_name_H-M    P1
_symmetry_Int_Tables_number       1
_space_group_crystal_system       triclinic
_cell_length_a                    17.309557
_cell_length_b                    11.013471
_cell_length_c                    9.883167
_cell_angle_alpha                 110.860142
_cell_angle_beta                  93.401604
_cell_angle_gamma                 93.689851
_cell_volume                      1750.11392524

loop_
_atom_site_label
_atom_site_type_symbol
_atom_type_description
_atom_site_fract_x
_atom_site_fract_y
_atom_site_fract_z
_atom_type_partial_charge
C1    C     C_R   0.494176 0.254394 0.441475 0.836921
C2    C     C_R   0.504715 0.745548 0.558753 0.843754
C3    C     C_2   0.489052 0.114746 0.409131 -0.358528
C4    C     C_2   0.507007 0.885117 0.591797 -0.371704
C5    C     C_2   0.498625 0.069537 0.516728 -0.169689
C6    C     C_2   0.492672 0.930341 0.485431 -0.143197
C7    C     C_2   0.500133 0.524633 0.085266 0.404082
C8    C     C_2   0.484354 0.505074 0.924732 0.411688
C9    C     C_R   0.352490 0.507139 0.521503 0.793698
C10   C     C_R   0.647530 0.492976 0.478454 0.789478
C11   C     C_R   0.269555 0.517816 0.536596 -0.071718
C12   C     C_R   0.730515 0.482965 0.463161 -0.070837
C13   C     C_R   0.218643 0.433033 0.422559 -0.255312
C14   C     C_R   0.781353 0.566808 0.578020 -0.260672
C15   C     C_R   0.139959 0.444881 0.421508 -0.199729
C16   C     C_R   0.860055 0.555152 0.578899 -0.202786
C17   C     C_R   0.109613 0.539305 0.537002 0.139757
C18   C     C_R   0.890473 0.461747 0.462626 0.139207
C19   C     C_R   0.159453 0.623727 0.657239 0.208526
C20   C     C_R   0.840762 0.378415 0.341531 0.211214
C21   C     C_R   0.240955 0.615811 0.654843 0.144426
C22   C     C_R   0.759245 0.386334 0.343741 0.151531
C23   C     C_2   0.025971 0.552847 0.525221 -0.220356
C24   C     C_2   0.974077 0.448113 0.474430 -0.221720
Cu1   Cu    Cu3+1 0.513640 0.521550 0.643210 0.963068
Cu2   Cu    Cu3+1 0.486360 0.478450 0.356790 0.964082
H1    H     H_    0.240198 0.358864 0.331218 0.163711
H2    H     H_    0.759735 0.640042 0.670111 0.161113
H3    H     H_    0.993142 0.350482 0.441823 0.160548
H4    H     H_    0.006817 0.650423 0.557821 0.160825
H5    H     H_    0.897227 0.617764 0.673331 0.147837
H6    H     H_    0.102767 0.381512 0.327540 0.148161
H7    H     H_    0.477802 0.864499 0.373754 0.223596
H8    H     H_    0.511769 0.135365 0.628844 0.176244
H9    H     H_    0.521359 0.951375 0.703460 0.148292
H10   H     H_    0.476746 0.048486 0.296960 0.157717
H11   H     H_    0.591467 0.562985 0.895649 0.131040
H12   H     H_    0.450149 0.351635 0.074082 0.125852
N1    N     N_2   0.465840 0.446060 0.141630 -0.304230
N2    N     N_2   0.534160 0.553940 0.858370 -0.302480
O1    O     O_R   0.507280 0.332200 0.576490 -0.572507
O2    O     O_R   0.492720 0.667800 0.423510 -0.505059
O3    O     O_R   0.484240 0.295800 0.334620 -0.589322
O4    O     O_R   0.515760 0.704200 0.665380 -0.578710
O5    O     O_R   0.399260 0.520290 0.634950 -0.507629
O6    O     O_R   0.600740 0.479710 0.365050 -0.571951
O7    O     O_R   0.376220 0.483890 0.393080 -0.577394
O8    O     O_R   0.623780 0.516110 0.606920 -0.589399
C25   C     C_3   0.702758 0.290326 0.224501 -0.851657
H13   H     H_    0.657423 0.247175 0.273239 0.228284
H14   H     H_    0.674902 0.341093 0.158295 0.230654
H15   H     H_    0.729967 0.206982 0.149832 0.231067
C26   C     C_3   0.297531 0.713173 0.772607 -0.807138
H16   H     H_    0.343282 0.753999 0.722530 0.217691
H17   H     H_    0.270451 0.798029 0.844842 0.221887
H18   H     H_    0.324800 0.664273 0.841364 0.279748
C27   C     C_3   0.126428 0.718445 0.788546 -0.904632
H19   H     H_    0.062809 0.699989 0.789096 0.228547
H20   H     H_    0.152387 0.708893 0.889362 0.245253
H21   H     H_    0.139236 0.819853 0.792734 0.231740
C28   C     C_3   0.873958 0.284832 0.209634 -0.908253
H22   H     H_    0.937701 0.302611 0.210174 0.229496
H23   H     H_    0.860484 0.182916 0.203239 0.232820
H24   H     H_    0.848687 0.296423 0.109475 0.240968
O9    O     O_3   0.408556 0.468512 0.860748 -0.546806
C29   C     C_3   0.385893 0.335209 0.831386 0.066522
H25   H     H_    0.352811 0.326900 0.920995 0.138418
H26   H     H_    0.435832 0.273893 0.815858 0.099648
C30   C     C_3   0.329408 0.279960 0.695311 -0.729157
H27   H     H_    0.358791 0.276208 0.597647 0.238397
H28   H     H_    0.306647 0.179058 0.680656 0.186996
H29   H     H_    0.279783 0.340858 0.705761 0.242213
O10   O     O_3   0.533926 0.645977 0.178931 -0.550358
C31   C     C_3   0.615698 0.657680 0.175375 0.063505
H30   H     H_    0.630921 0.703915 0.096494 0.128043
H31   H     H_    0.641540 0.562637 0.149175 0.122927
C32   C     C_3   0.653949 0.752459 0.320803 -0.735482
H32   H     H_    0.641863 0.718022 0.410291 0.242356
H33   H     H_    0.717899 0.762013 0.316009 0.186211
H34   H     H_    0.632430 0.850134 0.344787 0.238659

loop_
_geom_bond_atom_site_label_1
_geom_bond_atom_site_label_2
_ccdc_geom_bond_type
C29   H26   S    
C9    O5    A    
C30   H29   S    
O10   C31   S    
C15   H6    S    
C7    O10   S    
C32   H32   S    
C19   C27   S    
C16   H5    S    
C17   C23   S    
C31   H31   S    
C18   C24   S    
C19   C21   A    
H11   N2    S    
Cu1   N2    S    
C5    C6    S    
Cu2   N1    S    
C27   H20   S    
C29   C30   S    
C12   C22   A    
C28   H23   S    
C20   C28   S    
C30   H28   S    
C24   H3    S    
C1    O3    A    
C2    O4    A    
C25   H14   S    
C31   C32   S    
C10   O6    A    
C23   C24   D    
C32   H33   S    
C29   H25   S    
C4    H9    S    
C8    O9    S    
C30   H27   S    
Cu1   O4    S    
Cu2   O3    S    
C26   H17   S    
C31   H30   S    
C23   H4    S    
C7    C8    S    
C4    C6    D    
Cu1   O1    S    
C27   H21   S    
Cu1   Cu2   S    
C26   H16   S    
C11   C21   A    
C1    C3    S    
C28   H24   S    
C2    C4    S    
C25   H15   S    
C5    H8    S    
C9    C11   S    
Cu1   O8    S    
C10   C12   S    
Cu2   O7    S    
C22   C25   S    
C1    O1    A    
C12   C14   A    
C9    O7    A    
C13   C15   A    
C10   O8    A    
C14   C16   A    
Cu1   O5    S    
Cu2   O2    S    
C26   H18   S    
C15   C17   A    
C20   C22   A    
C3    C5    D    
C6    H7    S    
C21   C26   S    
C11   C13   A    
C27   H19   S    
H12   N1    S    
C32   H34   S    
C3    H10   S    
C2    O2    A    
C17   C19   A    
C18   C20   A    
O9    C29   S    
C28   H22   S    
Cu2   O6    S    
C16   C18   A    
C25   H13   S    
C7    N1    D    
C13   H1    S    
C8    N2    D    
C14   H2    S    
