data_mof_unit_43230.cif
_audit_creation_date              2013-03-05T16:02:24-0500
_audit_creation_method            fapswitch 2.2
_symmetry_space_group_name_H-M    P1
_symmetry_Int_Tables_number       1
_space_group_crystal_system       triclinic
_cell_length_a                    15.020864
_cell_length_b                    14.16533
_cell_length_c                    10.751029
_cell_angle_alpha                 90.024976
_cell_angle_beta                  84.073194
_cell_angle_gamma                 89.449429
_cell_volume                      2275.22026592

loop_
_atom_site_label
_atom_site_type_symbol
_atom_site_description
_atom_site_fract_x
_atom_site_fract_y
_atom_site_fract_z
_atom_type_partial_charge
O1    O     O_R   0.367860 0.580280 0.500020 -0.578340
O2    O     O_R   0.367860 0.419720 0.500020 -0.573786
C1    C     C_R   0.327013 0.500344 0.500266 0.926634
O3    O     O_R   0.500000 0.580270 0.314790 -0.607642
O4    O     O_R   0.500000 0.419730 0.314790 -0.615078
C2    C     C_R   0.502996 0.499917 0.257325 0.894278
Zn1   Zn    Zn3+2 0.500020 0.607200 0.499990 1.069401
Zn2   Zn    Zn3+2 0.500020 0.392800 0.499990 1.072298
O5    O     O_R   0.632160 0.580270 0.499960 -0.591654
O6    O     O_R   0.632160 0.419730 0.499960 -0.584575
O7    O     O_R   0.500030 0.580270 0.685200 -0.616096
O8    O     O_R   0.500030 0.419730 0.685200 -0.613142
C3    C     C_R   0.672808 0.499632 0.496593 0.918766
C4    C     C_R   0.495939 0.500041 0.742924 0.941464
C5    C     C_3   0.437589 0.578930 0.084199 -0.475351
C6    C     C_3   0.468598 0.403089 0.077933 -0.455620
H1    H     H_    0.458923 0.648977 0.116901 0.190758
H2    H     H_    0.516177 0.346021 0.099036 0.211294
H3    H     H_    0.369007 0.566355 0.130453 0.227472
H4    H     H_    0.403023 0.385817 0.130001 0.217821
C7    C     C_3   0.437365 0.582858 0.941473 0.343465
C8    C     C_3   0.461431 0.403688 0.937073 0.321065
H5    H     H_    0.467059 0.651182 0.907298 0.133593
H6    H     H_    0.503843 0.344871 0.893636 0.113134
H7    H     H_    0.622891 0.585051 0.082087 0.263949
H8    H     H_    0.641795 0.459482 0.077790 0.271158
H9    H     H_    0.619992 0.581911 0.869937 0.233587
H10   H     H_    0.636859 0.456435 0.869304 0.219490
C9    C     C_3   0.596022 0.516489 0.053567 -0.280878
C10   C     C_3   0.501520 0.499805 0.121088 0.007410
C11   C     C_3   0.495531 0.499994 0.880030 0.046762
C12   C     C_3   0.592980 0.514551 0.910923 -0.634739
C13   C     C_R   0.821400 0.497801 0.378357 0.339456
C14   C     C_R   0.768125 0.498877 0.492614 -0.118649
C15   C     C_R   0.804482 0.501829 0.605011 -0.206616
C16   C     C_R   0.896580 0.504858 0.606954 0.017787
C17   C     C_R   0.952728 0.501686 0.492604 -0.004717
C18   C     C_R   0.915168 0.495002 0.376933 -0.176423
C19   C     C_R   0.932859 0.507375 0.721734 0.217928
C20   C     C_R   0.025406 0.506843 0.724354 0.213737
C21   C     C_R   0.082968 0.508204 0.610518 -0.106458
C22   C     C_R   0.046077 0.503153 0.494313 -0.090829
C23   C     C_R   0.102407 0.498259 0.379738 -0.110604
C24   C     C_R   0.064109 0.497028 0.264996 0.465930
C25   C     C_R   0.972474 0.487387 0.264180 0.414922
C26   C     C_R   0.176360 0.514134 0.608508 0.268700
C27   C     C_R   0.231213 0.500583 0.496699 -0.229455
C28   C     C_R   0.195143 0.488193 0.382527 0.396251
H11   H     H_    0.759617 0.502299 0.690710 0.167496
C29   C     C_R   0.568620 0.796547 0.432038 0.358731
C30   C     C_R   0.569813 0.201914 0.434694 0.352800
N1    N     N_R   0.500070 0.750030 0.500050 -0.231778
N2    N     N_R   0.500070 0.249970 0.500050 -0.231911
C31   C     C_R   0.431705 0.800083 0.564022 0.310383
C32   C     C_R   0.429485 0.200996 0.558564 0.306890
C33   C     C_R   0.431416 0.900220 0.564467 -0.033683
C34   C     C_R   0.430385 0.100947 0.561617 -0.033555
C35   C     C_R   0.501897 0.949391 0.496704 -0.032201
C36   C     C_R   0.501800 0.050323 0.496213 -0.030751
C37   C     C_R   0.570667 0.897638 0.427276 -0.157380
C38   C     C_R   0.571926 0.100604 0.429507 -0.155200
C39   C     C_R   0.361506 0.952167 0.630373 -0.110253
C40   C     C_R   0.360689 0.050552 0.628258 -0.113200
C41   C     C_R   0.641238 0.048350 0.359398 0.362735
C42   C     C_R   0.637349 0.948107 0.352131 0.365684
H12   H     H_    0.306388 0.917248 0.683897 0.206675
H13   H     H_    0.305042 0.086770 0.680433 0.204458
N3    N     N_R   0.058994 0.499529 0.843978 0.272825
O9    O     O_R   0.089657 0.418787 0.879473 -0.237298
O10   O     O_R   0.041773 0.566565 0.925958 -0.227593
N4    N     N_R   0.217153 0.533273 0.719510 0.236661
O11   O     O_R   0.205194 0.614812 0.774645 -0.267796
O12   O     O_R   0.264529 0.467859 0.766551 -0.217380
O13   O     O_3   0.247753 0.463255 0.273784 -0.739169
H14   H     H_    0.309144 0.446885 0.291189 0.321930
O14   O     O_3   0.114454 0.503509 0.150750 -0.564609
H15   H     H_    0.156126 0.556886 0.156346 0.370147
O15   O     O_3   0.941605 0.469379 0.150652 -0.567105
H16   H     H_    0.907937 0.409571 0.160994 0.382093
N5    N     N_R   0.639405 0.742022 0.367779 0.282673
O16   O     O_R   0.631118 0.710920 0.255889 -0.345039
O17   O     O_R   0.717791 0.740389 0.409323 -0.309773
N6    N     N_R   0.637880 0.255160 0.365154 0.288627
O18   O     O_R   0.630267 0.273141 0.248143 -0.333169
O19   O     O_R   0.715366 0.264249 0.407826 -0.314312
N7    N     N_R   0.359777 0.750662 0.630793 0.238016
O20   O     O_R   0.283442 0.746622 0.583910 -0.358491
O21   O     O_R   0.361862 0.737110 0.749849 -0.384593
N8    N     N_R   0.351541 0.250947 0.610332 0.233564
O22   O     O_R   0.280502 0.250778 0.550554 -0.359154
O23   O     O_R   0.343066 0.271266 0.728530 -0.348137
O24   O     O_3   0.712622 0.095366 0.297344 -0.674515
H17   H     H_    0.766885 0.054836 0.295851 0.364159
O25   O     O_3   0.696535 0.899317 0.267992 -0.670907
H18   H     H_    0.712771 0.939720 0.194050 0.360003
O26   O     O_3   0.349291 0.578762 0.910524 -0.585702
H19   H     H_    0.317764 0.635933 0.946838 0.379138
O27   O     O_3   0.372278 0.388660 0.915425 -0.577389
H20   H     H_    0.356418 0.324416 0.946851 0.371150
N9    N     N_R   0.779027 0.501527 0.265552 0.189364
O28   O     O_R   0.740564 0.426554 0.228166 -0.365300
O29   O     O_R   0.784874 0.576658 0.195770 -0.254178
N10   N     N_R   0.875802 0.506210 0.837368 0.232687
O30   O     O_R   0.830311 0.581347 0.875069 -0.319415
O31   O     O_R   0.868932 0.429760 0.904470 -0.295812

loop_
_geom_bond_atom_site_label_1
_geom_bond_atom_site_label_2
_geom_bond_distance
_ccdc_geom_bond_type
C8    O27   1.400936 S    
C21   C22   1.420076 A    
C15   C16   1.386791 A    
C30   C38   1.436067 A    
C4    C11   1.473411 S    
Zn1   O7    2.027588 S    
C7    C11   1.561395 S    
C9    C10   1.546476 S    
N6    O18   1.299967 A    
C16   C17   1.417674 A    
C17   C18   1.421122 A    
Zn1   N1    2.023241 S    
C9    C12   1.539201 S    
O4    C2    1.292197 A    
Zn2   O6    2.024745 S    
O7    C4    1.294052 A    
N7    O21   1.297892 A    
C34   C36   1.410111 A    
C6    C10   1.548101 S    
Zn1   O5    2.017545 S    
C14   C15   1.377262 A    
C17   C22   1.404558 A    
C24   O14   1.377874 S    
O5    C3    1.288748 A    
N9    O28   1.297158 A    
C18   C25   1.415862 A    
C11   C12   1.549709 S    
N3    O9    1.300944 A    
C15   H11   1.083859 S    
C29   N1    1.373710 A    
C21   C26   1.404095 A    
C25   O15   1.374291 S    
N8    O23   1.295927 A    
C23   C28   1.402287 A    
C6    H4    1.110985 S    
O3    Zn1   2.027173 S    
N1    C31   1.367467 A    
C34   C40   1.406700 A    
C31   C33   1.418442 A    
N2    C32   1.370368 A    
H7    C9    1.110400 S    
C40   H13   1.082226 S    
C36   C38   1.410681 A    
C8    C11   1.564860 S    
C39   H12   1.082123 S    
C28   O13   1.385485 S    
H10   C12   1.113862 S    
O14   H15   0.991946 S    
N5    O17   1.301700 A    
O13   H14   0.985247 S    
C19   C20   1.393273 A    
C31   N7    1.423905 S    
O15   H16   0.991246 S    
C35   C36   1.429737 A    
O1    C1    1.292914 A    
C38   C41   1.422181 A    
C5    H3    1.112675 S    
C23   C24   1.414126 A    
C39   C40   1.393803 A    
C27   C28   1.403572 A    
C5    C7    1.535839 S    
Zn2   O8    2.027262 S    
O26   H19   0.993338 S    
N9    O29   1.300802 A    
C13   C14   1.395087 A    
N10   O31   1.300506 A    
C26   N4    1.423736 S    
O3    C2    1.293030 A    
C42   O25   1.381248 S    
C2    C10   1.467146 S    
O8    C4    1.293550 A    
C37   C42   1.419225 A    
C7    H5    1.115967 S    
C8    H6    1.116299 S    
C22   C23   1.421832 A    
C41   O24   1.380123 S    
C30   N6    1.425003 S    
C24   C25   1.385420 A    
N7    O20   1.301037 A    
C5    C10   1.547287 S    
N4    O12   1.297243 A    
C5    H1    1.113514 S    
C26   C27   1.397459 A    
C20   C21   1.423938 A    
C6    C8    1.529274 S    
N6    O19   1.301855 A    
H9    C12   1.113601 S    
O1    Zn1   2.025015 S    
C16   C19   1.400070 A    
O2    Zn2   2.017817 S    
N5    O16   1.299294 A    
O6    C3    1.289926 A    
C29   N5    1.427020 S    
Zn2   N2    2.023229 S    
O4    Zn2   2.027499 S    
C19   N10   1.435458 S    
C7    O26   1.398799 S    
C13   C18   1.407144 A    
C13   N9    1.427418 S    
C29   C37   1.433424 A    
C41   C42   1.424178 A    
C32   C34   1.417578 A    
O2    C1    1.291108 A    
C3    C14   1.427902 S    
C32   N8    1.424889 S    
C1    C27   1.443430 S    
O24   H17   0.991224 S    
C33   C35   1.411399 A    
C33   C39   1.406161 A    
O25   H18   0.990968 S    
N4    O11   1.300442 A    
H8    C9    1.104143 S    
C6    H2    1.112778 S    
O27   H20   0.993428 S    
C20   N3    1.432618 S    
N10   O30   1.300955 A    
N3    O10   1.301123 A    
C30   N2    1.374201 A    
N8    O22   1.301294 A    
C35   C37   1.409740 A    
