data_mof_unit_21034.cif
_audit_creation_date              2013-03-05T16:03:27-0500
_audit_creation_method            fapswitch 2.2
_symmetry_space_group_name_H-M    P1
_symmetry_Int_Tables_number       1
_space_group_crystal_system       triclinic
_cell_length_a                    6.945923
_cell_length_b                    18.304805
_cell_length_c                    20.111295
_cell_angle_alpha                 68.398265
_cell_angle_beta                  90.628813
_cell_angle_gamma                 90.753171
_cell_volume                      2377.1767726

loop_
_atom_site_label
_atom_site_type_symbol
_atom_site_description
_atom_site_fract_x
_atom_site_fract_y
_atom_site_fract_z
_atom_type_partial_charge
O1    O     O_R   0.488960 0.443750 0.941980 -0.594607
O2    O     O_R   0.823890 0.406510 0.087590 -0.591874
O3    O     O_R   0.999680 0.556250 0.058020 -0.592955
C1    C     C_R   0.655670 0.385344 0.116358 0.957812
O4    O     O_R   0.818360 0.434410 0.944340 -0.591619
O5    O     O_R   0.994110 0.584350 0.913750 -0.592705
C2    C     C_R   0.648734 0.420365 0.923809 0.974568
O6    O     O_R   0.494530 0.415650 0.086250 -0.590038
O7    O     O_3   0.662590 0.549160 0.990130 -0.269942
V1    V     V_3+5 0.935320 0.490880 0.001830 1.173770
O8    O     O_R   0.324180 0.593490 0.912410 -0.591237
C3    C     C_R   0.155209 0.616459 0.884938 0.940563
O9    O     O_R   0.329720 0.565590 0.055660 -0.583540
C4    C     C_R   0.162003 0.579650 0.076166 0.972633
V2    V     V_3+5 0.435990 0.509120 0.998170 1.179272
O10   O     O_3   0.158850 0.450840 0.009870 -0.272350
C5    C     C_3   0.064137 0.704408 0.313712 -0.111819
C6    C     C_3   0.249207 0.689460 0.278072 -0.224509
H1    H     H_    0.345771 0.638520 0.301948 0.154137
H2    H     H_    0.009252 0.666317 0.367013 0.127384
H3    H     H_    0.455601 0.799514 0.262144 0.188440
C7    C     C_1   0.154883 0.625455 0.121527 -0.264932
C8    C     C_1   0.110082 0.874695 0.377996 -0.268703
C9    C     C_3   0.953231 0.724361 0.241732 -0.187688
C10   C     C_3   0.138167 0.709679 0.206675 0.065923
C11   C     C_3   0.011660 0.812379 0.220451 -0.205276
C12   C     C_3   0.123437 0.791643 0.291730 0.146413
C13   C     C_3   0.195529 0.796032 0.186566 0.379438
C14   C     C_3   0.308958 0.777326 0.256871 -0.225286
C15   C     C_1   0.147414 0.663427 0.159826 0.088151
C16   C     C_1   0.115772 0.837102 0.339292 0.076354
H4    H     H_    0.915874 0.863484 0.195915 0.215545
H5    H     H_    0.806824 0.702503 0.235564 0.153812
H6    H     H_    0.423567 0.546401 0.691947 0.119140
C17   C     C_R   0.995232 0.765134 0.876435 -0.144871
C18   C     C_R   0.915497 0.835510 0.874036 -0.058394
C19   C     C_R   0.902153 0.898822 0.809475 -0.118282
C20   C     C_R   0.968741 0.892292 0.746824 -0.176037
C21   C     C_R   0.048958 0.821335 0.747369 0.120593
C22   C     C_R   0.062211 0.756350 0.813568 0.108168
C23   C     C_R   0.119207 0.815026 0.683712 -0.311604
C24   C     C_R   0.202352 0.743611 0.686315 0.117749
C25   C     C_R   0.215464 0.678608 0.752503 0.118437
C26   C     C_R   0.145195 0.684920 0.816153 -0.310620
C27   C     C_R   0.269706 0.734865 0.623481 -0.154357
C28   C     C_R   0.349568 0.664500 0.625898 -0.110097
C29   C     C_R   0.362572 0.601143 0.690435 -0.117214
C30   C     C_R   0.295659 0.607640 0.753055 -0.170724
H7    H     H_    0.005251 0.718193 0.928243 0.115575
H8    H     H_    0.865023 0.841101 0.922678 0.149376
H9    H     H_    0.841175 0.953563 0.807968 0.128884
H10   H     H_    0.957788 0.943759 0.698289 0.123478
H11   H     H_    0.259928 0.781836 0.571685 0.105590
H12   H     H_    0.400381 0.658947 0.577284 0.118199
H13   H     H_    0.306387 0.556140 0.801571 0.120088
H14   H     H_    0.628494 0.351291 0.440454 0.140398
C31   C     C_R   0.633548 0.098274 0.248900 -0.315848
C32   C     C_R   0.647340 0.086338 0.184150 0.428575
C33   C     C_R   0.657442 0.151729 0.120332 -0.213726
C34   C     C_R   0.655327 0.227524 0.120981 -0.219417
C35   C     C_R   0.644544 0.240820 0.185888 0.134304
C36   C     C_R   0.632762 0.174788 0.250965 0.070253
C37   C     C_R   0.646134 0.318396 0.186264 -0.282245
C38   C     C_R   0.639594 0.330337 0.253045 0.044195
C39   C     C_R   0.626075 0.262702 0.317993 0.111142
C40   C     C_R   0.621138 0.185736 0.316793 -0.259411
C41   C     C_R   0.648485 0.406578 0.258847 -0.062275
C42   C     C_R   0.646228 0.413021 0.326747 0.084685
C43   C     C_R   0.630904 0.346377 0.388361 -0.178552
C44   C     C_R   0.620200 0.272680 0.384297 -0.174680
H15   H     H_    0.625078 0.047055 0.297767 0.162545
H16   H     H_    0.667035 0.144386 0.069459 0.174882
H17   H     H_    0.663438 0.275472 0.069719 0.119854
H18   H     H_    0.609465 0.223263 0.434480 0.104548
O11   O     O_R   0.770540 0.084530 0.414050 -0.587599
O12   O     O_R   0.445710 0.065660 0.555720 -0.591430
O13   O     O_R   0.270420 0.915650 0.586190 -0.590909
C45   C     C_R   0.615158 0.079810 0.576329 0.973123
O14   O     O_R   0.441140 0.093540 0.412470 -0.588682
O15   O     O_R   0.265820 0.943740 0.441930 -0.589172
C46   C     C_R   0.609934 0.116262 0.384923 0.941252
O16   O     O_R   0.775150 0.056440 0.558310 -0.595904
O17   O     O_3   0.602370 0.950960 0.510050 -0.272313
V3    V     V_3+5 0.329450 0.009140 0.498150 1.175637
O18   O     O_R   0.935790 0.934280 0.444060 -0.586804
C47   C     C_R   0.103572 0.920264 0.423646 0.973869
O19   O     O_R   0.940370 0.906390 0.587310 -0.594538
C48   C     C_R   0.109272 0.883501 0.614918 0.936493
V4    V     V_3+5 0.828810 0.990710 0.501460 1.174922
O20   O     O_3   0.105780 0.049100 0.489960 -0.271620
C49   C     C_3   0.740618 0.315962 0.720559 -0.213000
C50   C     C_3   0.559775 0.294000 0.686487 0.093334
H19   H     H_    0.829446 0.370041 0.696446 0.126921
H20   H     H_    0.300324 0.288382 0.763800 0.127158
C51   C     C_1   0.624982 0.125661 0.621664 -0.290206
C52   C     C_1   0.638507 0.374810 0.878209 -0.293820
C53   C     C_3   0.812776 0.230278 0.741825 -0.175722
C54   C     C_3   0.631226 0.209609 0.707238 0.161778
C55   C     C_3   0.704377 0.206657 0.813944 -0.117325
C56   C     C_3   0.631813 0.291578 0.792059 0.204074
C57   C     C_3   0.522684 0.185559 0.778771 -0.161799
C58   C     C_3   0.449763 0.271120 0.757604 -0.214591
C59   C     C_1   0.629303 0.163623 0.660059 -0.019594
C60   C     C_1   0.633973 0.337157 0.839539 -0.018249
H21   H     H_    0.433379 0.131594 0.802657 0.139093
H22   H     H_    0.764292 0.170598 0.867182 0.136586
H23   H     H_    0.962170 0.213221 0.735329 0.128811
N1    N     N_R   0.651989 0.008029 0.183318 0.240254
O21   O     O_R   0.680529 0.996979 0.123865 -0.366087
O22   O     O_R   0.630832 0.947008 0.242111 -0.441162
C61   C     C_1   0.661008 0.479813 0.197814 0.035443
N2    N     N_1   0.670665 0.539248 0.150151 -0.032417
C62   C     C_1   0.662457 0.488207 0.334966 0.031260
N3    N     N_1   0.676162 0.548197 0.341669 -0.105300
C63   C     C_1   0.480202 0.342196 0.616377 0.017308
N4    N     N_1   0.417406 0.380192 0.561073 -0.091519
N5    N     N_R   0.267166 0.848129 0.117291 0.244978
O23   O     O_R   0.303271 0.921504 0.106349 -0.324952
O24   O     O_R   0.292122 0.822335 0.065811 -0.405020

loop_
_geom_bond_atom_site_label_1
_geom_bond_atom_site_label_2
_geom_bond_distance
_ccdc_geom_bond_type
C30   H13   1.081308 S    
O19   C48   1.299040 A    
C11   H4    1.109287 S    
C57   C58   1.554313 S    
C12   C14   1.544242 S    
C23   C24   1.419125 A    
C17   C18   1.393191 A    
C1    O6    1.296633 A    
O12   V3    1.975477 S    
C53   C54   1.542451 S    
C50   C54   1.532219 S    
C31   C36   1.416475 A    
C21   C23   1.419327 A    
O18   C47   1.299407 A    
C10   C13   1.528772 S    
C2    C52   1.449669 S    
C1    C37   1.487977 S    
C11   C12   1.544182 S    
O16   V4    1.981859 S    
O17   V3    2.154183 S    
C13   C14   1.537308 S    
C9    C11   1.556467 S    
C13   N5    1.456886 S    
N5    O24   1.300345 A    
O5    C3    1.295956 A    
C20   C21   1.416346 A    
C19   H9    1.082990 S    
C20   H10   1.081321 S    
C39   C44   1.412035 A    
C55   H22   1.110104 S    
C34   H17   1.081698 S    
C56   C60   1.481237 S    
C5    H2    1.110046 S    
N1    O21   1.301612 A    
C6    H1    1.108876 S    
C35   C37   1.422709 A    
O15   C47   1.297856 A    
O8    V2    2.000963 S    
C29   C30   1.393105 A    
O13   C48   1.295967 A    
C42   C43   1.386167 A    
C8    C47   1.451377 S    
C54   C59   1.482088 S    
C17   H7    1.081462 S    
O1    V2    1.964825 S    
C49   C56   1.542881 S    
C25   C30   1.416425 A    
C50   C58   1.542550 S    
C33   H16   1.082710 S    
C27   H11   1.081428 S    
C33   C34   1.392532 A    
O9    C4    1.300006 A    
C35   C36   1.419706 A    
C6    C10   1.544504 S    
V3    O20   1.706274 S    
C53   C55   1.552799 S    
C51   C59   1.214097 T    
C57   H21   1.110116 S    
O17   V4    1.707748 S    
C5    C9    1.554352 S    
C36   C40   1.413309 A    
C12   C16   1.482760 S    
C41   C42   1.413503 A    
C5    C12   1.543330 S    
C38   C41   1.443096 A    
C52   C60   1.214258 T    
C9    C10   1.545280 S    
C21   C22   1.424800 A    
O4    C2    1.297796 A    
O18   V4    1.966907 S    
O11   C46   1.295049 A    
O13   V3    1.999545 S    
C32   C33   1.397687 A    
C27   C28   1.393253 A    
H3    C14   1.110021 S    
C49   C53   1.554396 S    
C34   C35   1.416110 A    
C24   C27   1.416075 A    
C8    C16   1.215199 T    
O2    C1    1.299229 A    
C25   C26   1.419241 A    
C44   H18   1.081700 S    
C19   C20   1.393178 A    
C49   H19   1.110325 S    
C45   O16   1.297997 A    
C55   C56   1.541458 S    
C45   C51   1.449435 S    
C28   H12   1.082800 S    
C56   C58   1.542315 S    
C5    C6    1.554025 S    
C6    C14   1.556375 S    
C31   H15   1.081522 S    
O3    C4    1.296630 A    
C41   C61   1.448793 S    
C55   C57   1.552725 S    
H14   C43   1.084326 S    
O6    V2    2.000363 S    
O9    V2    1.966952 S    
C24   C25   1.424764 A    
O2    V1    1.998877 S    
C49   C50   1.542613 S    
C18   H8    1.082840 S    
O14   C46   1.298563 A    
C62   N3    1.157170 T    
O7    V1    2.154196 S    
C10   C15   1.482803 S    
C23   C48   1.487718 S    
C28   C29   1.389101 A    
C18   C19   1.389153 A    
C7    C15   1.214551 T    
C61   N2    1.156974 T    
O1    C2    1.298055 A    
O12   C45   1.297873 A    
O5    V1    1.999474 S    
O8    C3    1.298925 A    
C54   C57   1.542921 S    
C42   C62   1.448153 S    
C11   C13   1.537632 S    
C9    H5    1.110276 S    
C38   C39   1.434098 A    
C4    C7    1.450146 S    
O19   V4    2.000910 S    
C17   C22   1.416123 A    
O7    V2    1.711324 S    
O4    V1    1.975487 S    
C3    C26   1.487507 S    
O3    V1    1.969558 S    
V1    O10   1.706197 S    
N5    O23   1.300001 A    
O15   V3    1.969415 S    
C31   C32   1.401952 A    
O14   V3    1.998886 S    
N1    O22   1.301678 A    
C32   N1    1.440458 S    
C43   C44   1.382192 A    
C50   C63   1.466869 S    
O11   V4    1.995794 S    
C37   C38   1.439236 A    
C53   H23   1.110340 S    
C22   C26   1.419032 A    
H20   C58   1.110520 S    
C39   C40   1.417865 A    
H6    C29   1.083030 S    
C63   N4    1.157066 T    
V4    O20   2.161159 S    
V2    O10   2.161056 S    
C40   C46   1.489123 S    
