data_mof_unit_40635.cif
_audit_creation_date              2013-03-05T16:23:42-0500
_audit_creation_method            fapswitch 2.2
_symmetry_space_group_name_H-M    P1
_symmetry_Int_Tables_number       1
_space_group_crystal_system       triclinic
_cell_length_a                    13.802035
_cell_length_b                    15.100408
_cell_length_c                    17.074484
_cell_angle_alpha                 89.797295
_cell_angle_beta                  85.973451
_cell_angle_gamma                 90.20125
_cell_volume                      3549.7703739

loop_
_atom_site_label
_atom_site_type_symbol
_atom_site_description
_atom_site_fract_x
_atom_site_fract_y
_atom_site_fract_z
_atom_type_partial_charge
O1    O     O_R   0.418570 0.628550 0.499990 -0.593111
O2    O     O_R   0.581430 0.371450 0.500010 -0.586283
O3    O     O_R   0.581440 0.628540 0.499990 -0.554706
O4    O     O_R   0.418560 0.371460 0.500010 -0.577687
C1    C     C_R   0.500051 0.670534 0.502873 0.827421
C2    C     C_R   0.499928 0.330042 0.499537 0.866891
O5    O     O_R   0.409120 0.500020 0.613600 -0.561496
O6    O     O_R   0.590880 0.499980 0.386400 -0.591622
O7    O     O_R   0.571990 0.500010 0.613600 -0.606675
O8    O     O_R   0.428010 0.499990 0.386400 -0.571421
C3    C     C_R   0.487366 0.497760 0.650395 0.803591
C4    C     C_R   0.512584 0.503378 0.349316 0.865833
Cu1   Cu    Cu3+1 0.403570 0.500010 0.500000 0.954278
Cu2   Cu    Cu3+1 0.596430 0.499990 0.500000 0.939791
C5    C     C_R   0.480340 0.490961 0.735712 -0.162026
C6    C     C_R   0.520213 0.513370 0.263631 -0.172171
C7    C     C_R   0.542742 0.432845 0.771528 -0.339884
C8    C     C_R   0.600285 0.476706 0.220107 -0.331965
C9    C     C_R   0.536222 0.422063 0.852948 0.328095
C10   C     C_R   0.610385 0.485940 0.138351 0.308890
C11   C     C_R   0.467434 0.471600 0.898751 -0.006917
C12   C     C_R   0.540017 0.533556 0.100310 0.007574
C13   C     C_R   0.405215 0.529990 0.863031 -0.339674
C14   C     C_R   0.462942 0.573770 0.143763 -0.312984
C15   C     C_R   0.411638 0.540802 0.781726 0.486930
C16   C     C_R   0.450363 0.561925 0.224773 0.470211
C17   C     C_2   0.471084 0.474298 0.984784 0.354332
C18   C     C_2   0.535582 0.529646 0.014618 0.394389
H1    H     H_    0.595663 0.394734 0.735999 0.151117
H2    H     H_    0.654191 0.439480 0.249503 0.169846
H3    H     H_    0.354128 0.569803 0.898655 0.139913
H4    H     H_    0.410715 0.612386 0.113876 0.130818
C19   C     C_R   0.406291 0.904365 0.519321 0.270330
C20   C     C_R   0.541047 0.101301 0.574238 0.273641
C21   C     C_R   0.410418 0.812282 0.512750 -0.341743
C22   C     C_R   0.543830 0.193216 0.565691 -0.339207
H5    H     H_    0.343280 0.775800 0.508349 0.176043
H6    H     H_    0.579124 0.233035 0.608201 0.152325
C23   C     C_R   0.499503 0.767485 0.511403 -0.178069
C24   C     C_R   0.499300 0.234093 0.504055 -0.130186
C25   C     C_R   0.585937 0.816137 0.519775 0.442669
C26   C     C_R   0.453208 0.183603 0.448625 0.410428
C27   C     C_R   0.582195 0.908197 0.523004 -0.251242
C28   C     C_R   0.453605 0.091271 0.455556 -0.258516
H7    H     H_    0.649542 0.945230 0.523494 0.165606
H8    H     H_    0.424654 0.051209 0.410091 0.161139
C29   C     C_R   0.493488 0.952764 0.523031 0.054073
C30   C     C_R   0.494506 0.049970 0.519024 0.048145
C31   C     C_R   0.897205 0.551443 0.443296 0.176744
C32   C     C_R   0.104289 0.556120 0.556305 0.167844
C33   C     C_R   0.794766 0.547720 0.444308 0.014167
C34   C     C_R   0.207235 0.551330 0.553655 0.070886
H9    H     H_    0.757738 0.584245 0.400758 0.141260
H10   H     H_    0.247111 0.588519 0.594695 0.154990
N1    N     N_R   0.741310 0.499980 0.500000 -0.188076
N2    N     N_R   0.258690 0.500020 0.500000 -0.196334
C35   C     C_R   0.786684 0.454475 0.556002 0.059869
C36   C     C_R   0.211377 0.450813 0.447898 0.004734
H11   H     H_    0.743937 0.416674 0.599974 0.128138
H12   H     H_    0.252692 0.410396 0.405759 0.134038
C37   C     C_R   0.888485 0.456156 0.557514 -0.352952
C38   C     C_R   0.109658 0.453127 0.447446 -0.296921
H13   H     H_    0.922741 0.419408 0.602553 0.160360
H14   H     H_    0.073882 0.414198 0.404783 0.153332
C39   C     C_R   0.945439 0.504775 0.500914 0.074505
C40   C     C_R   0.054411 0.505047 0.502000 0.086379
N3    N     N_2   0.950571 0.601373 0.384029 -0.446865
H15   H     H_    0.918588 0.602269 0.331193 0.242841
C41   C     C_3   0.977178 0.689371 0.408069 -0.692648
H16   H     H_    0.021205 0.722425 0.359397 0.227157
H17   H     H_    0.021425 0.686331 0.459724 0.245096
H18   H     H_    0.910976 0.729411 0.422793 0.236920
N4    N     N_2   0.051802 0.610307 0.613463 -0.432685
H19   H     H_    0.977631 0.612962 0.610166 0.262012
C42   C     C_3   0.093862 0.695050 0.632272 -0.726408
H20   H     H_    0.040018 0.734282 0.668879 0.231813
H21   H     H_    0.114532 0.733087 0.577772 0.217490
H22   H     H_    0.158052 0.685680 0.667005 0.246376
O9    O     O_3   0.374778 0.605187 0.265997 -0.610877
C43   C     C_3   0.290092 0.551593 0.269695 0.113687
H23   H     H_    0.249033 0.566684 0.326238 0.188741
H24   H     H_    0.305808 0.479171 0.270076 0.110759
C44   C     C_3   0.224942 0.573746 0.203301 -0.392173
H25   H     H_    0.213492 0.646488 0.200816 0.233120
H26   H     H_    0.259830 0.551727 0.146227 0.213495
C45   C     C_3   0.126643 0.527332 0.215953 -0.926574
H27   H     H_    0.136276 0.454426 0.218686 0.259407
H28   H     H_    0.081335 0.543260 0.166593 0.255826
H29   H     H_    0.088276 0.549937 0.271510 0.281795
O10   O     O_3   0.348519 0.598553 0.748201 -0.614151
C46   C     C_3   0.398663 0.676343 0.721821 0.061833
H30   H     H_    0.365470 0.699778 0.668094 0.159139
H31   H     H_    0.477328 0.665976 0.704790 0.098698
C47   C     C_3   0.387300 0.748719 0.784118 -0.360795
H32   H     H_    0.308948 0.763741 0.796455 0.223249
H33   H     H_    0.417012 0.725442 0.839342 0.216508
C48   C     C_3   0.440882 0.832823 0.756350 -0.936966
H34   H     H_    0.520087 0.820107 0.746937 0.265044
H35   H     H_    0.429172 0.885189 0.801454 0.257002
H36   H     H_    0.413186 0.856541 0.700522 0.264133
O11   O     O_3   0.598079 0.579718 0.964794 -0.620137
C49   C     C_3   0.581162 0.670601 0.978687 0.019184
H37   H     H_    0.613381 0.690950 0.033857 0.155379
H38   H     H_    0.501817 0.685781 0.982948 0.122953
C50   C     C_3   0.629054 0.723630 0.910039 -0.310789
H39   H     H_    0.708604 0.711304 0.905812 0.224638
H40   H     H_    0.599293 0.701302 0.854535 0.220531
C51   C     C_3   0.610913 0.822709 0.919968 -0.939941
H41   H     H_    0.531753 0.836590 0.923473 0.261000
H42   H     H_    0.645776 0.859100 0.868779 0.258761
H43   H     H_    0.642215 0.846909 0.974156 0.259644
O12   O     O_3   0.417618 0.416404 0.035024 -0.631900
C52   C     C_3   0.322690 0.403989 0.011305 0.030026
H44   H     H_    0.324236 0.367212 0.954827 0.155231
H45   H     H_    0.286086 0.469079 0.005159 0.137734
C53   C     C_3   0.264595 0.349537 0.074018 -0.313916
H46   H     H_    0.296872 0.282414 0.077499 0.219979
H47   H     H_    0.268414 0.381793 0.132119 0.226382
C54   C     C_3   0.158423 0.340900 0.055472 -0.934125
H48   H     H_    0.123950 0.407236 0.054551 0.261072
H49   H     H_    0.118466 0.299857 0.101204 0.253901
H50   H     H_    0.152958 0.308590 0.997597 0.259043
N5    N     N_2   0.688210 0.443512 0.094408 -0.401264
H51   H     H_    0.706946 0.383325 0.117705 0.249432
C55   C     C_3   0.772192 0.499673 0.077437 -0.660976
H52   H     H_    0.826941 0.463691 0.038997 0.227340
H53   H     H_    0.805226 0.517832 0.132740 0.204297
H54   H     H_    0.751835 0.560900 0.046489 0.258172
N6    N     N_2   0.601824 0.364683 0.888814 -0.400092
H55   H     H_    0.669101 0.360685 0.858636 0.250036
C56   C     C_3   0.562064 0.278093 0.908630 -0.685447
H56   H     H_    0.615834 0.239289 0.939754 0.230413
H57   H     H_    0.545495 0.242087 0.854446 0.206151
H58   H     H_    0.494876 0.283782 0.947941 0.258120
N7    N     N_2   0.314797 0.947756 0.518306 -0.437267
H59   H     H_    0.263187 0.912435 0.490447 0.248804
C57   C     C_3   0.276932 0.981603 0.593409 -0.716194
H60   H     H_    0.205635 0.013566 0.586735 0.226756
H61   H     H_    0.326474 0.032313 0.615332 0.241000
H62   H     H_    0.266672 0.926747 0.636816 0.223953
N8    N     N_2   0.586482 0.060921 0.637458 -0.440620
H63   H     H_    0.651761 0.090170 0.648552 0.247440
C58   C     C_3   0.523679 0.050688 0.708244 -0.717837
H64   H     H_    0.562537 0.013668 0.752718 0.233290
H65   H     H_    0.457509 0.012901 0.695992 0.242940
H66   H     H_    0.502515 0.116613 0.732502 0.221940
O13   O     O_3   0.675855 0.775612 0.517693 -0.608061
C59   C     C_3   0.695934 0.748100 0.594279 0.108160
H67   H     H_    0.741613 0.687712 0.588067 0.180286
H68   H     H_    0.629633 0.728764 0.631813 0.105987
C60   C     C_3   0.752865 0.819664 0.635049 -0.392368
H69   H     H_    0.816487 0.840864 0.595843 0.230907
H70   H     H_    0.705601 0.878017 0.647666 0.226529
C61   C     C_3   0.788373 0.785411 0.712117 -0.929142
H71   H     H_    0.725839 0.763302 0.751868 0.257108
H72   H     H_    0.827257 0.839142 0.741339 0.259707
H73   H     H_    0.838975 0.729068 0.700990 0.259045
O14   O     O_3   0.422551 0.224078 0.381791 -0.617435
C62   C     C_3   0.321337 0.212830 0.378342 0.065396
H74   H     H_    0.282155 0.247670 0.428434 0.149528
H75   H     H_    0.299936 0.141676 0.379910 0.141767
C63   C     C_3   0.291368 0.252279 0.301131 -0.324113
H76   H     H_    0.314233 0.322762 0.296827 0.209604
H77   H     H_    0.328738 0.216242 0.251079 0.227039
C64   C     C_3   0.181855 0.245929 0.294965 -0.961419
H78   H     H_    0.158575 0.175460 0.294509 0.264462
H79   H     H_    0.162258 0.277975 0.239723 0.258014
H80   H     H_    0.142761 0.280005 0.345163 0.252262

loop_
_geom_bond_atom_site_label_1
_geom_bond_atom_site_label_2
_geom_bond_distance
_ccdc_geom_bond_type
C36   C38   1.405037 A    
C58   H66   1.111698 S    
C28   C30   1.401995 A    
C20   N8    1.422446 S    
C9    N6    1.423103 S    
O11   C49   1.411015 S    
C49   H37   1.113309 S    
C7    H1    1.084395 S    
N4    H19   1.030108 S    
O13   C59   1.416785 S    
C59   C60   1.531650 S    
C42   H20   1.111036 S    
C56   H58   1.109680 S    
C48   H34   1.111212 S    
N5    H51   1.031817 S    
C23   C25   1.414875 A    
C26   O14   1.385476 S    
C53   H46   1.111667 S    
O5    C3    1.287472 A    
C50   H40   1.111984 S    
C15   O10   1.385266 S    
C64   H78   1.110691 S    
C35   C37   1.407253 A    
C31   C39   1.413501 A    
C44   H25   1.111382 S    
O1    C1    1.293087 A    
C12   C14   1.395628 A    
C9    C11   1.406201 A    
C59   H68   1.117047 S    
C52   H44   1.113469 S    
N8    C58   1.444522 S    
C62   H74   1.114008 S    
C45   H28   1.110321 S    
N5    C55   1.446000 S    
C36   H12   1.078547 S    
C58   H64   1.110435 S    
C51   H41   1.110731 S    
C49   C50   1.527364 S    
C58   H65   1.107901 S    
C33   N1    1.364245 A    
C60   C61   1.525406 S    
O4    Cu1   1.952875 S    
C41   H17   1.108377 S    
C10   N5    1.422060 S    
C38   H14   1.082377 S    
C48   H35   1.110053 S    
C3    C5    1.456379 S    
C18   O11   1.388266 S    
C4    C6    1.466622 S    
C28   H8    1.083265 S    
C31   C33   1.413684 A    
C55   H54   1.110033 S    
C32   C34   1.420504 A    
C60   H69   1.111596 S    
C62   H75   1.113044 S    
C8    H2    1.083912 S    
N2    C36   1.361179 A    
C61   H72   1.110271 S    
C47   H33   1.110767 S    
C52   C53   1.527801 S    
C24   C26   1.402851 A    
Cu2   N1    1.999639 S    
C11   C17   1.474067 S    
C64   H79   1.109286 S    
C12   C18   1.470098 S    
Cu1   Cu2   2.661862 S    
C25   C27   1.392430 A    
O2    C2    1.285608 A    
C26   C28   1.398906 A    
C43   C44   1.532386 S    
O12   C52   1.410361 S    
C50   C51   1.525879 S    
C34   H10   1.078922 S    
C63   H77   1.111699 S    
C54   H49   1.109823 S    
C6    C16   1.413714 A    
C57   H62   1.111588 S    
C38   C40   1.404775 A    
N3    H15   1.031887 S    
N7    H59   1.031919 S    
C59   H67   1.111573 S    
C61   H73   1.111043 S    
C43   H24   1.115742 S    
C32   N4    1.434320 S    
C46   H30   1.111093 S    
C45   H27   1.110590 S    
C7    C9    1.395716 A    
C47   C48   1.524632 S    
C56   H57   1.111867 S    
C45   H29   1.108975 S    
C52   H45   1.114668 S    
C33   H9    1.082014 S    
C13   H3    1.083478 S    
C41   H18   1.111919 S    
C21   C23   1.404246 A    
O7    Cu2   1.945298 S    
C14   H4    1.082837 S    
C46   H31   1.115823 S    
C63   C64   1.525239 S    
C57   H61   1.108308 S    
C19   N7    1.425857 S    
C29   C30   1.469170 S    
C25   O13   1.383917 S    
C22   C24   1.398278 A    
O6    C4    1.291360 A    
C44   C45   1.526325 S    
C37   H13   1.082928 S    
C62   C63   1.528638 S    
C47   H32   1.111464 S    
C51   H43   1.110714 S    
C49   H38   1.117057 S    
O7    C3    1.287075 A    
C61   H71   1.109573 S    
O3    Cu2   1.952873 S    
O8    C4    1.289060 A    
O4    C2    1.286921 A    
C44   H26   1.108885 S    
C10   C12   1.404400 A    
C17   O12   1.394975 S    
C64   H80   1.109345 S    
N1    C35   1.364251 A    
O14   C62   1.412004 S    
C19   C29   1.411175 A    
C2    C24   1.450611 S    
O1    Cu1   1.951291 S    
N4    C42   1.449669 S    
C56   H56   1.110312 S    
C48   H36   1.110302 S    
C63   H76   1.109768 S    
C50   H39   1.111647 S    
C54   H50   1.110788 S    
N7    C57   1.446080 S    
C1    C23   1.471722 S    
O6    Cu2   1.946543 S    
C31   N3    1.421648 S    
C21   H5    1.083645 S    
C14   C16   1.392734 A    
C43   H23   1.109410 S    
O3    C1    1.289917 A    
O8    Cu1   1.945301 S    
C54   H48   1.110995 S    
C32   C40   1.421075 A    
C5    C7    1.400491 A    
C57   H60   1.110401 S    
C16   O9    1.383991 S    
C53   C54   1.526022 S    
Cu1   N2    1.999639 S    
C11   C13   1.400680 A    
N6    H55   1.031882 S    
C27   H7    1.083632 S    
N8    H63   1.031734 S    
C46   C47   1.528555 S    
O10   C46   1.417205 S    
C55   H52   1.110300 S    
C51   H42   1.110447 S    
C22   H6    1.084612 S    
C19   C21   1.396451 A    
C20   C22   1.395205 A    
C53   H47   1.111203 S    
C8    C10   1.399530 A    
C60   H70   1.110868 S    
C41   H16   1.110423 S    
O2    Cu2   1.951291 S    
C42   H22   1.109377 S    
C35   H11   1.081660 S    
O9    C43   1.416961 S    
C37   C39   1.405398 A    
O5    Cu1   1.946539 S    
C13   C15   1.393829 A    
C20   C30   1.410297 A    
C5    C15   1.409766 A    
C6    C8    1.404290 A    
C39   C40   1.505439 S    
C42   H21   1.111306 S    
C17   C18   1.346084 D    
C55   H53   1.111823 S    
N3    C41   1.445911 S    
C27   C29   1.399152 A    
C34   N2    1.364368 A    
N6    C56   1.446035 S    
