data_mof_unit_21103.cif
_audit_creation_date              2012-12-11T15:56:38-0500
_audit_creation_method            fapswitch 2.2
_symmetry_space_group_name_H-M    P1
_symmetry_Int_Tables_number       1
_space_group_crystal_system       monoclinic
_cell_length_a                    14.681138
_cell_length_b                    7.177335
_cell_length_c                    13.616907
_cell_angle_alpha                 90.0
_cell_angle_beta                  100.10213
_cell_angle_gamma                 90.0
_cell_volume                      1412.58846865

loop_
_atom_site_label
_atom_site_type_symbol
_atom_type_description
_atom_site_fract_x
_atom_site_fract_y
_atom_site_fract_z
_atom_type_partial_charge
O1    O     O_R   0.336930 0.638190 0.166330 -0.508365
O2    O     O_R   0.663070 0.361810 0.833670 -0.507594
O3    O     O_R   0.163070 0.138190 0.333670 -0.508365
O4    O     O_R   0.836930 0.861810 0.666330 -0.507594
O5    O     O_R   0.147900 0.305430 0.139630 -0.537359
O6    O     O_R   0.852100 0.694570 0.860370 -0.537679
O7    O     O_R   0.352100 0.805430 0.360370 -0.537359
O8    O     O_R   0.647900 0.194570 0.639630 -0.537679
C1    C     C_R   0.115079 0.477567 0.113206 0.702205
C2    C     C_R   0.884822 0.522406 0.886922 0.710083
C3    C     C_R   0.384921 0.977567 0.386794 0.702205
C4    C     C_R   0.615178 0.022406 0.613078 0.710083
O9    O     O_R   0.335280 0.308290 0.154310 -0.543945
O10   O     O_R   0.664720 0.691710 0.845690 -0.545212
O11   O     O_R   0.164720 0.808290 0.345690 -0.543945
O12   O     O_R   0.835280 0.191710 0.654310 -0.545212
O13   O     O_R   0.351790 0.140890 0.348460 -0.535748
O14   O     O_R   0.648210 0.859110 0.651540 -0.534928
O15   O     O_R   0.148210 0.640890 0.151540 -0.535748
O16   O     O_R   0.851790 0.359110 0.848460 -0.534928
C5    C     C_R   0.365187 0.477728 0.134263 0.721181
C6    C     C_R   0.637514 0.522042 0.868752 0.719533
C7    C     C_R   0.134813 0.977728 0.365737 0.721181
C8    C     C_R   0.862486 0.022042 0.631247 0.719533
O17   O     O_3   0.255200 0.472570 0.313680 -0.365573
O18   O     O_3   0.744800 0.527430 0.686320 -0.371976
O19   O     O_3   0.244800 0.972570 0.186320 -0.365573
O20   O     O_3   0.755200 0.027430 0.813680 -0.371976
V1    V     V_3+5 0.249040 0.196590 0.238190 1.473676
V2    V     V_3+5 0.750960 0.803410 0.761810 1.462021
V3    V     V_3+5 0.250960 0.696590 0.261810 1.473676
V4    V     V_3+5 0.749040 0.303410 0.738190 1.462021
C9    C     C_R   0.026201 0.827967 0.465975 -0.306420
C10   C     C_R   0.964527 0.171740 0.523665 -0.309819
C11   C     C_R   0.473799 0.327967 0.034025 -0.306420
C12   C     C_R   0.535473 0.671740 0.976335 -0.309819
H1    H     H_    0.049600 0.693021 0.445674 0.211177
H2    H     H_    0.943085 0.306735 0.546219 0.210324
H3    H     H_    0.450400 0.193021 0.054326 0.211177
H4    H     H_    0.556915 0.806735 0.953780 0.210324
C13   C     C_R   0.956299 0.835338 0.524236 0.494647
C14   C     C_R   0.026245 0.164350 0.455855 0.498015
C15   C     C_R   0.543701 0.335338 0.975764 0.494647
C16   C     C_R   0.473755 0.664350 0.044145 0.498015
C17   C     C_R   0.928743 0.009010 0.559438 -0.222448
C18   C     C_R   0.062708 0.990744 0.430962 -0.221237
C19   C     C_R   0.571257 0.509010 0.940562 -0.222448
C20   C     C_R   0.437292 0.490744 0.069038 -0.221237
C21   C     C_1   0.534047 0.008179 0.532985 -0.182223
C22   C     C_1   0.466188 0.991738 0.466710 -0.184639
C23   C     C_1   0.965953 0.508179 0.967015 -0.182223
C24   C     C_1   0.033812 0.491737 0.033290 -0.184639
O21   O     O_3   0.916138 0.670050 0.546211 -0.539308
C25   C     C_3   0.835636 0.641754 0.474047 -0.209302
H5    H     H_    0.851080 0.642994 0.396906 0.094321
H6    H     H_    0.781938 0.748202 0.480518 0.115616
H7    H     H_    0.806073 0.503469 0.486801 0.150209
O22   O     O_3   0.050944 0.329632 0.415741 -0.536618
C26   C     C_3   0.987806 0.363550 0.326638 -0.219408
H8    H     H_    0.915373 0.371446 0.340166 0.102837
H9    H     H_    0.992791 0.254888 0.269542 0.115337
H10   H     H_    0.004932 0.499182 0.295335 0.138618
O23   O     O_3   0.583862 0.170050 0.953789 -0.539308
C27   C     C_3   0.664364 0.141754 0.025953 -0.209301
H11   H     H_    0.648919 0.142994 0.103093 0.094321
H12   H     H_    0.718062 0.248202 0.019482 0.115616
H13   H     H_    0.693927 0.003469 0.013199 0.150209
O24   O     O_3   0.449056 0.829632 0.084259 -0.536618
C28   C     C_3   0.512194 0.863550 0.173362 -0.219409
H14   H     H_    0.584627 0.871446 0.159834 0.102838
H15   H     H_    0.507209 0.754888 0.230458 0.115337
H16   H     H_    0.495068 0.999182 0.204665 0.138618

loop_
_geom_bond_atom_site_label_1
_geom_bond_atom_site_label_2
_ccdc_geom_bond_type
O2    C6    A    
C28   H16   S    
C11   H3    S    
C23   C24   T    
O1    C5    A    
O14   V2    S    
O19   V1    S    
C11   C15   A    
O3    C7    A    
C28   H15   S    
C10   C14   A    
O1    V3    S    
O8    C4    A    
C5    C20   S    
O15   V3    S    
C27   H11   S    
C14   O22   S    
O11   C7    A    
C4    C21   S    
C15   O23   S    
C26   H8    S    
O12   C8    A    
C10   C17   A    
C10   H2    S    
O21   C25   S    
O7    C3    A    
C9    C18   A    
O10   C6    A    
C13   O21   S    
O5    C1    A    
C1    C24   S    
O10   V2    S    
O12   V4    S    
C8    C17   S    
O20   V2    S    
O6    V2    S    
O7    V3    S    
C6    C19   S    
O5    V1    S    
O16   V4    S    
C28   H14   S    
O4    C8    A    
C25   H6    S    
C16   O24   S    
O4    V2    S    
C12   C16   A    
O6    C2    A    
C11   C20   A    
O9    C5    A    
O23   C27   S    
O8    V4    S    
C27   H13   S    
C2    C23   S    
C12   H4    S    
O3    V1    S    
O13   V1    S    
C9    C13   A    
O11   V3    S    
C12   C19   A    
O2    V4    S    
C21   C22   T    
C14   C18   A    
C26   H9    S    
C4    O14   A    
C7    C18   S    
C3    C22   S    
O18   V4    S    
C3    O13   A    
C26   H10   S    
C13   C17   A    
O22   C26   S    
C25   H5    S    
C15   C19   A    
O17   V3    S    
C1    O15   A    
C9    H1    S    
C16   C20   A    
O9    V1    S    
C2    O16   A    
O24   C28   S    
C25   H7    S    
C27   H12   S    
