data_mof_unit_26681.cif
_audit_creation_date              2012-12-10T17:01:10-0500
_audit_creation_method            fapswitch 2.2
_symmetry_space_group_name_H-M    P1
_symmetry_Int_Tables_number       1
_space_group_crystal_system       triclinic
_cell_length_a                    15.557682
_cell_length_b                    15.427478
_cell_length_c                    9.816672
_cell_angle_alpha                 88.841667
_cell_angle_beta                  61.316432
_cell_angle_gamma                 88.398656
_cell_volume                      2066.14850198

loop_
_atom_site_label
_atom_site_type_symbol
_atom_type_description
_atom_site_fract_x
_atom_site_fract_y
_atom_site_fract_z
_atom_type_partial_charge
C1    C     C_R   0.369433 0.116984 0.560361 0.751399
C2    C     C_R   0.625591 0.878869 0.441967 0.735083
C3    C     C_R   0.626560 0.119333 0.440130 0.736845
C4    C     C_R   0.371553 0.883567 0.560914 0.728170
C5    C     C_R   0.869429 0.616984 0.560363 0.751443
C6    C     C_R   0.125572 0.378849 0.441979 0.735025
C7    C     C_R   0.126556 0.619333 0.440129 0.736806
C8    C     C_R   0.871571 0.383554 0.560915 0.728210
C9    C     C_2   0.511400 0.984429 0.915832 0.341401
C10   C     C_2   0.489058 0.985729 0.084521 0.362131
C11   C     C_2   0.011404 0.484454 0.915827 0.341322
C12   C     C_2   0.989058 0.485746 0.084516 0.362330
C13   C     C_2   0.284180 0.836246 0.596211 0.196363
C14   C     C_2   0.702800 0.182649 0.410634 0.168120
C15   C     C_2   0.691562 0.803942 0.420219 0.157871
C16   C     C_2   0.289766 0.180484 0.589446 0.183620
C17   C     C_2   0.784230 0.336169 0.596247 0.195952
C18   C     C_2   0.202797 0.682653 0.410642 0.168221
C19   C     C_2   0.191511 0.303894 0.420256 0.157878
C20   C     C_2   0.789766 0.680488 0.589441 0.183702
C21   C     C_2   0.291702 0.764183 0.515181 0.225155
C22   C     C_2   0.701838 0.223935 0.532080 0.269370
C23   C     C_2   0.663510 0.740341 0.529939 0.263268
C24   C     C_2   0.235418 0.172132 0.516491 0.261780
C25   C     C_2   0.791763 0.264162 0.515089 0.225391
C26   C     C_2   0.201773 0.723993 0.532087 0.269578
C27   C     C_2   0.163463 0.240328 0.530042 0.263574
C28   C     C_2   0.735478 0.672166 0.516378 0.262052
Cu1   Cu    Cu3+1 0.522650 0.000000 0.349410 0.995876
Cu2   Cu    Cu3+1 0.477350 1.000000 0.650590 0.989452
Cu3   Cu    Cu3+1 0.022650 0.500000 0.349410 0.995942
Cu4   Cu    Cu3+1 0.977350 0.500000 0.650590 0.989386
H1    H     H_    0.625197 0.017077 0.037279 0.155264
H2    H     H_    0.374783 0.019500 0.961657 0.161477
H3    H     H_    0.125200 0.517076 0.037286 0.155285
H4    H     H_    0.874778 0.519490 0.961653 0.161487
N1    N     N_2   0.443290 0.000000 0.876860 -0.283066
N2    N     N_2   0.556710 0.000000 0.123140 -0.284852
N3    N     N_2   0.943290 0.500000 0.876860 -0.283080
N4    N     N_2   0.056710 0.500000 0.123140 -0.284864
O1    O     O_R   0.422430 0.089640 0.419570 -0.508058
O2    O     O_R   0.577570 0.910360 0.580430 -0.495631
O3    O     O_R   0.577570 0.089640 0.580430 -0.532852
O4    O     O_R   0.422430 0.910360 0.419570 -0.508559
O5    O     O_R   0.922430 0.589640 0.419570 -0.507773
O6    O     O_R   0.077570 0.410360 0.580430 -0.495669
O7    O     O_R   0.077570 0.589640 0.580430 -0.532800
O8    O     O_R   0.922430 0.410360 0.419570 -0.508621
O9    O     O_R   0.384170 0.089650 0.673910 -0.595649
O10   O     O_R   0.615830 0.910350 0.326090 -0.588661
O11   O     O_R   0.615830 0.089650 0.326090 -0.583599
O12   O     O_R   0.384170 0.910350 0.673910 -0.594565
O13   O     O_R   0.884170 0.589650 0.673910 -0.595730
O14   O     O_R   0.115830 0.410350 0.326090 -0.588666
O15   O     O_R   0.115830 0.589650 0.326090 -0.583595
O16   O     O_R   0.884170 0.410350 0.673910 -0.594637
N5    N     N_2   0.613609 0.231800 0.677827 -0.403113
H5    H     H_    0.547057 0.237363 0.678850 0.245741
C29   C     C_3   0.613767 0.196474 0.815603 -0.514569
H6    H     H_    0.550999 0.152925 0.876974 0.209412
H7    H     H_    0.604816 0.249919 0.895560 0.244069
H8    H     H_    0.682693 0.159509 0.786849 0.201432
N6    N     N_2   0.382868 0.716755 0.436819 -0.453221
H9    H     H_    0.416373 0.703662 0.503883 0.212212
C30   C     C_3   0.450740 0.741329 0.278135 -0.531210
H10   H     H_    0.518553 0.767278 0.271547 0.196696
H11   H     H_    0.418432 0.791213 0.231877 0.263535
H12   H     H_    0.471305 0.683148 0.203426 0.235600
N7    N     N_2   0.247770 0.098873 0.422200 -0.416587
H13   H     H_    0.270244 0.115819 0.308042 0.287155
C31   C     C_3   0.164631 0.042321 0.483373 -0.630983
H14   H     H_    0.185688 0.981050 0.416592 0.255589
H15   H     H_    0.102848 0.073800 0.473064 0.218229
H16   H     H_    0.140300 0.026514 0.607237 0.243144
N8    N     N_2   0.563283 0.730131 0.646082 -0.474958
H17   H     H_    0.510175 0.763186 0.630516 0.232605
C32   C     C_3   0.543953 0.724479 0.805511 -0.580785
H18   H     H_    0.464427 0.715104 0.883314 0.212904
H19   H     H_    0.565607 0.785207 0.838702 0.256658
H20   H     H_    0.584264 0.668229 0.821841 0.227001
N9    N     N_2   0.113491 0.731932 0.677744 -0.403250
H21   H     H_    0.046970 0.737439 0.678650 0.245677
C33   C     C_3   0.113550 0.696752 0.815683 -0.514602
H22   H     H_    0.050920 0.653038 0.876876 0.209509
H23   H     H_    0.104302 0.750261 0.895693 0.244086
H24   H     H_    0.182560 0.659993 0.787169 0.201315
N10   N     N_2   0.882962 0.216797 0.436547 -0.453161
H25   H     H_    0.916556 0.203714 0.503491 0.212135
C34   C     C_3   0.950728 0.241438 0.277853 -0.531311
H26   H     H_    0.018560 0.267411 0.271163 0.196799
H27   H     H_    0.918328 0.291327 0.231751 0.263508
H28   H     H_    0.971281 0.183285 0.203086 0.235597
N11   N     N_2   0.747796 0.598874 0.422173 -0.416446
H29   H     H_    0.769597 0.615828 0.308225 0.286715
C35   C     C_3   0.664961 0.541975 0.484137 -0.630999
H30   H     H_    0.686089 0.480699 0.417347 0.255813
H31   H     H_    0.602738 0.573118 0.474648 0.218448
H32   H     H_    0.641242 0.526251 0.607808 0.242833
N12   N     N_2   0.063254 0.230187 0.646314 -0.474920
H33   H     H_    0.010134 0.263209 0.630736 0.232615
C36   C     C_3   0.044005 0.224691 0.805713 -0.580782
H34   H     H_    0.964483 0.215351 0.883633 0.212893
H35   H     H_    0.065707 0.285463 0.838691 0.256646
H36   H     H_    0.084322 0.168480 0.822141 0.227061
O17   O     O_3   0.779664 0.194698 0.262435 -0.754497
H37   H     H_    0.772148 0.156200 0.189513 0.334813
O18   O     O_3   0.193681 0.874492 0.691512 -0.736121
H38   H     H_    0.203340 0.927518 0.737654 0.320451
O19   O     O_3   0.271250 0.249585 0.688076 -0.749944
H39   H     H_    0.319834 0.246984 0.726248 0.324716
O20   O     O_3   0.784671 0.800586 0.293705 -0.748545
H40   H     H_    0.793685 0.853626 0.229882 0.334514
O21   O     O_3   0.279724 0.694631 0.262480 -0.754415
H41   H     H_    0.272259 0.656064 0.189585 0.334769
O22   O     O_3   0.693719 0.374278 0.691863 -0.736365
H42   H     H_    0.703372 0.427189 0.738292 0.320392
O23   O     O_3   0.771180 0.749543 0.688172 -0.749968
H43   H     H_    0.819707 0.746906 0.726458 0.324724
O24   O     O_3   0.284592 0.300475 0.293670 -0.748648
H44   H     H_    0.293609 0.353494 0.229794 0.334545
O25   O     O_3   0.395075 0.971685 0.201368 -0.682896
H45   H     H_    0.359332 0.939938 0.158102 0.286903
O26   O     O_3   0.605622 0.967984 0.799359 -0.674886
H46   H     H_    0.642514 0.936982 0.844840 0.301660
O27   O     O_3   0.895073 0.471718 0.201364 -0.682781
H47   H     H_    0.859326 0.439969 0.158105 0.286799
O28   O     O_3   0.105631 0.468036 0.799348 -0.674870
H48   H     H_    0.142528 0.437027 0.844813 0.301611

loop_
_geom_bond_atom_site_label_1
_geom_bond_atom_site_label_2
_ccdc_geom_bond_type
N10   H25   S    
N6    C30   S    
N11   H29   S    
H2    N1    S    
C35   H30   S    
C18   C26   D    
C24   C27   S    
C7    O15   A    
C21   C26   S    
C10   O25   S    
C8    O16   A    
C22   N5    S    
N9    H21   S    
C35   H32   S    
O26   H46   S    
C5    C20   S    
C32   H18   S    
C6    C19   S    
C3    O3    A    
C36   H34   S    
C4    O12   A    
C5    O13   A    
N5    C29   S    
O22   H42   S    
C25   N10   S    
Cu3   N4    S    
Cu4   N3    S    
C4    C13   S    
N7    C31   S    
C2    O10   A    
C14   O17   S    
C33   H22   S    
C30   H11   S    
C22   C25   S    
Cu1   N2    S    
C24   N7    S    
O18   H38   S    
C34   H27   S    
C19   C27   D    
C9    C10   S    
C13   O18   S    
C30   H12   S    
C15   C23   D    
C19   O24   S    
C29   H6    S    
C16   C24   D    
C6    O14   A    
C18   O21   S    
C20   O23   S    
N9    C33   S    
C16   O19   S    
Cu1   O10   S    
C32   H19   S    
C29   H7    S    
C15   O20   S    
C31   H15   S    
C3    O11   A    
C12   O27   S    
C4    O4    A    
C5    O5    A    
Cu2   N1    S    
C28   N11   S    
C7    O7    A    
C12   N4    D    
C11   O28   S    
N8    H17   S    
C8    O8    A    
Cu1   Cu2   S    
Cu3   Cu4   S    
C11   C12   S    
C7    C18   S    
C27   N12   S    
C9    N1    D    
N12   C36   S    
C13   C21   D    
C1    C16   S    
C23   C28   S    
C34   H28   S    
C11   N3    D    
C2    C15   S    
N8    C32   S    
O25   H45   S    
C3    C14   S    
C1    O1    A    
C33   H23   S    
Cu2   O9    S    
C36   H36   S    
Cu3   O8    S    
N10   C34   S    
Cu1   O4    S    
O27   H47   S    
Cu4   O7    S    
Cu2   O3    S    
O28   H48   S    
Cu4   O13   S    
C17   O22   S    
O21   H41   S    
Cu1   O11   S    
C32   H20   S    
Cu2   O12   S    
C29   H8    S    
C6    O6    A    
O20   H40   S    
Cu1   O1    S    
Cu4   O6    S    
H4    N3    S    
H1    N2    S    
C23   N8    S    
C31   H16   S    
O24   H44   S    
C35   H31   S    
C26   N9    S    
C20   C28   D    
O17   H37   S    
C8    C17   S    
N12   H33   S    
C10   N2    D    
C17   C25   D    
C14   C22   D    
H3    N4    S    
C31   H14   S    
O23   H43   S    
N5    H5    S    
N11   C35   S    
C2    O2    A    
C9    O26   S    
Cu3   O14   S    
N7    H13   S    
C21   N6    S    
N6    H9    S    
C33   H24   S    
C36   H35   S    
C30   H10   S    
Cu3   O5    S    
Cu2   O2    S    
Cu3   O15   S    
C34   H26   S    
O19   H39   S    
C1    O9    A    
Cu4   O16   S    
