data_mof_unit_11281.cif
_audit_creation_date              2012-12-10T17:42:47-0500
_audit_creation_method            fapswitch 2.2
_symmetry_space_group_name_H-M    P1
_symmetry_Int_Tables_number       1
_space_group_crystal_system       triclinic
_cell_length_a                    15.085794
_cell_length_b                    13.695638
_cell_length_c                    15.89104
_cell_angle_alpha                 89.918528
_cell_angle_beta                  89.933189
_cell_angle_gamma                 89.96766
_cell_volume                      3283.23492656

loop_
_atom_site_label
_atom_site_type_symbol
_atom_type_description
_atom_site_fract_x
_atom_site_fract_y
_atom_site_fract_z
_atom_type_partial_charge
C1    C     C_R   0.328456 0.500015 0.500394 0.814421
C2    C     C_3   0.594326 0.498445 0.950828 -0.384084
C3    C     C_3   0.594790 0.498619 0.048204 -0.386861
C4    C     C_1   0.498621 0.499942 0.824891 -0.092283
C5    C     C_1   0.499025 0.500358 0.175065 -0.133755
C6    C     C_1   0.499499 0.500248 0.250553 -0.190590
C7    C     C_R   0.814742 0.588739 0.498563 -0.250713
C8    C     C_R   0.768410 0.499942 0.500227 -0.075192
C9    C     C_R   0.814824 0.411148 0.502343 -0.250984
C10   C     C_R   0.907191 0.410544 0.502891 0.107573
C11   C     C_R   0.953560 0.499969 0.501174 0.062318
C12   C     C_R   0.499941 0.500069 0.340108 0.837180
C13   C     C_R   0.907096 0.589374 0.499022 0.107823
C14   C     C_R   0.953925 0.322086 0.505132 -0.216191
C15   C     C_R   0.046351 0.322104 0.505504 -0.216934
C16   C     C_R   0.092968 0.410582 0.503556 0.108379
C17   C     C_R   0.046496 0.499989 0.501498 0.062127
C18   C     C_R   0.092859 0.589418 0.499642 0.108424
C19   C     C_R   0.046136 0.677880 0.497683 -0.217678
C20   C     C_R   0.953719 0.677857 0.497353 -0.216460
C21   C     C_R   0.185322 0.411213 0.503421 -0.249952
C22   C     C_R   0.231622 0.500021 0.501140 -0.072879
C23   C     C_R   0.671546 0.499976 0.499980 0.813578
C24   C     C_R   0.185212 0.588819 0.499560 -0.252319
C25   C     C_R   0.443646 0.791837 0.552855 0.016363
C26   C     C_R   0.442523 0.208061 0.551768 0.017932
C27   C     C_R   0.555721 0.794221 0.448438 0.008192
C28   C     C_R   0.555891 0.205873 0.448602 0.008420
C29   C     C_R   0.555914 0.896948 0.448159 0.024833
C30   C     C_R   0.556121 0.103141 0.448352 0.025296
C31   C     C_R   0.497648 0.948226 0.502177 0.041335
C32   C     C_R   0.497378 0.051756 0.501895 0.043512
C33   C     C_R   0.441192 0.895689 0.556762 -0.065391
C34   C     C_R   0.438203 0.104178 0.553783 -0.075517
C35   C     C_R   0.613437 0.949028 0.395169 -0.208372
C36   C     C_R   0.613710 0.051160 0.395431 -0.208699
C37   C     C_R   0.377614 0.052061 0.606322 0.123808
C38   C     C_R   0.383924 0.947603 0.612718 0.126432
C39   C     C_R   0.499772 0.499949 0.659903 0.833855
C40   C     C_3   0.449953 0.593907 0.048205 -0.007777
C41   C     C_3   0.447452 0.408316 0.048629 -0.007738
C42   C     C_3   0.448431 0.409218 0.950421 -0.386711
C43   C     C_3   0.451010 0.592764 0.949995 -0.387448
C44   C     C_1   0.499175 0.499878 0.749435 -0.183846
C45   C     C_3   0.498475 0.500311 0.082655 0.216565
C46   C     C_3   0.498037 0.500088 0.916950 0.252100
Cu1   Cu    Cu3+1 0.499990 0.597420 0.500010 0.934484
Cu2   Cu    Cu3+1 0.499990 0.402580 0.500010 0.935295
H1    H     H_    0.381658 0.595326 0.926201 0.146189
H2    H     H_    0.379013 0.409108 0.926706 0.146756
H3    H     H_    0.081367 0.253012 0.507190 0.138715
H4    H     H_    0.220816 0.657567 0.498022 0.152508
H5    H     H_    0.081062 0.746992 0.496297 0.139479
H6    H     H_    0.918715 0.746953 0.495730 0.141311
H7    H     H_    0.400648 0.747524 0.591322 0.146853
H8    H     H_    0.401766 0.252336 0.592353 0.146570
H9    H     H_    0.600025 0.754156 0.407406 0.121855
H10   H     H_    0.600526 0.246014 0.407891 0.122160
H11   H     H_    0.658486 0.910675 0.353578 0.131087
H12   H     H_    0.658940 0.089590 0.354015 0.131278
H13   H     H_    0.379554 0.589434 0.069243 0.140699
H14   H     H_    0.377226 0.415191 0.069712 0.140775
H15   H     H_    0.480915 0.342639 0.924656 0.179883
H16   H     H_    0.485409 0.658085 0.923985 0.180848
H17   H     H_    0.631303 0.563249 0.927186 0.166606
H18   H     H_    0.629454 0.432273 0.927530 0.166486
H19   H     H_    0.779071 0.657476 0.496859 0.154580
H20   H     H_    0.779210 0.342407 0.503665 0.155077
N1    N     N_R   0.499930 0.743810 0.499960 -0.186504
N2    N     N_R   0.499930 0.256190 0.499960 -0.186181
O1    O     O_R   0.370250 0.582280 0.500020 -0.592837
O2    O     O_R   0.370250 0.417720 0.500020 -0.592518
O3    O     O_R   0.499990 0.582310 0.379440 -0.579059
O4    O     O_R   0.499990 0.417690 0.379440 -0.578798
O5    O     O_R   0.629730 0.582260 0.499990 -0.589252
O6    O     O_R   0.629730 0.417740 0.499990 -0.589552
O7    O     O_R   0.499980 0.582240 0.620570 -0.581279
O8    O     O_R   0.499980 0.417760 0.620570 -0.580844
H21   H     H_    0.221010 0.342473 0.504984 0.150539
C47   C     C_3   0.303777 0.107531 0.651356 -0.409311
C48   C     C_3   0.332242 0.140516 0.739064 -0.834673
H22   H     H_    0.348826 0.076790 0.779212 0.256713
H23   H     H_    0.391064 0.188990 0.735121 0.247275
H24   H     H_    0.277267 0.181504 0.769276 0.237566
H25   H     H_    0.281864 0.171688 0.614152 0.180678
H26   H     H_    0.241915 0.064170 0.654713 0.185452
C49   C     C_3   0.333535 0.891452 0.681119 -0.409716
C50   C     C_3   0.396354 0.853822 0.749513 -0.838117
H27   H     H_    0.446649 0.802899 0.723812 0.253023
H28   H     H_    0.431147 0.915994 0.779729 0.253023
H29   H     H_    0.357741 0.814430 0.798466 0.233728
H30   H     H_    0.283242 0.935362 0.714257 0.214370
H31   H     H_    0.295324 0.830423 0.653133 0.177995
C51   C     C_3   0.482723 0.309486 0.083493 -0.379551
C52   C     C_3   0.418030 0.225577 0.067483 -0.866670
H32   H     H_    0.353276 0.240793 0.098120 0.251223
H33   H     H_    0.407496 0.214493 0.999053 0.252172
H34   H     H_    0.445387 0.157045 0.094409 0.245845
H35   H     H_    0.547620 0.291071 0.054424 0.206036
H36   H     H_    0.492906 0.313715 0.152541 0.217062
C53   C     C_3   0.487781 0.691587 0.082700 -0.379128
C54   C     C_3   0.425469 0.777632 0.066056 -0.867537
H37   H     H_    0.415529 0.788889 0.997534 0.251318
H38   H     H_    0.360201 0.764733 0.096507 0.251185
H39   H     H_    0.454563 0.845272 0.092781 0.245916
H40   H     H_    0.497592 0.687209 0.151804 0.216714
H41   H     H_    0.553248 0.707668 0.053750 0.206151
H42   H     H_    0.632545 0.562817 0.071386 0.162235
H43   H     H_    0.630809 0.433259 0.071722 0.162271
H44   H     H_    0.919003 0.252976 0.506538 0.141451

loop_
_geom_bond_atom_site_label_1
_geom_bond_atom_site_label_2
_ccdc_geom_bond_type
C53   H41   S    
C49   C50   S    
C24   H4    S    
C16   C21   A    
C12   O4    A    
C27   C29   A    
C34   C37   A    
C41   C42   S    
Cu2   O6    S    
C19   C20   A    
C23   O6    A    
C2    H17   S    
C48   H22   S    
C52   H34   S    
C7    C8    A    
C4    C46   S    
C2    C46   S    
C1    O1    A    
C18   C24   A    
C39   O7    A    
C37   C38   A    
C6    C12   S    
C5    C6    T    
C15   C16   A    
C8    C23   S    
C54   H39   S    
C35   H11   S    
C18   C19   A    
C42   C46   S    
Cu2   O8    S    
Cu1   N1    S    
C47   H26   S    
C40   C53   S    
C26   C34   A    
C40   C43   S    
C41   C51   S    
C8    C9    A    
Cu1   Cu2   S    
C31   C33   A    
C15   H3    S    
C9    C10   A    
C27   N1    A    
C19   H5    S    
C1    C22   S    
C21   C22   A    
C51   C52   S    
C41   H14   S    
Cu2   O2    S    
C48   H23   S    
C53   C54   S    
C43   H16   S    
C40   C45   S    
C37   C47   S    
C43   H1    S    
C1    O2    A    
C39   O8    A    
Cu2   O4    S    
Cu1   O3    S    
C20   H6    S    
C27   H9    S    
C23   O5    A    
C16   C17   A    
C4    C44   T    
C2    H18   S    
C5    C45   S    
C3    C45   S    
C40   H13   S    
C35   C36   A    
C32   C34   A    
C47   H25   S    
C31   C32   A    
C50   H29   S    
C51   H36   S    
C21   H21   S    
C17   C18   A    
C54   H38   S    
Cu1   O1    S    
C42   H2    S    
C50   H28   S    
C10   C14   A    
C26   N2    A    
C22   C24   A    
C25   N1    A    
Cu1   O7    S    
C48   H24   S    
C49   H30   S    
C53   H40   S    
C14   H44   S    
C11   C17   A    
C13   C20   A    
C28   N2    A    
C25   H7    S    
Cu2   N2    S    
C47   C48   S    
C36   H12   S    
C26   H8    S    
C52   H33   S    
C39   C44   S    
C28   H10   S    
C3    H42   S    
C29   C35   A    
C33   C38   A    
C30   C36   A    
C38   C49   S    
C28   C30   A    
C2    C3    S    
C9    H20   S    
Cu1   O5    S    
C29   C31   A    
C30   C32   A    
C11   C13   A    
C51   H35   S    
C3    H43   S    
C49   H31   S    
C54   H37   S    
C43   C46   S    
C10   C11   A    
C7    H19   S    
C7    C13   A    
C50   H27   S    
C52   H32   S    
C41   C45   S    
C14   C15   A    
C12   O3    A    
C42   H15   S    
C25   C33   A    
