data_mof_unit_14935.cif
_audit_creation_date              2012-12-11T17:39:21-0500
_audit_creation_method            fapswitch 2.2
_symmetry_space_group_name_H-M    P1
_symmetry_Int_Tables_number       1
_space_group_crystal_system       triclinic
_cell_length_a                    24.692973
_cell_length_b                    7.217447
_cell_length_c                    22.83919
_cell_angle_alpha                 90.000702
_cell_angle_beta                  96.515997
_cell_angle_gamma                 89.999906
_cell_volume                      4044.11159244

loop_
_atom_site_label
_atom_site_type_symbol
_atom_type_description
_atom_site_fract_x
_atom_site_fract_y
_atom_site_fract_z
_atom_type_partial_charge
O1    O     O_R   0.801910 0.607900 0.699140 -0.500259
O2    O     O_R   0.198090 0.392100 0.300860 -0.500942
O3    O     O_R   0.698090 0.107900 0.800860 -0.500268
O4    O     O_R   0.301910 0.892100 0.199140 -0.500944
O5    O     O_R   0.692320 0.276320 0.686350 -0.533827
O6    O     O_R   0.307680 0.723680 0.313650 -0.536687
O7    O     O_R   0.807680 0.776320 0.813650 -0.533814
O8    O     O_R   0.192320 0.223680 0.186350 -0.536686
C1    C     C_R   0.674590 0.446847 0.670548 0.701031
C2    C     C_R   0.326061 0.553374 0.328723 0.705841
C3    C     C_R   0.825411 0.946848 0.829451 0.701045
C4    C     C_R   0.173938 0.053374 0.171277 0.705840
O9    O     O_R   0.801140 0.278070 0.692060 -0.546938
O10   O     O_R   0.198860 0.721930 0.307940 -0.546732
O11   O     O_R   0.698860 0.778070 0.807940 -0.546920
O12   O     O_R   0.301140 0.221930 0.192060 -0.546727
O13   O     O_R   0.807690 0.109570 0.806600 -0.535220
O14   O     O_R   0.192310 0.890430 0.193400 -0.534713
O15   O     O_R   0.692310 0.609570 0.693400 -0.535212
O16   O     O_R   0.307690 0.390430 0.306600 -0.534711
C5    C     C_R   0.818725 0.447352 0.678776 0.714592
C6    C     C_R   0.182391 0.552153 0.322318 0.716133
C7    C     C_R   0.681275 0.947353 0.821225 0.714592
C8    C     C_R   0.317609 0.052152 0.177681 0.716132
O17   O     O_3   0.752020 0.441970 0.787570 -0.365659
O18   O     O_3   0.247980 0.558030 0.212430 -0.367974
O19   O     O_3   0.747980 0.941970 0.712430 -0.365669
O20   O     O_3   0.252020 0.058030 0.287570 -0.367972
V1    V     V_3+5 0.749620 0.166420 0.743030 1.468599
V2    V     V_3+5 0.250380 0.833580 0.256970 1.451852
V3    V     V_3+5 0.750380 0.666420 0.756970 1.468641
V4    V     V_3+5 0.249620 0.333580 0.243030 1.451856
C9    C     C_R   0.424711 0.180952 0.076086 -0.197329
C10   C     C_R   0.582257 0.804981 0.930411 -0.205936
C11   C     C_R   0.075287 0.680962 0.423912 -0.197332
C12   C     C_R   0.917743 0.304990 0.569587 -0.205934
H1    H     H_    0.440971 0.304656 0.058161 0.165500
H2    H     H_    0.565687 0.678272 0.945907 0.168022
H3    H     H_    0.059027 0.804667 0.441836 0.165497
H4    H     H_    0.934313 0.178282 0.554088 0.168012
C13   C     C_R   0.384400 0.195973 0.114488 -0.244077
C14   C     C_R   0.621569 0.797115 0.890689 -0.244380
C15   C     C_R   0.115598 0.695979 0.385510 -0.244079
C16   C     C_R   0.878431 0.297119 0.609309 -0.244391
H5    H     H_    0.372479 0.332512 0.127696 0.206971
H6    H     H_    0.636482 0.662893 0.878964 0.204847
H7    H     H_    0.127520 0.832517 0.372302 0.206968
H8    H     H_    0.863516 0.162897 0.621030 0.204834
C17   C     C_R   0.359372 0.036836 0.134804 -0.204459
C18   C     C_R   0.640020 0.959437 0.864991 -0.194039
C19   C     C_R   0.140628 0.536840 0.365195 -0.204452
C20   C     C_R   0.859981 0.459438 0.635010 -0.194020
C21   C     C_R   0.375475 0.861573 0.114119 0.413040
C22   C     C_R   0.617941 0.131505 0.881435 0.415205
C23   C     C_R   0.124524 0.361580 0.385880 0.413040
C24   C     C_R   0.882060 0.631508 0.618570 0.415188
C25   C     C_R   0.421616 0.847046 0.082964 0.213200
C26   C     C_R   0.585534 0.139104 0.928826 0.207578
C27   C     C_R   0.078383 0.347055 0.417035 0.213198
C28   C     C_R   0.914466 0.639112 0.571177 0.207568
C29   C     C_R   0.444920 0.007715 0.061722 0.001030
C30   C     C_R   0.564762 0.975067 0.950615 0.008557
C31   C     C_R   0.055078 0.507726 0.438276 0.001035
C32   C     C_R   0.935238 0.475077 0.549385 0.008569
C33   C     C_1   0.488486 0.994999 0.024106 -0.040341
C34   C     C_1   0.523813 0.982537 0.991539 -0.039325
C35   C     C_1   0.011512 0.495013 0.475892 -0.040342
C36   C     C_1   0.976186 0.482551 0.508461 -0.039332
C37   C     C_3   0.954128 0.969139 0.026882 -0.232966
C38   C     C_3   0.045279 0.031578 0.973751 -0.234935
C39   C     C_3   0.545871 0.469134 0.473118 -0.232963
C40   C     C_3   0.454722 0.531585 0.526249 -0.234936
C41   C     C_3   0.991791 0.139795 0.035096 0.368656
C42   C     C_3   0.007605 0.860930 0.965521 0.369097
C43   C     C_3   0.508209 0.639791 0.464904 0.368657
C44   C     C_3   0.492394 0.360934 0.534479 0.369097
H9    H     H_    0.916832 0.946551 0.048876 0.125079
H10   H     H_    0.082578 0.054175 0.951764 0.122129
H11   H     H_    0.583167 0.446541 0.451124 0.125078
H12   H     H_    0.417422 0.554186 0.548236 0.122130
H13   H     H_    0.987835 0.287828 0.942121 0.153284
H14   H     H_    0.011578 0.712840 0.058477 0.153506
H15   H     H_    0.512168 0.787832 0.557880 0.153285
H16   H     H_    0.488420 0.212838 0.441524 0.153507
C45   C     C_1   0.128323 0.043860 0.125278 -0.185019
C46   C     C_1   0.870900 0.956585 0.875615 -0.182662
C47   C     C_1   0.371677 0.543863 0.374722 -0.185021
C48   C     C_1   0.629100 0.456583 0.624385 -0.182657
C49   C     C_3   0.005728 0.842644 0.032534 -0.202304
C50   C     C_3   0.993670 0.158058 0.968084 -0.202531
C51   C     C_3   0.494271 0.342643 0.467466 -0.202298
C52   C     C_3   0.506331 0.658060 0.531917 -0.202529
C53   C     C_3   0.042650 0.016553 0.041105 0.068210
C54   C     C_3   0.956744 0.984158 0.959535 0.066774
C55   C     C_3   0.457349 0.516555 0.458895 0.068205
C56   C     C_3   0.543256 0.484158 0.540465 0.066767
C57   C     C_1   0.089854 0.033233 0.087184 -0.034015
C58   C     C_1   0.909437 0.967362 0.913608 -0.030049
C59   C     C_1   0.410146 0.533235 0.412816 -0.034018
C60   C     C_1   0.590563 0.467361 0.586392 -0.030043
O21   O     O_3   0.344273 0.705482 0.121367 -0.538411
C61   C     C_3   0.315067 0.659393 0.066153 0.075930
H17   H     H_    0.340526 0.568602 0.041018 0.140777
H18   H     H_    0.302528 0.783732 0.038706 0.086888
C62   C     C_3   0.263177 0.555571 0.075482 -0.662425
H19   H     H_    0.236208 0.645536 0.098915 0.226442
H20   H     H_    0.241136 0.516253 0.032168 0.148527
H21   H     H_    0.273037 0.427751 0.101335 0.228646
O22   O     O_3   0.625474 0.290124 0.849090 -0.540632
C63   C     C_3   0.574142 0.353938 0.822125 0.092293
H22   H     H_    0.557522 0.459418 0.850607 0.150074
H23   H     H_    0.543251 0.241157 0.813244 0.090419
C64   C     C_3   0.580926 0.443242 0.763380 -0.711967
H24   H     H_    0.592489 0.335160 0.732637 0.208167
H25   H     H_    0.541832 0.506725 0.744505 0.164560
H26   H     H_    0.612686 0.552440 0.769087 0.230300
O23   O     O_3   0.155726 0.205487 0.378632 -0.538411
C65   C     C_3   0.184928 0.159387 0.433846 0.075935
H27   H     H_    0.159468 0.068582 0.458975 0.140780
H28   H     H_    0.197464 0.283719 0.461299 0.086888
C66   C     C_3   0.236820 0.055577 0.424518 -0.662436
H29   H     H_    0.263793 0.145557 0.401095 0.226428
H30   H     H_    0.258856 0.016232 0.467831 0.148529
H31   H     H_    0.226964 0.927773 0.398655 0.228664
O24   O     O_3   0.874524 0.790125 0.650916 -0.540639
C67   C     C_3   0.925855 0.853984 0.677870 0.092287
H32   H     H_    0.942472 0.959420 0.649372 0.150087
H33   H     H_    0.956746 0.741213 0.686767 0.090424
C68   C     C_3   0.919070 0.943389 0.736602 -0.711906
H34   H     H_    0.907569 0.835318 0.767387 0.208076
H35   H     H_    0.958150 0.007100 0.755435 0.164559
H36   H     H_    0.887263 0.052441 0.730885 0.230376
N1    N     N_2   0.445105 0.669925 0.075323 -0.529397
H37   H     H_    0.459120 0.650505 0.034921 0.247248
C69   C     C_3   0.485114 0.618604 0.123934 -0.542975
H38   H     H_    0.503519 0.482642 0.115185 0.189393
H39   H     H_    0.465527 0.607760 0.165270 0.215001
H40   H     H_    0.518432 0.722919 0.129680 0.192021
N2    N     N_2   0.575068 0.313097 0.954613 -0.537486
H41   H     H_    0.535637 0.330058 0.964468 0.247474
C70   C     C_3   0.615133 0.361382 0.003479 -0.545790
H42   H     H_    0.604399 0.495672 0.022804 0.189266
H43   H     H_    0.656084 0.374491 0.988127 0.215406
H44   H     H_    0.616360 0.254220 0.038579 0.194487
N3    N     N_2   0.054894 0.169936 0.424675 -0.529401
H45   H     H_    0.040878 0.150518 0.465077 0.247248
C71   C     C_3   0.014884 0.118614 0.376064 -0.542969
H46   H     H_    0.996479 0.982652 0.384812 0.189393
H47   H     H_    0.034471 0.107769 0.334728 0.214999
H48   H     H_    0.981566 0.222930 0.370318 0.192023
N4    N     N_2   0.924921 0.813104 0.545385 -0.537507
H49   H     H_    0.964346 0.830066 0.535510 0.247483
C72   C     C_3   0.884838 0.861395 0.496537 -0.545787
H50   H     H_    0.895564 0.995684 0.477206 0.189267
H51   H     H_    0.843896 0.874513 0.511912 0.215411
H52   H     H_    0.883593 0.754233 0.461436 0.194486
N5    N     N_2   0.984009 0.292935 0.074141 -0.522909
H53   H     H_    0.989472 0.255577 0.117978 0.252628
C73   C     C_3   0.934896 0.399369 0.058543 -0.566735
H54   H     H_    0.933191 0.515632 0.090114 0.193296
H55   H     H_    0.898324 0.310748 0.060321 0.191690
H56   H     H_    0.934681 0.458615 0.013631 0.222801
N6    N     N_2   0.015370 0.707872 0.926437 -0.522354
H57   H     H_    0.009776 0.745218 0.882598 0.250998
C74   C     C_3   0.064558 0.601697 0.941910 -0.574035
H58   H     H_    0.066225 0.485378 0.910353 0.192116
H59   H     H_    0.064924 0.542550 0.986854 0.223378
H60   H     H_    0.101078 0.690476 0.939997 0.189421
N7    N     N_2   0.515992 0.792928 0.425860 -0.522909
H61   H     H_    0.510524 0.755572 0.382023 0.252628
C75   C     C_3   0.565108 0.899352 0.441454 -0.566736
H62   H     H_    0.566813 0.015613 0.409883 0.193296
H63   H     H_    0.601677 0.810725 0.439672 0.191688
H64   H     H_    0.565327 0.958599 0.486368 0.222799
N8    N     N_2   0.484628 0.207881 0.573563 -0.522352
H65   H     H_    0.490223 0.245230 0.617402 0.250999
C76   C     C_3   0.435440 0.101711 0.558090 -0.574031
H66   H     H_    0.433772 0.985394 0.589647 0.192118
H67   H     H_    0.435072 0.042561 0.513146 0.223376
H68   H     H_    0.398920 0.190493 0.560004 0.189420

loop_
_geom_bond_atom_site_label_1
_geom_bond_atom_site_label_2
_ccdc_geom_bond_type
C26   N2    S    
O17   V3    S    
C69   H40   S    
C16   H8    S    
C75   H62   S    
C26   C30   A    
N5    H53   S    
C23   C27   A    
O19   V1    S    
O23   C65   S    
O13   V1    S    
N7    H61   S    
C42   C54   S    
O1    C5    A    
C37   H9    S    
C71   H46   S    
C10   C14   A    
C41   C53   S    
C40   C44   S    
O15   V3    S    
C65   H28   S    
C39   H11   S    
N3    H45   S    
C38   C42   S    
C43   C55   S    
C69   H38   S    
N8    C76   S    
C74   H58   S    
O7    C3    A    
H15   C52   S    
C62   H20   S    
C18   C22   A    
H14   C49   S    
C4    C45   S    
C32   C36   S    
C42   C49   S    
O9    V1    S    
C71   H47   S    
C41   C50   S    
C68   H34   S    
C70   H43   S    
C1    C48   S    
C22   C26   A    
C42   N6    S    
C40   C52   S    
C55   C59   S    
C38   H10   S    
C54   C58   S    
C3    C46   S    
C41   N5    S    
C52   C56   S    
C61   C62   S    
O2    V4    S    
C14   H6    S    
C25   C29   A    
O3    V1    S    
C65   H27   S    
C66   H31   S    
C63   H22   S    
C40   C55   S    
O3    C7    A    
C1    O15   A    
C73   H54   S    
C2    O16   A    
C76   H67   S    
C43   N7    S    
N4    H49   S    
C73   H55   S    
C37   C41   S    
O14   V2    S    
H16   C51   S    
C72   H51   S    
C11   C15   A    
C47   C59   T    
C68   H36   S    
C16   C20   A    
O11   C7    A    
C74   H59   S    
N7    C75   S    
C25   N1    S    
C38   C50   S    
O10   V2    S    
C37   C49   S    
C13   C17   A    
N3    C71   S    
C50   C54   S    
O5    V1    S    
O1    V3    S    
C75   H64   S    
C31   C35   S    
C2    C47   S    
O7    V3    S    
C30   C34   S    
C35   C36   T    
O8    V4    S    
O21   C61   S    
C12   H4    S    
C38   C53   S    
C37   C54   S    
O22   C63   S    
C70   H44   S    
C21   O21   S    
C21   C25   A    
O18   V4    S    
C7    C18   S    
C39   C56   S    
C67   C68   S    
C23   O23   S    
C9    H1    S    
C24   C28   A    
C22   O22   S    
C65   C66   S    
N5    C73   S    
C11   H3    S    
O5    C1    A    
C75   H63   S    
N8    H65   S    
O4    C8    A    
O8    C4    A    
C76   H68   S    
C71   H48   S    
C73   H56   S    
O9    C5    A    
C24   O24   S    
C72   H52   S    
C61   H18   S    
C63   C64   S    
C66   H29   S    
C48   C60   T    
C43   C52   S    
C14   C18   A    
H13   C50   S    
C27   N3    S    
C9    C29   A    
O6    V2    S    
C76   H66   S    
C74   H60   S    
O24   C67   S    
C12   C16   A    
C10   C30   A    
C53   C57   S    
C64   H24   S    
O16   V4    S    
C8    C17   S    
C69   H39   S    
C3    O13   A    
C67   H33   S    
N6    C74   S    
C10   H2    S    
C44   N8    S    
O6    C2    A    
N2    H41   S    
O11   V3    S    
O12   V4    S    
C62   H19   S    
C27   C31   A    
C28   C32   A    
C9    C13   A    
C64   H26   S    
O20   V2    S    
C40   H12   S    
C70   H42   S    
C44   C56   S    
C39   C43   S    
N2    C70   S    
O10   C6    A    
N1    H37   S    
C15   C19   A    
C67   H32   S    
C17   C21   A    
C56   C60   S    
O2    C6    A    
C19   C23   A    
N4    C72   S    
C49   C53   S    
C61   H17   S    
C46   C58   T    
C63   H23   S    
C66   H30   S    
N6    H57   S    
C45   C57   T    
C44   C51   S    
C51   C55   S    
C29   C33   S    
C39   C51   S    
O12   C8    A    
C33   C34   T    
C4    O14   A    
C62   H21   S    
N1    C69   S    
C13   H5    S    
C11   C31   A    
C68   H35   S    
C72   H50   S    
C12   C32   A    
C15   H7    S    
C28   N4    S    
C5    C20   S    
O4    V2    S    
C20   C24   A    
C6    C19   S    
C64   H25   S    
