data_mof_unit_55226.cif
_audit_creation_date              2012-12-10T16:51:27-0500
_audit_creation_method            fapswitch 2.2
_symmetry_space_group_name_H-M    P1
_symmetry_Int_Tables_number       1
_space_group_crystal_system       triclinic
_cell_length_a                    7.79654
_cell_length_b                    8.598375
_cell_length_c                    12.637622
_cell_angle_alpha                 92.59199
_cell_angle_beta                  102.453193
_cell_angle_gamma                 93.976908
_cell_volume                      823.694826207

loop_
_atom_site_label
_atom_site_type_symbol
_atom_type_description
_atom_site_fract_x
_atom_site_fract_y
_atom_site_fract_z
_atom_type_partial_charge
C1    C     C_R   0.041721 0.793651 0.491912 0.926719
C2    C     C_R   0.178334 0.541076 0.826547 -0.102064
C3    C     C_2   0.054919 0.952768 0.470708 -0.205188
C4    C     C_R   0.112105 0.518131 0.708790 0.893122
C5    C     C_2   0.933545 0.041346 0.498740 -0.402764
C6    C     C_R   0.953925 0.205190 0.498270 0.975216
C7    C     C_R   0.888763 0.481654 0.292490 0.868486
C8    C     C_R   0.828890 0.318562 0.006839 -0.123415
C9    C     C_R   0.818522 0.443881 0.179046 -0.055155
C10   C     C_R   0.066675 0.590962 0.892377 -0.183580
C11   C     C_R   0.122677 0.598999 0.004658 -0.128096
C12   C     C_R   0.401874 0.500716 0.987483 0.070057
C13   C     C_R   0.284949 0.547045 0.052398 -0.181154
C14   C     C_2   0.682895 0.305667 0.763711 0.422537
C15   C     C_1   0.546201 0.635420 0.777258 0.148017
C16   C     C_1   0.188395 0.003972 0.411981 0.246508
C17   C     C_R   0.351660 0.507601 0.874809 0.046509
C18   C     C_R   0.570911 0.452244 0.029995 0.048246
C19   C     C_R   0.666895 0.377299 0.960759 0.125174
C20   C     C_R   0.608491 0.386165 0.847961 -0.123053
C21   C     C_R   0.481897 0.490720 0.814547 -0.077179
C22   C     C_R   0.652503 0.490221 0.136709 -0.243158
C23   C     C_R   0.903493 0.350733 0.116490 -0.246443
H1    H     H_    0.030333 0.309084 0.151035 0.170537
H2    H     H_    0.659642 0.347076 0.682650 0.119511
H3    H     H_    0.826250 0.994111 0.533409 0.196105
H4    H     H_    0.471806 0.366408 0.426650 0.203665
H5    H     H_    0.526385 0.639886 0.565123 0.212239
H6    H     H_    0.907009 0.260140 0.959017 0.205996
H7    H     H_    0.592347 0.565282 0.186594 0.161735
H8    H     H_    0.935644 0.622926 0.857184 0.168578
H9    H     H_    0.314269 0.541393 0.139584 0.142465
H10   H     H_    0.036241 0.638680 0.054933 0.160589
N1    N     N_2   0.434800 0.456690 0.470850 -0.185804
N2    N     N_2   0.565200 0.543310 0.529150 -0.200617
N3    N     N_1   0.599027 0.753653 0.751388 -0.181343
N4    N     N_1   0.294380 0.043970 0.365210 -0.220535
O1    O     O_R   0.893060 0.738880 0.507150 -0.613466
O2    O     O_R   0.172250 0.711130 0.488470 -0.623338
O3    O     O_R   0.944700 0.520730 0.667600 -0.631601
O4    O     O_R   0.223890 0.492980 0.648920 -0.617682
O5    O     O_R   0.827750 0.288870 0.511530 -0.626500
O6    O     O_R   0.106940 0.261120 0.492850 -0.604580
O7    O     O_R   0.776110 0.507020 0.351080 -0.629373
O8    O     O_R   0.055300 0.479270 0.332400 -0.627688
O9    O     O_2   0.758600 0.186752 0.780476 -0.585195
Zn1   Zn    Zn3+2 0.813580 0.518530 0.512470 0.948697
Zn2   Zn    Zn3+2 0.186420 0.481470 0.487530 0.958265

loop_
_geom_bond_atom_site_label_1
_geom_bond_atom_site_label_2
_ccdc_geom_bond_type
C12   C17   A    
O3    Zn1   S    
C2    C4    S    
C23   H1    S    
O6    Zn2   S    
C13   H9    S    
C19   C20   A    
O7    Zn1   S    
C11   H10   S    
C16   N4    T    
C6    O6    A    
N2    Zn1   S    
C14   O9    D    
C18   C22   A    
C7    O7    A    
C20   C21   A    
C2    C17   A    
C11   C13   A    
O1    Zn1   S    
C1    O1    A    
C8    H6    S    
C7    O8    A    
O4    Zn2   S    
N1    N2    D    
O5    Zn1   S    
H4    N1    S    
C6    O5    A    
C5    C6    S    
C9    C22   A    
C8    C19   A    
N1    Zn2   S    
C4    O4    A    
C1    O2    A    
C5    H3    S    
C2    C10   A    
C14   C20   S    
C15   N3    T    
C15   C21   S    
C8    C23   A    
C12   C13   A    
C18   C19   A    
C10   C11   A    
O8    Zn2   S    
C12   C18   A    
C7    C9    S    
C9    C23   A    
C22   H7    S    
C3    C5    D    
C14   H2    S    
C10   H8    S    
C17   C21   A    
C3    C16   S    
C4    O3    A    
H5    N2    S    
O2    Zn2   S    
C1    C3    S    
