data_mof_unit_32096.cif
_audit_creation_date              2012-12-11T14:50:51-0500
_audit_creation_method            fapswitch 2.2
_symmetry_space_group_name_H-M    P1
_symmetry_Int_Tables_number       1
_space_group_crystal_system       triclinic
_cell_length_a                    11.043414
_cell_length_b                    10.974181
_cell_length_c                    18.851457
_cell_angle_alpha                 89.516102
_cell_angle_beta                  89.257487
_cell_angle_gamma                 59.941722
_cell_volume                      1977.23418527

loop_
_atom_site_label
_atom_site_type_symbol
_atom_type_description
_atom_site_fract_x
_atom_site_fract_y
_atom_site_fract_z
_atom_type_partial_charge
Br1   Br    Br    0.830666 0.373660 0.838341 -0.426328
Br2   Br    Br    0.901868 0.323646 0.677903 -0.286938
Br3   Br    Br    0.213400 0.374537 0.674894 -0.361772
Br4   Br    Br    0.438172 0.084229 0.339680 -0.291538
Br5   Br    Br    0.364734 0.188020 0.174935 -0.401807
Br6   Br    Br    0.902618 0.859636 0.376274 -0.466093
Br7   Br    Br    0.471484 0.949530 0.661548 -0.362300
Br8   Br    Br    0.402210 0.854365 0.833075 -0.407603
C1    C     C_R   0.237871 0.644174 0.609821 0.591619
C2    C     C_R   0.566654 0.258660 0.799189 0.259628
C3    C     C_R   0.546734 0.269521 0.726601 -0.045430
C4    C     C_R   0.652211 0.618503 0.602087 0.635234
C5    C     C_R   0.655045 0.192026 0.678516 0.045591
C6    C     C_R   0.190148 0.544016 0.721972 0.144370
C7    C     C_R   0.175932 0.554228 0.796867 0.269867
C8    C     C_R   0.162215 0.675069 0.831196 0.044272
C9    C     C_R   0.164785 0.781077 0.792150 -0.197979
C10   C     C_R   0.184299 0.769576 0.720636 -0.196211
C11   C     C_R   0.194130 0.655022 0.683970 0.009898
C12   C     C_3   0.565550 0.678300 0.801875 0.043220
C13   C     C_R   0.801873 0.612986 0.295303 0.246764
C14   C     C_R   0.821510 0.631207 0.223591 -0.147119
C15   C     C_R   0.707251 0.712060 0.180041 -0.072241
C16   C     C_R   0.626164 0.230791 0.603680 0.615892
C17   C     C_R   0.571878 0.779426 0.208148 -0.055965
C18   C     C_R   0.548707 0.753802 0.277675 0.203571
C19   C     C_R   0.664215 0.669668 0.322262 0.080764
C20   C     C_R   0.551195 0.147048 0.288761 0.152895
C21   C     C_R   0.536428 0.162848 0.215707 0.139380
C22   C     C_R   0.642919 0.166330 0.175030 -0.065309
C23   C     C_3   0.704730 0.677260 0.811086 -0.020873
C24   C     C_R   0.746981 0.181164 0.208612 -0.114501
C25   C     C_R   0.752962 0.182796 0.281723 0.194123
C26   C     C_R   0.650421 0.171758 0.322855 0.006408
C27   C     C_R   0.047299 0.755091 0.307895 0.156146
C28   C     C_R   0.224615 0.647861 0.401051 0.584070
C29   C     C_R   0.018060 0.770448 0.236040 -0.099188
C30   C     C_R   0.121281 0.682582 0.186824 0.011601
C31   C     C_R   0.252149 0.577241 0.208562 -0.117639
C32   C     C_R   0.282589 0.564380 0.280068 -0.148099
C33   C     C_R   0.181599 0.656262 0.329089 0.059079
C34   C     C_3   0.673336 0.644057 0.676551 0.085076
C35   C     C_R   0.704073 0.100745 0.896199 0.542787
C36   C     C_R   0.729861 0.692501 0.886332 0.587827
C37   C     C_R   0.113975 0.708019 0.904519 0.577662
C38   C     C_R   0.672776 0.108840 0.103476 0.543370
C39   C     C_R   0.732539 0.718526 0.104737 0.546451
C40   C     C_R   0.642645 0.624181 0.392377 0.584823
C41   C     C_R   0.089908 0.710207 0.113152 0.537665
C42   C     C_R   0.618374 0.227767 0.395091 0.571307
C43   C     C_3   0.703195 0.798598 0.764376 0.103607
C44   C     C_3   0.660921 0.792160 0.685546 0.304219
C45   C     C_3   0.824792 0.524829 0.703617 0.378124
C46   C     C_3   0.827178 0.532832 0.784742 0.048514
C47   C     C_3   0.554337 0.645030 0.723383 0.048658
C48   C     C_R   0.789147 0.102285 0.703772 0.214933
C49   C     C_R   0.809252 0.082813 0.777599 -0.121410
C50   C     C_R   0.696482 0.156938 0.825171 0.027868
Cr1   Cr    Cr6+3 0.392930 0.397900 0.502230 1.152281
Cr2   Cr    Cr6+3 0.398240 0.708600 0.501260 1.147195
Cr3   Cr    Cr6+3 0.708800 0.393470 0.496460 1.162427
Cr4   Cr    Cr6+3 0.937620 0.938540 0.007640 1.075681
Cr5   Cr    Cr6+3 0.625150 0.937450 0.994520 1.146889
Cr6   Cr    Cr6+3 0.937990 0.625080 0.001190 1.111297
H1    H     H_    0.811223 0.782804 0.764805 0.128593
H2    H     H_    0.331317 0.509714 0.170424 0.147436
H3    H     H_    0.386630 0.486372 0.297104 0.110603
H4    H     H_    0.928348 0.525161 0.798286 0.203888
H5    H     H_    0.562951 0.597928 0.837117 0.190408
H6    H     H_    0.451130 0.726166 0.702837 0.190999
H7    H     H_    0.471504 0.531784 0.741060 0.327304
H8    H     H_    0.983413 0.014036 0.680466 0.353965
H9    H     H_    0.493640 0.348327 0.890585 0.341745
H10   H     H_    0.190378 0.368713 0.809698 0.393512
H11   H     H_    0.616813 0.000274 0.762076 0.330006
H12   H     H_    0.909213 0.003976 0.797566 0.131608
H13   H     H_    0.003114 0.503356 0.311406 0.345777
H14   H     H_    0.406126 0.722380 0.315457 0.321087
H15   H     H_    0.891875 0.134040 0.354222 0.377912
H16   H     H_    0.739736 0.900941 0.644559 0.358577
H17   H     H_    0.930854 0.541942 0.624574 0.400298
H18   H     H_    0.449805 0.350963 0.706972 0.172775
H19   H     H_    0.147275 0.877319 0.816648 0.212000
H20   H     H_    0.197425 0.850424 0.694561 0.193699
H21   H     H_    0.926342 0.580106 0.201283 0.146221
H22   H     H_    0.482531 0.842131 0.174671 0.207572
H23   H     H_    0.829824 0.183136 0.178039 0.195519
H24   H     H_    0.914948 0.849595 0.218404 0.129715
O1    O     O_R   0.507430 0.255570 0.581420 -0.479480
O2    O     O_R   0.837200 0.593290 0.915250 -0.486900
O3    O     O_R   0.065330 0.635370 0.931590 -0.445762
O4    O     O_R   0.280190 0.527390 0.578910 -0.464107
O5    O     O_R   0.068300 0.828790 0.091860 -0.490524
O6    O     O_R   0.798730 0.057480 0.079370 -0.517150
O7    O     O_R   0.584680 0.080480 0.076790 -0.465001
O8    O     O_R   0.626790 0.809640 0.067050 -0.489297
O9    O     O_R   0.816010 0.596460 0.076500 -0.484668
O10   O     O_R   0.045680 0.638310 0.081070 -0.514404
O11   O     O_3   0.833590 0.833690 0.001120 -0.337135
O12   O     O_R   0.524460 0.695920 0.424060 -0.485518
O13   O     O_R   0.260310 0.739740 0.584580 -0.499054
O14   O     O_R   0.532250 0.695150 0.573830 -0.478230
O15   O     O_R   0.744930 0.503430 0.576380 -0.477194
O16   O     O_R   0.699250 0.276390 0.571950 -0.428285
O17   O     O_R   0.499020 0.256400 0.419850 -0.463060
O18   O     O_R   0.272400 0.528160 0.429140 -0.490571
O19   O     O_R   0.251910 0.740570 0.423020 -0.474358
O20   O     O_3   0.560116 0.515766 0.718791 -0.713986
O21   O     O_3   0.897164 0.034202 0.655877 -0.649287
O22   O     O_3   0.457276 0.347687 0.842896 -0.657123
O23   O     O_R   0.736530 0.504260 0.414810 -0.435061
O24   O     O_3   0.175731 0.449557 0.838459 -0.616754
O25   O     O_3   0.613694 0.930583 0.794143 -0.606902
O26   O     O_3   0.915162 0.536434 0.339066 -0.611144
O27   O     O_3   0.412085 0.804686 0.298486 -0.609203
O28   O     O_3   0.862244 0.191999 0.310518 -0.623807
O29   O     O_3   0.753112 0.805507 0.638132 -0.651697
O30   O     O_3   0.922825 0.558828 0.676490 -0.671564
O31   O     O_R   0.691460 0.277160 0.422180 -0.498266
O32   O     O_3   0.499990 0.499990 0.499980 -0.338255
O33   O     O_R   0.089490 0.825610 0.930610 -0.510387
O34   O     O_R   0.818370 0.054540 0.929880 -0.494604
O35   O     O_R   0.605870 0.077310 0.915530 -0.434945
O36   O     O_R   0.646440 0.806700 0.917570 -0.404250

loop_
_geom_bond_atom_site_label_1
_geom_bond_atom_site_label_2
_ccdc_geom_bond_type
C19   C40   S    
C27   C33   A    
Cr1   O32   S    
Cr3   O31   S    
C29   H24   S    
H14   O27   S    
Cr6   O2    S    
C16   O1    A    
Cr5   O36   S    
H9    O22   S    
C30   C41   S    
C45   C46   S    
Br6   C27   S    
C18   C19   A    
Cr1   O17   S    
C49   H12   S    
C20   C21   A    
C27   C29   A    
C29   C30   A    
Br7   C44   S    
C34   C45   S    
H10   O24   S    
C30   C31   A    
C46   H4    S    
C7    C8    A    
Cr5   O7    S    
C48   C49   A    
C10   C11   A    
C43   H1    S    
C14   H21   S    
Cr5   O11   S    
C18   O27   S    
C4    C34   S    
C35   C50   S    
C41   O10   A    
H16   O29   S    
C1    C11   S    
Cr6   O11   S    
Cr1   O1    S    
C38   O7    A    
C8    C9    A    
C32   H3    S    
C42   O17   A    
C10   H20   S    
C39   O8    A    
C2    O22   S    
H11   O25   S    
C5    C48   A    
C44   O29   S    
Cr6   O10   S    
C13   C19   A    
C20   C26   A    
C13   C14   A    
Cr3   O32   S    
C28   C33   S    
C12   C47   S    
Cr2   O14   S    
C6    C11   A    
C1    O4    A    
Br4   C20   S    
C22   C38   S    
C25   C26   A    
Br5   C21   S    
C3    H18   S    
C40   O12   A    
C26   C42   S    
Cr1   O18   S    
C15   C39   S    
C23   C36   S    
C28   O18   A    
C42   O31   A    
Cr3   O16   S    
C4    O15   A    
C31   C32   A    
C45   O30   S    
C37   O33   A    
C17   C18   A    
C24   H23   S    
Cr5   O8    S    
C36   O36   A    
C43   C44   S    
C5    C16   S    
C16   O16   A    
Br1   C46   S    
C4    O14   A    
C21   C22   A    
C34   C47   S    
C38   O6    A    
C9    C10   A    
Br8   C12   S    
Cr2   O19   S    
C35   O34   A    
Br3   C6    S    
C32   C33   A    
Cr4   O6    S    
C31   H2    S    
C12   H5    S    
Cr3   O15   S    
H13   O26   S    
Cr3   O23   S    
C35   O35   A    
C48   O21   S    
Cr4   O34   S    
C36   O2    A    
H8    O21   S    
Cr6   O9    S    
C25   O28   S    
C2    C50   A    
C6    C7    A    
C7    O24   S    
C43   O25   S    
C23   C43   S    
C13   O26   S    
Cr2   O12   S    
Br2   C45   S    
C8    C37   S    
Cr5   O35   S    
C39   O9    A    
C47   O20   S    
C24   C25   A    
C9    H19   S    
C22   C24   A    
C3    C5    A    
C49   C50   A    
H15   O28   S    
H17   O30   S    
C17   H22   S    
Cr2   O32   S    
Cr1   O4    S    
C15   C17   A    
C23   C46   S    
C37   O3    A    
C47   H6    S    
C2    C3    A    
Cr4   O11   S    
C40   O23   A    
C1    O13   A    
Cr4   O5    S    
C14   C15   A    
Cr6   O3    S    
C41   O5    A    
H7    O20   S    
Cr4   O33   S    
Cr2   O13   S    
C34   C44   S    
C28   O19   A    
C12   C23   S    
