data_mof_unit_36574.cif
_audit_creation_date              2012-12-11T15:36:51-0500
_audit_creation_method            fapswitch 2.2
_symmetry_space_group_name_H-M    P1
_symmetry_Int_Tables_number       1
_space_group_crystal_system       triclinic
_cell_length_a                    15.063169
_cell_length_b                    15.08592
_cell_length_c                    34.76465
_cell_angle_alpha                 91.742991
_cell_angle_beta                  92.095578
_cell_angle_gamma                 59.8562
_cell_volume                      6826.4155229

loop_
_atom_site_label
_atom_site_type_symbol
_atom_type_description
_atom_site_fract_x
_atom_site_fract_y
_atom_site_fract_z
_atom_type_partial_charge
C1    C     C_R   0.612693 0.299326 0.444457 0.577940
C2    C     C_R   0.668137 0.046157 0.759051 0.277778
C3    C     C_R   0.147384 0.719728 0.896841 0.205280
C4    C     C_R   0.183577 0.712323 0.859587 0.258228
C5    C     C_R   0.142401 0.680685 0.828849 -0.037100
C6    C     C_R   0.068389 0.652555 0.835315 0.252572
C7    C     C_R   0.030051 0.662874 0.872125 0.228917
C8    C     C_R   0.244520 0.597337 0.771660 -0.045846
C9    C     C_R   0.253481 0.591929 0.732027 -0.045716
C10   C     C_R   0.185288 0.674998 0.709257 0.001186
C11   C     C_R   0.110390 0.767917 0.726465 0.086840
C12   C     C_R   0.102053 0.772936 0.766858 0.297036
C13   C     C_R   0.613105 0.130531 0.784313 0.023567
C14   C     C_R   0.639755 0.737585 0.159809 0.093131
C15   C     C_R   0.167468 0.686117 0.789005 0.080151
C16   C     C_R   0.242498 0.712557 0.649910 -0.116667
C17   C     C_R   0.267012 0.693759 0.611435 -0.149660
C18   C     C_R   0.196167 0.579793 0.606631 0.253911
C19   C     C_R   0.171315 0.599289 0.645771 0.289383
C20   C     C_R   0.197954 0.663198 0.667493 0.008834
C21   C     C_R   0.248703 0.623943 0.589704 -0.013480
C22   C     C_R   0.674153 0.071820 0.904893 0.009590
C23   C     C_R   0.621810 0.031738 0.883098 -0.127289
C24   C     C_R   0.553962 0.175300 0.635357 0.061605
C25   C     C_R   0.598026 0.055184 0.844400 -0.074392
C26   C     C_2   0.819445 0.525301 0.434688 0.616934
C27   C     C_2   0.088082 0.905511 0.084845 0.609950
C28   C     C_2   0.270793 0.784197 0.212509 0.598113
C29   C     C_2   0.569666 0.375447 0.205178 0.635476
C30   C     C_2   0.839790 0.218104 0.155615 0.637968
C31   C     C_2   0.810494 0.994597 0.288977 0.662681
C32   C     C_2   0.847629 0.188687 0.337230 0.682157
C33   C     C_2   0.473194 0.239768 0.400447 0.655127
C34   C     C_2   0.511519 0.813452 0.680389 0.626089
C35   C     C_R   0.821372 0.608866 0.157793 -0.082517
C36   C     C_2   0.835415 0.463388 0.850621 0.674999
C37   C     C_2   0.038661 0.857073 0.702444 0.638434
C38   C     C_2   0.544461 0.798442 0.181749 0.631944
C39   C     C_2   0.722116 0.975179 0.692181 0.648931
C40   C     C_2   0.483276 0.135426 0.642515 0.606017
C41   C     C_2   0.696136 0.239953 0.831471 0.638561
C42   C     C_2   0.705474 0.836504 0.232475 0.635700
C43   C     C_R   0.558712 0.205206 0.597944 -0.098722
C44   C     C_R   0.684677 0.252432 0.619081 -0.096566
C45   C     C_R   0.680804 0.223545 0.656290 -0.081244
C46   C     C_R   0.614388 0.187453 0.664934 0.009410
C47   C     C_R   0.621206 0.246626 0.589914 0.000040
C48   C     C_R   0.046275 0.739058 0.048649 0.560360
C49   C     C_R   0.732035 0.665632 0.178675 -0.007776
C50   C     C_R   0.745747 0.744867 0.063365 0.576393
C51   C     C_R   0.751015 0.040863 0.050756 0.550767
C52   C     C_R   0.017679 0.721967 0.940058 0.615581
C53   C     C_R   0.715926 0.728908 0.955218 0.600858
C54   C     C_R   0.823470 0.631339 0.119535 -0.123188
C55   C     C_R   0.720916 0.024559 0.942154 0.574459
C56   C     C_R   0.751855 0.562975 0.235495 -0.052444
C57   C     C_R   0.740958 0.554614 0.274613 0.281912
C58   C     C_R   0.718518 0.637953 0.299514 0.032012
C59   C     C_R   0.711453 0.727125 0.285402 -0.103192
C60   C     C_R   0.626740 0.118547 0.826551 -0.016759
C61   C     C_R   0.720798 0.737107 0.246114 0.071874
C62   C     C_R   0.738449 0.654484 0.220795 -0.011677
C63   C     C_R   0.584856 0.693284 0.348767 0.261225
C64   C     C_R   0.593706 0.610298 0.449625 0.584636
C65   C     C_R   0.556734 0.689210 0.385982 -0.099637
C66   C     C_R   0.736638 0.580068 0.405259 0.039505
C67   C     C_R   0.764109 0.583944 0.367427 -0.111642
C68   C     C_R   0.688834 0.638691 0.339220 0.033716
C69   C     C_R   0.630949 0.630410 0.414180 -0.032466
C70   C     C_R   0.103613 0.728916 0.085613 0.006162
C71   C     C_R   0.671063 0.167232 0.848975 0.078361
C72   C     C_R   0.139918 0.637495 0.106120 -0.107291
C73   C     C_R   0.157298 0.635369 0.145746 -0.056997
C74   C     C_R   0.135992 0.725146 0.166011 0.061890
C75   C     C_R   0.110414 0.813787 0.145519 -0.030757
C76   C     C_R   0.302686 0.591928 0.442650 0.548634
C77   C     C_R   0.099931 0.814964 0.105154 0.043263
C78   C     C_R   0.204385 0.751547 0.230356 0.020905
C79   C     C_R   0.207920 0.746090 0.270566 -0.037701
C80   C     C_R   0.146900 0.716680 0.289782 0.008349
C81   C     C_R   0.079014 0.695511 0.268515 -0.034105
C82   C     C_R   0.693953 0.144216 0.888371 0.234765
C83   C     C_R   0.074045 0.700520 0.228435 0.277416
C84   C     C_R   0.138690 0.725813 0.208697 0.014566
C85   C     C_R   0.188782 0.598032 0.343938 -0.141850
C86   C     C_R   0.226728 0.566938 0.381214 -0.107249
C87   C     C_R   0.210002 0.732780 0.395177 -0.079406
C88   C     C_R   0.605832 0.300367 0.553565 0.548518
C89   C     C_R   0.170088 0.765104 0.358016 0.255900
C90   C     C_R   0.164402 0.695495 0.331423 0.024172
C91   C     C_R   0.242542 0.632156 0.406526 -0.026101
C92   C     C_R   0.722227 0.102636 0.086753 -0.043774
C93   C     C_R   0.552012 0.229015 0.769418 -0.102674
C94   C     C_R   0.782291 0.142943 0.102133 -0.097997
C95   C     C_R   0.771314 0.179266 0.140444 0.071668
C96   C     C_R   0.697592 0.174524 0.163347 0.062150
C97   C     C_R   0.630129 0.144579 0.146424 0.256420
C98   C     C_R   0.642491 0.109381 0.108480 -0.059914
C99   C     C_R   0.634921 0.276286 0.225350 0.077383
C100  C     C_R   0.588052 0.606487 0.559125 0.562043
C101  C     C_R   0.630968 0.275487 0.265483 -0.063844
C102  C     C_R   0.687680 0.184941 0.286221 -0.004000
C103  C     C_R   0.753000 0.091653 0.266998 0.109609
C104  C     C_R   0.552272 0.245841 0.730414 -0.074125
C105  C     C_R   0.761564 0.092093 0.226713 0.233135
C106  C     C_R   0.700248 0.183073 0.205815 0.042386
C107  C     C_R   0.754909 0.192196 0.352831 0.031457
C108  C     C_R   0.739670 0.205193 0.392660 0.214154
C109  C     C_R   0.567866 0.228453 0.383945 0.006310
C110  C     C_R   0.587499 0.203817 0.344450 0.233433
C111  C     C_R   0.677772 0.191937 0.328562 -0.032594
C112  C     C_R   0.299086 0.589177 0.552215 0.573265
C113  C     C_R   0.641286 0.238051 0.407650 -0.052203
C114  C     C_R   0.686772 0.686247 0.920686 -0.016369
C115  C     C_R   0.610773 0.164032 0.705381 -0.004170
C116  C     C_R   0.756005 0.586636 0.906490 0.230071
C117  C     C_R   0.751684 0.561330 0.867168 0.044738
C118  C     C_R   0.670756 0.633297 0.843233 -0.044411
C119  C     C_R   0.592207 0.725126 0.859121 0.289425
C120  C     C_R   0.598432 0.750537 0.897832 0.214006
C121  C     C_R   0.601990 0.601126 0.780301 0.330529
C122  C     C_R   0.598836 0.602267 0.739872 0.261053
C123  C     C_R   0.667535 0.621479 0.720081 0.043956
C124  C     C_R   0.734995 0.708568 0.100969 0.017511
C125  C     C_R   0.742183 0.634501 0.740830 0.294458
C126  C     C_R   0.666350 0.062762 0.719209 0.103072
C127  C     C_R   0.743784 0.634936 0.780920 -0.052115
C128  C     C_R   0.673228 0.620145 0.800849 -0.009894
C129  C     C_R   0.724669 0.540917 0.655640 0.267301
C130  C     C_R   0.706242 0.538250 0.616212 -0.079824
C131  C     C_R   0.561676 0.711171 0.619385 -0.126349
C132  C     C_R   0.580030 0.716600 0.659098 0.041227
C133  C     C_R   0.659940 0.628433 0.677648 0.064366
C134  C     C_R   0.621904 0.621174 0.598063 -0.043183
C135  C     C_R   0.068700 0.697283 0.902978 -0.040527
C136  C     C_R   0.640750 0.756581 0.120457 0.239854
Cl1   Cl    Cl    0.522739 0.835995 0.095717 -0.419344
Cl2   Cl    Cl    0.746540 0.442486 0.290874 -0.548692
Cl3   Cl    Cl    0.508274 0.580118 0.714004 -0.577970
Cl4   Cl    Cl    0.515451 0.577981 0.805069 -0.432375
Cl5   Cl    Cl    0.833713 0.652181 0.717457 -0.355334
Cl6   Cl    Cl    0.823999 0.429007 0.677200 -0.469398
Cl7   Cl    Cl    0.490463 0.815214 0.829313 -0.365874
Cl8   Cl    Cl    0.199477 0.759077 0.935624 -0.378269
Cl9   Cl    Cl    0.924928 0.644167 0.878093 -0.503729
Cl10  Cl    Cl    0.107999 0.542979 0.667818 -0.366497
Cl11  Cl    Cl    0.276857 0.747181 0.851067 -0.304896
Cl12  Cl    Cl    0.128836 0.892788 0.345779 -0.444473
Cl13  Cl    Cl    0.003708 0.883283 0.789943 -0.386112
Cl14  Cl    Cl    0.018673 0.610236 0.796551 -0.404896
Cl15  Cl    Cl    0.160797 0.500628 0.579638 -0.431746
Cl16  Cl    Cl    0.751147 0.203032 0.916552 -0.413197
Cl17  Cl    Cl    0.747590 0.921541 0.777591 -0.423671
Cl18  Cl    Cl    0.487027 0.761730 0.314056 -0.476589
Cl19  Cl    Cl    0.983716 0.676390 0.204076 -0.582291
Cl20  Cl    Cl    0.499481 0.187083 0.314213 -0.431035
Cl21  Cl    Cl    0.845168 0.977476 0.201416 -0.478621
Cl22  Cl    Cl    0.847932 0.171710 0.423751 -0.425806
Cl23  Cl    Cl    0.535106 0.140570 0.173262 -0.494789
Cl24  Cl    Cl    0.844684 0.491813 0.938567 -0.400884
Cl25  Cl    Cl    0.493523 0.864473 0.916328 -0.390533
Cr1   Cr    Cr6+3 0.426010 0.422500 0.497000 1.110788
Cr2   Cr    Cr6+3 0.651300 0.426310 0.501970 1.126315
Cr3   Cr    Cr6+3 0.422670 0.651170 0.501050 1.067791
Cr4   Cr    Cr6+3 0.905130 0.911420 0.992650 1.181881
Cr5   Cr    Cr6+3 0.911860 0.682710 0.002320 1.137775
Cr6   Cr    Cr6+3 0.682710 0.906840 0.004710 1.141761
H1    H     H_    0.475642 0.727361 0.392151 0.177347
H2    H     H_    0.099287 0.881746 0.161145 0.189566
H3    H     H_    0.218679 0.785386 0.414724 0.173428
H4    H     H_    0.841343 0.141076 0.084734 0.204268
H5    H     H_    0.593785 0.080655 0.096965 0.193718
H6    H     H_    0.582512 0.346025 0.281147 0.197750
H7    H     H_    0.844279 0.544561 0.359765 0.172457
H8    H     H_    0.798825 0.649134 0.796741 0.227236
H9    H     H_    0.754055 0.467976 0.600344 0.171175
H10   H     H_    0.497591 0.775843 0.605262 0.193763
H11   H     H_    0.764604 0.500216 0.216114 0.177688
H12   H     H_    0.891650 0.551964 0.171925 0.178184
H13   H     H_    0.312299 0.521677 0.718850 0.161167
H14   H     H_    0.294176 0.530430 0.788686 0.159920
H15   H     H_    0.262391 0.762407 0.666498 0.182965
H16   H     H_    0.306572 0.729507 0.599472 0.172689
H17   H     H_    0.605427 0.976434 0.895290 0.189457
H18   H     H_    0.727929 0.231874 0.678800 0.179638
H19   H     H_    0.508196 0.323357 0.719727 0.159297
H20   H     H_    0.508211 0.293902 0.788432 0.150440
H21   H     H_    0.561530 0.019732 0.827802 0.203560
H22   H     H_    0.694331 0.790529 0.305108 0.186405
H23   H     H_    0.147658 0.569026 0.092019 0.159658
H24   H     H_    0.509669 0.200984 0.575231 0.178140
H25   H     H_    0.732610 0.285178 0.613723 0.164355
H26   H     H_    0.866306 0.514658 0.490361 0.361032
H27   H     H_    0.041026 0.056359 0.086856 0.375038
H28   H     H_    0.323155 0.883500 0.214421 0.373601
H29   H     H_    0.455638 0.523118 0.208878 0.373445
H30   H     H_    0.950362 0.251571 0.144550 0.360534
H31   H     H_    0.809497 0.906318 0.331232 0.343726
H32   H     H_    0.943581 0.245838 0.339823 0.382812
H33   H     H_    0.410454 0.202793 0.442954 0.354033
H34   H     H_    0.262499 0.759987 0.286943 0.215681
H35   H     H_    0.377131 0.947487 0.681055 0.364198
H36   H     H_    0.986222 0.356815 0.850620 0.379001
H37   H     H_    0.962915 0.010382 0.695506 0.366119
H38   H     H_    0.429152 0.939852 0.196003 0.361004
H39   H     H_    0.746823 0.837897 0.672549 0.379439
H40   H     H_    0.404522 0.104373 0.680473 0.368892
H41   H     H_    0.674848 0.382643 0.831921 0.395503
H42   H     H_    0.639193 0.989250 0.241388 0.385988
H43   H     H_    0.181019 0.565049 0.160998 0.164297
H44   H     H_    0.030738 0.673621 0.283133 0.147592
H45   H     H_    0.896180 0.591491 0.105103 0.160374
H46   H     H_    0.184641 0.543354 0.324100 0.156154
H47   H     H_    0.249533 0.489609 0.389366 0.204514
O1    O     O_R   0.324990 0.503440 0.453910 -0.488797
O2    O     O_R   0.675430 0.831160 0.051290 -0.439721
O3    O     O_R   0.698870 0.998880 0.039560 -0.499907
O4    O     O_R   0.522030 0.339050 0.458320 -0.480964
O5    O     O_R   0.811290 0.006780 0.950620 -0.437218
O6    O     O_R   0.980960 0.812920 0.953200 -0.457151
O7    O     O_R   0.001480 0.656720 0.955830 -0.441939
O8    O     O_R   0.809240 0.683250 0.968050 -0.434320
O9    O     O_R   0.652500 0.818540 0.967340 -0.452680
O10   O     O_R   0.677620 0.987170 0.961730 -0.503728
O11   O     O_3   0.833240 0.833660 0.999890 -0.308015
O12   O     O_R   0.639980 0.519500 0.542640 -0.494331
O13   O     O_R   0.676180 0.324490 0.458320 -0.439094
O14   O     O_R   0.643570 0.521510 0.464260 -0.457934
O15   O     O_R   0.504630 0.675350 0.460920 -0.506745
O16   O     O_R   0.339850 0.642450 0.459830 -0.503636
O17   O     O_R   0.321120 0.501280 0.538470 -0.445324
O18   O     O_R   0.518440 0.337050 0.536710 -0.495641
O19   O     O_R   0.672300 0.322330 0.542880 -0.498953
O20   O     O_2   0.902402 0.453378 0.425098 -0.450315
O21   O     O_R   0.804065 0.557811 0.473212 -0.667839
O22   O     O_2   0.123775 0.895476 0.052914 -0.419705
O23   O     O_R   0.500750 0.673190 0.545480 -0.503348
O24   O     O_R   0.041839 0.001465 0.103227 -0.674969
O25   O     O_2   0.315296 0.743692 0.182729 -0.473282
O26   O     O_R   0.282395 0.862159 0.230312 -0.596948
O27   O     O_2   0.581506 0.384292 0.171194 -0.484750
O28   O     O_R   0.494673 0.460130 0.225460 -0.664856
O29   O     O_2   0.835746 0.246884 0.189093 -0.470749
O30   O     O_R   0.908451 0.223616 0.131123 -0.675795
O31   O     O_2   0.899864 0.932893 0.281707 -0.407392
O32   O     O_R   0.762649 0.974442 0.318456 -0.656914
O33   O     O_2   0.895661 0.128943 0.311313 -0.431405
O34   O     O_R   0.336260 0.640450 0.538210 -0.511333
O35   O     O_R   0.880090 0.254782 0.352600 -0.575590
O36   O     O_2   0.389768 0.292534 0.384427 -0.464884
O37   O     O_R   0.479910 0.189108 0.434393 -0.653440
O38   O     O_2   0.537686 0.831907 0.711931 -0.435372
O39   O     O_R   0.416930 0.885012 0.663902 -0.676087
O40   O     O_2   0.816726 0.419720 0.824098 -0.479747
O41   O     O_R   0.936564 0.422532 0.864506 -0.547269
O42   O     O_2   0.002652 0.843564 0.672231 -0.437141
O43   O     O_R   0.012732 0.956512 0.714164 -0.595475
O44   O     O_2   0.517825 0.756319 0.204401 -0.459088
O45   O     O_3   0.499990 0.499990 0.500010 -0.285222
O46   O     O_R   0.488071 0.904915 0.177648 -0.581250
O47   O     O_2   0.777400 0.978412 0.668039 -0.469608
O48   O     O_R   0.708770 0.890193 0.693593 -0.576495
O49   O     O_2   0.450609 0.105346 0.615461 -0.465304
O50   O     O_R   0.452559 0.133037 0.679756 -0.669745
O51   O     O_2   0.750528 0.214195 0.803319 -0.428007
O52   O     O_R   0.655916 0.338699 0.847095 -0.597667
O53   O     O_2   0.742122 0.840946 0.202300 -0.406066
O54   O     O_R   0.647537 0.925956 0.254179 -0.618490
O55   O     O_R   0.834210 0.019400 0.034570 -0.487660
O56   O     O_R   0.002210 0.824620 0.031030 -0.457571
O57   O     O_R   0.024400 0.669340 0.039790 -0.518782
O58   O     O_R   0.830490 0.694950 0.045870 -0.513132

loop_
_geom_bond_atom_site_label_1
_geom_bond_atom_site_label_2
_ccdc_geom_bond_type
C26   O21   S    
C8    H14   S    
C89   Cl12  S    
C63   C65   A    
H30   O30   S    
C101  C102  A    
C87   C91   A    
H42   O54   S    
C18   C21   A    
C119  Cl7   S    
C73   C74   A    
C123  C125  A    
C41   O51   D    
C95   C96   A    
C131  C134  A    
Cr5   O8    S    
Cr1   O4    S    
C97   C98   A    
C131  H10   S    
C92   C98   A    
C13   C60   S    
C56   H11   S    
C45   C46   A    
C51   O3    A    
H40   O50   S    
H39   O48   S    
C65   H1    S    
C112  O17   A    
Cr4   O55   S    
C46   C115  S    
C123  C133  S    
C34   O39   S    
Cr2   O19   S    
C35   C49   A    
C22   C82   A    
C121  Cl4   S    
C48   C70   S    
C37   O43   S    
C122  Cl3   S    
C116  Cl24  S    
C86   C91   A    
C28   O25   D    
C65   C69   A    
C5    C6    A    
C80   C81   A    
C40   O49   D    
C41   O52   S    
Cr6   O11   S    
C66   C69   A    
C83   Cl19  S    
C107  C111  A    
C67   H7    S    
C97   Cl23  S    
Cr2   O45   S    
C116  C117  A    
C93   C104  A    
Cr2   O14   S    
Cr3   O16   S    
C18   C19   A    
Cr5   O57   S    
C39   O47   D    
C33   O37   S    
C2    C13   A    
C17   H16   S    
C118  C119  A    
C96   C106  S    
Cr4   O6    S    
C110  C111  A    
C101  H6    S    
H32   O35   S    
C105  Cl21  S    
C19   C20   A    
C48   O57   A    
C125  Cl5   S    
C132  C133  A    
C79   H34   S    
C32   C107  S    
Cr4   O11   S    
C75   H2    S    
C29   O28   S    
C34   O38   D    
C31   O32   S    
C1    O4    A    
C25   C60   A    
Cr2   O12   S    
C28   C78   S    
C9    C10   A    
C61   C62   A    
C44   C47   A    
C109  C113  A    
C41   C71   S    
C71   C82   A    
C98   H5    S    
H35   O39   S    
C26   O20   D    
C54   H45   S    
C66   C67   A    
C48   O56   A    
C52   O7    A    
C39   C126  S    
C30   O30   S    
C35   C54   A    
C127  H8    S    
C102  C111  S    
C130  C134  A    
C118  C128  S    
Cr6   O2    S    
Cr2   O13   S    
C38   O44   D    
Cr5   O7    S    
C72   H23   S    
C81   C83   A    
C100  C134  S    
C6    C7    A    
H36   O41   S    
Cr1   O1    S    
C42   O53   D    
C35   H12   S    
C59   C61   A    
C19   Cl10  S    
C52   O6    A    
Cr4   O56   S    
C29   C99   S    
C32   O33   D    
C102  C103  A    
C36   O41   S    
C73   H43   S    
C50   C124  S    
C40   O50   S    
C121  C128  A    
C74   C75   A    
C10   C20   S    
C124  C136  A    
C78   C79   A    
C8    C9    A    
C55   O5    A    
C129  Cl6   S    
C60   C71   A    
C130  H9    S    
C53   O8    A    
C85   C86   A    
C87   H3    S    
C32   O35   S    
C36   O40   D    
C67   C68   A    
C13   C93   A    
Cr3   O15   S    
C26   C66   S    
C108  C113  A    
C3    Cl8   S    
C86   H47   S    
C7    C135  A    
C30   C95   S    
C88   O19   A    
C25   H21   S    
C85   H46   S    
C94   H4    S    
C14   C38   S    
C104  C115  A    
C75   C77   A    
H37   O43   S    
H28   O26   S    
C16   H15   S    
C83   C84   A    
C12   C15   A    
C50   O2    A    
C16   C20   A    
C37   O42   D    
C96   C97   A    
C92   C94   A    
C100  O23   A    
C103  C105  A    
C114  C120  A    
C64   C69   S    
H27   O24   S    
C119  C120  A    
C100  O12   A    
C36   C117  S    
C115  C126  A    
C42   C61   S    
Cr6   O9    S    
C121  C122  A    
C56   C62   A    
C9    H13   S    
C120  Cl25  S    
C51   C92   S    
C27   O22   D    
C2    C126  A    
C58   C68   S    
C99   C101  A    
C50   O58   A    
Cr1   O45   S    
C8    C15   A    
C30   O29   D    
C51   O55   A    
C76   O16   A    
C129  C133  A    
C59   H22   S    
C33   C109  S    
C56   C57   A    
C107  C108  A    
C42   O54   S    
C18   Cl15  S    
C43   H24   S    
C16   C17   A    
C93   H20   S    
C125  C127  A    
C64   O14   A    
C21   C112  S    
C33   O36   D    
C53   C114  S    
C11   C37   S    
C129  C130  A    
C112  O34   A    
C99   C106  A    
C54   C124  A    
C63   C68   A    
C49   C62   S    
C81   H44   S    
C58   C59   A    
Cr5   O58   S    
C12   Cl13  S    
C88   O18   A    
C31   O31   D    
C44   C45   A    
Cr1   O17   S    
C63   Cl18  S    
C74   C84   S    
C72   C73   A    
C27   C77   S    
C39   O48   S    
C38   O46   S    
C114  C116  A    
C85   C90   A    
C22   C55   S    
C2    Cl17  S    
C104  H19   S    
C105  C106  A    
C6    Cl14  S    
C53   O9    A    
C24   C46   A    
C47   C88   S    
C87   C89   A    
C1    O13   A    
C89   C90   A    
C23   H17   S    
H33   O37   S    
C117  C118  A    
C28   O26   S    
C4    Cl11  S    
C76   O1    A    
C45   H18   S    
C57   C58   A    
C64   O15   A    
C14   C136  A    
C24   C43   A    
H31   O32   S    
Cr5   O11   S    
H41   O52   S    
C24   C40   S    
Cr6   O3    S    
C57   Cl2   S    
C3    C135  A    
C1    C113  S    
C80   C90   S    
C94   C95   A    
Cr3   O34   S    
Cr1   O18   S    
Cr6   O10   S    
C5    C15   S    
C43   C47   A    
C110  Cl20  S    
C10   C11   A    
Cr4   O5    S    
C76   C91   S    
C34   C132  S    
C79   C80   A    
C14   C49   A    
C78   C84   A    
C4    C5    A    
C23   C25   A    
C108  Cl22  S    
C27   O24   S    
C44   H25   S    
Cr3   O45   S    
H29   O28   S    
Cr3   O23   S    
C127  C128  A    
C52   C135  S    
C29   O27   D    
C22   C23   A    
C136  Cl1   S    
C70   C72   A    
C7    Cl9   S    
C122  C123  A    
C109  C110  A    
C131  C132  A    
H26   O21   S    
C82   Cl16  S    
C3    C4    A    
C11   C12   A    
C31   C103  S    
C55   O10   A    
C70   C77   A    
H38   O46   S    
C17   C21   A    
