data_mof_unit_15311.cif
_audit_creation_date              2012-10-26T21:26:49-0400
_audit_creation_method            fapswitch 2.2
_symmetry_space_group_name_H-M    P1
_symmetry_Int_Tables_number       1
_space_group_crystal_system       triclinic
_cell_length_a                    16.530581
_cell_length_b                    16.527699
_cell_length_c                    28.742481
_cell_angle_alpha                 89.861537
_cell_angle_beta                  89.975019
_cell_angle_gamma                 90.125066
_cell_volume                      7852.76174032

loop_
_atom_site_label
_atom_site_type_symbol
_atom_type_description
_atom_site_fract_x
_atom_site_fract_y
_atom_site_fract_z
_atom_type_partial_charge
C1    C     C_1   0.999552 0.129110 0.194908 0.046373
C2    C     C_3   0.999487 0.001456 0.749908 -0.016846
C3    C     C_3   0.808249 0.486877 0.851541 -0.367382
C4    C     C_3   0.205243 0.704733 0.084768 0.029359
C5    C     C_3   0.253206 0.658975 0.048085 -0.363564
C6    C     C_3   0.425842 0.121201 0.344376 0.020206
C7    C     C_3   0.486128 0.189922 0.350517 -0.370071
C8    C     C_3   0.705135 0.795393 0.584405 0.029032
C9    C     C_3   0.659412 0.747566 0.547588 -0.363178
C10   C     C_3   0.187317 0.186514 0.163109 0.005793
C11   C     C_3   0.247964 0.151660 0.197443 -0.367841
C12   C     C_3   0.817684 0.833005 0.822978 -0.018777
C13   C     C_R   0.996679 0.197391 0.163625 -0.047606
C14   C     C_3   0.772211 0.910623 0.811866 -0.367939
C15   C     C_3   0.811116 0.188193 0.663110 0.005571
C16   C     C_3   0.847339 0.248197 0.697322 -0.365088
C17   C     C_3   0.167092 0.817540 0.323372 -0.017529
C18   C     C_3   0.089380 0.772089 0.312177 -0.369019
C19   C     C_3   0.812846 0.814437 0.161892 0.005390
C20   C     C_3   0.751011 0.848725 0.195640 -0.368809
C21   C     C_3   0.182040 0.176182 0.818244 -0.019198
C22   C     C_3   0.232932 0.102122 0.807095 -0.366918
C23   C     C_3   0.182354 0.810779 0.662011 0.002577
C24   C     C_R   0.997047 0.803661 0.836811 -0.047491
C25   C     C_3   0.149027 0.749220 0.696455 -0.366556
C26   C     C_3   0.832835 0.182140 0.321976 -0.018632
C27   C     C_3   0.910868 0.227165 0.310794 -0.369598
C28   C     C_3   0.187517 0.816294 0.837686 0.006790
C29   C     C_3   0.248441 0.851445 0.803487 -0.367291
C30   C     C_3   0.817420 0.166150 0.177127 -0.018621
C31   C     C_3   0.772709 0.087900 0.188286 -0.367941
C32   C     C_3   0.812972 0.812322 0.337755 0.005188
C33   C     C_3   0.847733 0.751077 0.303849 -0.368522
C34   C     C_3   0.182266 0.188785 0.666810 0.007556
C35   C     C_R   0.801180 0.997035 0.664035 -0.048024
C36   C     C_3   0.115648 0.249003 0.678051 -0.377757
C37   C     C_3   0.812365 0.184294 0.839006 0.006031
C38   C     C_3   0.749728 0.149687 0.805794 -0.369283
C39   C     C_3   0.182637 0.831349 0.177969 -0.018702
C40   C     C_3   0.228143 0.908999 0.189218 -0.367962
C41   C     C_3   0.183436 0.187589 0.339338 0.000452
C42   C     C_3   0.149751 0.250416 0.305880 -0.366222
C43   C     C_3   0.832710 0.817934 0.677535 -0.018301
C44   C     C_3   0.911112 0.774014 0.688843 -0.369307
C45   C     C_R   0.196684 0.997101 0.337194 -0.048426
C46   C     C_R   0.003289 0.801631 0.163753 -0.047315
C47   C     C_R   0.002739 0.200052 0.835305 -0.048134
C48   C     C_R   0.194202 0.001074 0.661263 -0.049250
C49   C     C_R   0.801755 0.002922 0.336162 -0.048076
C50   C     C_R   0.999815 0.612566 0.939027 0.600141
C51   C     C_1   0.999722 0.871966 0.805456 0.046135
C52   C     C_R   0.999698 0.387589 0.061032 0.600826
C53   C     C_R   0.387361 0.999792 0.439158 0.580705
C54   C     C_R   0.612230 0.999747 0.561082 0.602885
C55   C     C_R   0.000212 0.387809 0.938887 0.600085
C56   C     C_R   0.000284 0.612347 0.061018 0.601178
C57   C     C_R   0.612294 0.000339 0.438935 0.601946
C58   C     C_R   0.387567 0.999915 0.560923 0.576263
C59   C     C_R   0.064559 0.247818 0.159386 0.216927
C60   C     C_R   0.928300 0.790596 0.864947 0.225348
C61   C     C_R   0.750721 0.064681 0.659774 0.216598
C62   C     C_1   0.869324 0.000170 0.695276 0.046246
C63   C     C_R   0.209477 0.928226 0.365288 0.223498
C64   C     C_R   0.935003 0.751896 0.159086 0.216850
C65   C     C_R   0.072476 0.213875 0.862356 0.224846
C66   C     C_R   0.244496 0.933154 0.657570 0.214469
C67   C     C_R   0.789485 0.071774 0.364169 0.224170
C68   C     C_R   0.065088 0.753760 0.841150 0.216592
C69   C     C_R   0.928075 0.209727 0.135347 0.225289
C70   C     C_R   0.751444 0.935011 0.340699 0.217455
C71   C     C_R   0.205860 0.068020 0.631875 0.224405
C72   C     C_R   0.933977 0.248518 0.840827 0.216863
C73   C     C_1   0.128922 0.999525 0.305630 0.044298
C74   C     C_R   0.072191 0.789041 0.135755 0.225124
C75   C     C_R   0.246192 0.065549 0.341833 0.215447
C76   C     C_R   0.789182 0.928494 0.635712 0.223666
C77   C     C_R   0.063820 0.312706 0.127771 0.199685
C78   C     C_R   0.930203 0.729677 0.899671 0.224087
C79   C     C_R   0.686105 0.063729 0.628078 0.199488
C80   C     C_R   0.270161 0.930163 0.400033 0.215188
C81   C     C_R   0.935723 0.687264 0.127466 0.199856
C82   C     C_R   0.070728 0.273445 0.897663 0.224172
C83   C     C_R   0.310106 0.934024 0.626374 0.205089
C84   C     C_1   0.000533 0.869637 0.195088 0.045755
C85   C     C_R   0.728904 0.070084 0.398997 0.223058
C86   C     C_R   0.064287 0.688585 0.872595 0.199745
C87   C     C_R   0.929978 0.270517 0.100569 0.223978
C88   C     C_R   0.686659 0.936010 0.372275 0.199521
C89   C     C_R   0.266215 0.065878 0.597457 0.200328
C90   C     C_R   0.934898 0.312910 0.872597 0.199899
C91   C     C_R   0.070292 0.728656 0.100887 0.224145
C92   C     C_R   0.311194 0.064790 0.373242 0.190350
C93   C     C_R   0.728791 0.930294 0.600822 0.223207
C94   C     C_R   0.998091 0.322491 0.096837 -0.057692
C95   C     C_1   0.999848 0.131798 0.804222 0.045670
C96   C     C_R   0.998388 0.678052 0.903389 -0.057692
C97   C     C_R   0.676886 0.998221 0.597008 -0.057856
C98   C     C_R   0.321815 0.998479 0.403751 -0.071399
C99   C     C_R   0.001848 0.677203 0.096834 -0.057075
C100  C     C_R   0.001652 0.323533 0.902728 -0.057840
C101  C     C_R   0.320769 0.999999 0.595474 -0.072581
C102  C     C_R   0.677045 0.001932 0.403015 -0.058751
C103  C     C_1   0.000228 0.071149 0.220360 -0.009037
C104  C     C_1   0.000143 0.929824 0.779877 -0.010864
C105  C     C_1   0.927339 0.001120 0.720576 -0.009644
C106  C     C_1   0.127821 0.000867 0.693761 0.048424
C107  C     C_1   0.071410 0.999816 0.279931 -0.010505
C108  C     C_1   0.999864 0.927444 0.220519 -0.010150
C109  C     C_1   0.999332 0.073636 0.779104 -0.004232
C110  C     C_1   0.070843 0.001210 0.719870 -0.004931
C111  C     C_1   0.927880 0.999014 0.279543 -0.010841
C112  C     C_3   0.118204 0.428311 0.156380 0.015942
C113  C     C_3   0.187042 0.488695 0.150866 -0.368455
C114  C     C_3   0.795460 0.704925 0.916194 0.029332
C115  C     C_3   0.747525 0.659502 0.953242 -0.362847
C116  C     C_3   0.570409 0.116516 0.657353 0.010452
C117  C     C_1   0.869924 0.999819 0.304913 0.044650
C118  C     C_3   0.507722 0.182832 0.651046 -0.359164
C119  C     C_3   0.294018 0.795279 0.416608 0.030595
C120  C     C_3   0.339689 0.747408 0.453474 -0.364608
C121  C     C_3   0.879731 0.572000 0.155880 0.016225
C122  C     C_3   0.810951 0.511804 0.149655 -0.368468
C123  C     C_3   0.205747 0.299597 0.912649 0.029852
C124  C     C_3   0.254376 0.344675 0.949380 -0.364253
C125  C     C_3   0.424716 0.880372 0.656702 0.018362
C126  C     C_3   0.487135 0.813765 0.650805 -0.371042
C127  C     C_3   0.704983 0.204959 0.415024 0.027427
C128  C     C_3   0.999889 0.999297 0.250070 -0.017265
C129  C     C_3   0.659679 0.253030 0.451839 -0.362584
C130  C     C_3   0.119041 0.573637 0.843692 0.015953
C131  C     C_3   0.189289 0.514963 0.848086 -0.367631
C132  C     C_3   0.795199 0.294257 0.084004 0.029228
C133  C     C_3   0.747422 0.339825 0.047058 -0.362825
C134  C     C_3   0.570586 0.881953 0.344042 0.016447
C135  C     C_3   0.509940 0.813421 0.349911 -0.367655
C136  C     C_3   0.225863 0.109848 0.526355 0.025657
C137  C     C_3   0.236158 0.176169 0.490037 -0.350436
C138  C     C_3   0.877795 0.427955 0.845041 0.016642
Cu1   Cu    Cu3+1 0.919200 0.500000 0.000000 0.935230
Cu2   Cu    Cu3+1 0.080800 0.500000 0.000000 0.939012
Cu3   Cu    Cu3+1 0.500000 0.919200 0.500000 0.931746
Cu4   Cu    Cu3+1 0.500000 0.080800 0.500000 0.946001
H1    H     H_    0.117551 0.406341 0.193051 0.147252
H2    H     H_    0.777555 0.601518 0.962059 0.167916
H3    H     H_    0.072110 0.732534 0.341864 0.155936
H4    H     H_    0.780579 0.777883 0.135231 0.174771
H5    H     H_    0.843445 0.866668 0.144495 0.135229
H6    H     H_    0.781909 0.887977 0.221433 0.194873
H7    H     H_    0.705910 0.885533 0.176382 0.083232
H8    H     H_    0.719220 0.798860 0.214126 0.175317
H9    H     H_    0.223041 0.228751 0.823139 0.099260
H10   H     H_    0.143534 0.189257 0.787376 0.114762
H11   H     H_    0.192990 0.049093 0.800913 0.163076
H12   H     H_    0.269607 0.113472 0.775361 0.077700
H13   H     H_    0.592727 0.118320 0.693895 0.149443
H14   H     H_    0.274219 0.088475 0.836542 0.155794
H15   H     H_    0.218784 0.778407 0.635372 0.171974
H16   H     H_    0.129653 0.840422 0.644724 0.129798
H17   H     H_    0.109582 0.780129 0.722102 0.194958
H18   H     H_    0.112623 0.703069 0.677759 0.081716
H19   H     H_    0.199365 0.718672 0.715039 0.176372
H20   H     H_    0.784084 0.227140 0.327549 0.100322
H21   H     H_    0.815951 0.145872 0.290889 0.110625
H22   H     H_    0.960320 0.183237 0.304291 0.163814
H23   H     H_    0.902534 0.265140 0.279242 0.077025
H24   H     H_    0.539966 0.057392 0.650934 0.089149
H25   H     H_    0.928080 0.266730 0.340369 0.154700
H26   H     H_    0.220466 0.779416 0.863955 0.173968
H27   H     H_    0.157397 0.868091 0.855508 0.135588
H28   H     H_    0.216869 0.891022 0.778080 0.193961
H29   H     H_    0.294074 0.888099 0.822448 0.083185
H30   H     H_    0.279714 0.802036 0.784568 0.175583
H31   H     H_    0.772221 0.214672 0.171322 0.100098
H32   H     H_    0.853379 0.183270 0.208311 0.109710
H33   H     H_    0.816816 0.038640 0.194978 0.163983
H34   H     H_    0.734545 0.096079 0.219721 0.076573
H35   H     H_    0.483958 0.181883 0.614908 0.184690
H36   H     H_    0.733378 0.070490 0.158623 0.156744
H37   H     H_    0.775797 0.779630 0.364068 0.174187
H38   H     H_    0.864960 0.842363 0.355571 0.133222
H39   H     H_    0.887607 0.782392 0.278421 0.194477
H40   H     H_    0.883994 0.705438 0.323047 0.082408
H41   H     H_    0.798149 0.719842 0.284944 0.175768
H42   H     H_    0.235167 0.222225 0.652372 0.155684
H43   H     H_    0.200294 0.158958 0.700067 0.102737
H44   H     H_    0.062576 0.216772 0.693023 0.155382
H45   H     H_    0.137993 0.293771 0.703799 0.076139
H46   H     H_    0.456696 0.173005 0.675583 0.076990
H47   H     H_    0.096769 0.281429 0.645970 0.162491
H48   H     H_    0.780674 0.220177 0.866147 0.174889
H49   H     H_    0.843877 0.132233 0.855868 0.135138
H50   H     H_    0.780079 0.111098 0.779511 0.194980
H51   H     H_    0.705493 0.112141 0.825391 0.083558
H52   H     H_    0.717023 0.199399 0.787850 0.174228
H53   H     H_    0.227331 0.782344 0.172317 0.100092
H54   H     H_    0.146144 0.814460 0.209056 0.110111
H55   H     H_    0.184555 0.958684 0.195895 0.163597
H56   H     H_    0.266067 0.900078 0.220686 0.076192
H57   H     H_    0.535414 0.242865 0.658036 0.150272
H58   H     H_    0.267815 0.926265 0.159609 0.156950
H59   H     H_    0.219991 0.219039 0.366331 0.166044
H60   H     H_    0.130964 0.156840 0.356367 0.127277
H61   H     H_    0.110682 0.220350 0.279663 0.194974
H62   H     H_    0.112934 0.295188 0.325294 0.080577
H63   H     H_    0.199939 0.282459 0.287855 0.173883
H64   H     H_    0.784547 0.772219 0.671663 0.100887
H65   H     H_    0.815039 0.853642 0.708680 0.109926
H66   H     H_    0.960033 0.818625 0.695589 0.163262
H67   H     H_    0.902859 0.735696 0.720284 0.076606
H68   H     H_    0.333042 0.799529 0.385001 0.088285
H69   H     H_    0.929054 0.734916 0.659229 0.156033
H70   H     H_    0.238315 0.760608 0.408395 0.171496
H71   H     H_    0.302808 0.742565 0.485679 0.166939
H72   H     H_    0.352477 0.685587 0.440373 0.070256
H73   H     H_    0.060546 0.460523 0.148820 0.088693
H74   H     H_    0.398006 0.777352 0.461796 0.168641
H75   H     H_    0.879181 0.593755 0.192530 0.147691
H76   H     H_    0.937558 0.539672 0.148983 0.088281
H77   H     H_    0.810149 0.489370 0.113270 0.165202
H78   H     H_    0.819400 0.459669 0.173599 0.066787
H79   H     H_    0.752196 0.541259 0.157483 0.151084
H80   H     H_    0.199655 0.339825 0.881633 0.084878
H81   H     H_    0.240894 0.244946 0.903178 0.172843
H82   H     H_    0.261344 0.306424 0.980947 0.167754
H83   H     H_    0.315322 0.359544 0.935475 0.070137
H84   H     H_    0.189148 0.511198 0.114451 0.165194
H85   H     H_    0.223711 0.401857 0.959032 0.167800
H86   H     H_    0.401419 0.878288 0.693050 0.150001
H87   H     H_    0.455659 0.939385 0.650580 0.091367
H88   H     H_    0.510999 0.814485 0.614683 0.166632
H89   H     H_    0.538055 0.823461 0.675375 0.067219
H90   H     H_    0.459135 0.753877 0.657973 0.151541
H91   H     H_    0.665583 0.200434 0.383608 0.085222
H92   H     H_    0.760529 0.239656 0.406391 0.170717
H93   H     H_    0.696993 0.258285 0.483825 0.167718
H94   H     H_    0.646515 0.314687 0.438444 0.070259
H95   H     H_    0.177559 0.540744 0.174601 0.066667
H96   H     H_    0.601580 0.222972 0.460631 0.170008
H97   H     H_    0.116726 0.596051 0.807125 0.146143
H98   H     H_    0.062279 0.539943 0.851785 0.089785
H99   H     H_    0.193262 0.492226 0.884393 0.163384
H100  H     H_    0.179984 0.462935 0.824288 0.067274
H101  H     H_    0.246841 0.545853 0.838838 0.152029
H102  H     H_    0.799335 0.333376 0.115515 0.084407
H103  H     H_    0.760527 0.238560 0.092382 0.171571
H104  H     H_    0.742677 0.302853 0.014949 0.169179
H105  H     H_    0.685572 0.352630 0.060172 0.069381
H106  H     H_    0.245564 0.459368 0.159448 0.151144
H107  H     H_    0.777361 0.398142 0.038567 0.167611
H108  H     H_    0.592050 0.882404 0.307296 0.146435
H109  H     H_    0.538754 0.939812 0.351587 0.089978
H110  H     H_    0.487917 0.811533 0.386404 0.166226
H111  H     H_    0.457622 0.823097 0.326333 0.067257
H112  H     H_    0.538846 0.754714 0.341355 0.150605
H113  H     H_    0.160444 0.105165 0.535316 0.163170
H114  H     H_    0.246152 0.051782 0.510548 0.134169
H115  H     H_    0.300979 0.182618 0.480558 0.194156
H116  H     H_    0.201201 0.160586 0.458288 0.091882
H117  H     H_    0.799843 0.665489 0.884834 0.084750
H118  H     H_    0.213822 0.234624 0.503965 0.149283
H119  H     H_    0.877506 0.406684 0.808292 0.146368
H120  H     H_    0.935236 0.461174 0.852047 0.088962
H121  H     H_    0.807214 0.508928 0.888001 0.164511
H122  H     H_    0.815973 0.539381 0.827755 0.066670
H123  H     H_    0.749873 0.456479 0.843675 0.151440
H124  H     H_    0.200725 0.665679 0.116392 0.084383
H125  H     H_    0.239996 0.760348 0.093058 0.172158
H126  H     H_    0.258411 0.695924 0.015885 0.168736
H127  H     H_    0.314875 0.645930 0.061406 0.069799
H128  H     H_    0.760752 0.760328 0.907581 0.171586
H129  H     H_    0.223113 0.600777 0.039677 0.167438
H130  H     H_    0.403459 0.122188 0.307830 0.148628
H131  H     H_    0.458289 0.063272 0.350956 0.092288
H132  H     H_    0.509233 0.190250 0.386788 0.165285
H133  H     H_    0.537808 0.181798 0.326286 0.066866
H134  H     H_    0.456522 0.248781 0.343026 0.150771
H135  H     H_    0.666086 0.799337 0.616007 0.084760
H136  H     H_    0.760784 0.760852 0.592678 0.171242
H137  H     H_    0.696208 0.743159 0.515350 0.168408
H138  H     H_    0.646714 0.685577 0.560715 0.070411
H139  H     H_    0.742429 0.696870 0.985176 0.168790
H140  H     H_    0.601036 0.777260 0.539320 0.167909
H141  H     H_    0.220438 0.223828 0.137034 0.174617
H142  H     H_    0.157642 0.134567 0.145073 0.134599
H143  H     H_    0.216242 0.111595 0.222615 0.194404
H144  H     H_    0.294014 0.115568 0.178563 0.082517
H145  H     H_    0.278750 0.201201 0.216612 0.176440
H146  H     H_    0.772980 0.783778 0.828661 0.099947
H147  H     H_    0.853984 0.816569 0.791810 0.110083
H148  H     H_    0.815838 0.960542 0.805252 0.163721
H149  H     H_    0.734254 0.901979 0.780394 0.076845
H150  H     H_    0.685812 0.646081 0.940060 0.069244
H151  H     H_    0.732592 0.927364 0.841517 0.156698
H152  H     H_    0.772857 0.221760 0.637787 0.173875
H153  H     H_    0.862342 0.159156 0.644137 0.133232
H154  H     H_    0.888491 0.216091 0.721645 0.194138
H155  H     H_    0.882563 0.294924 0.678209 0.082011
H156  H     H_    0.798597 0.278250 0.717456 0.177841
H157  H     H_    0.216025 0.772791 0.329182 0.100329
H158  H     H_    0.184019 0.853865 0.292203 0.111206
H159  H     H_    0.039750 0.815728 0.305374 0.163547
H160  H     H_    0.098196 0.734041 0.280800 0.076366
O1    O     O_R   0.931980 0.584070 0.954320 -0.497711
O2    O     O_R   0.068020 0.584070 0.954320 -0.464832
O3    O     O_R   0.415930 0.068020 0.545680 -0.485751
O4    O     O_R   0.584070 0.931980 0.454320 -0.463772
O5    O     O_R   0.068020 0.584070 0.045680 -0.496868
O6    O     O_R   0.931980 0.415930 0.954320 -0.464755
O7    O     O_R   0.584070 0.931980 0.545680 -0.496831
O8    O     O_R   0.415930 0.068020 0.454320 -0.482752
O9    O     O_3   0.130303 0.363410 0.125337 -0.524521
O10   O     O_3   0.871744 0.727205 0.934417 -0.501760
O11   O     O_3   0.634745 0.129538 0.625874 -0.525505
O12   O     O_R   0.068020 0.415930 0.045680 -0.464635
O13   O     O_3   0.272386 0.871638 0.434812 -0.514454
O14   O     O_3   0.868846 0.637156 0.124685 -0.524455
O15   O     O_3   0.130445 0.275779 0.931667 -0.501882
O16   O     O_3   0.361215 0.868009 0.624666 -0.524241
O17   O     O_3   0.726952 0.128761 0.433527 -0.504140
O18   O     O_3   0.130858 0.638307 0.874958 -0.524276
O19   O     O_3   0.871607 0.272577 0.065802 -0.502047
O20   O     O_3   0.635885 0.869587 0.374860 -0.524561
O21   O     O_3   0.272006 0.129383 0.566182 -0.529385
O22   O     O_3   0.867729 0.362217 0.875967 -0.524010
O23   O     O_R   0.415930 0.931980 0.454320 -0.493948
O24   O     O_3   0.129058 0.726597 0.066313 -0.502096
O25   O     O_3   0.361230 0.131736 0.375891 -0.532446
O26   O     O_3   0.726936 0.871910 0.566118 -0.503419
O27   O     O_3   0.131289 0.235072 0.187438 -0.561233
O28   O     O_3   0.864503 0.844903 0.863747 -0.527522
O29   O     O_3   0.763393 0.131451 0.687756 -0.561691
O30   O     O_3   0.155016 0.864328 0.364082 -0.530794
O31   O     O_3   0.867775 0.765132 0.186658 -0.561903
O32   O     O_3   0.137438 0.161182 0.859555 -0.528956
O33   O     O_3   0.231548 0.866821 0.686014 -0.560795
O34   O     O_R   0.584070 0.068020 0.545680 -0.460471
O35   O     O_3   0.844368 0.135317 0.362846 -0.530116
O36   O     O_3   0.131991 0.767124 0.813260 -0.561628
O37   O     O_3   0.864556 0.154802 0.136426 -0.527266
O38   O     O_3   0.764293 0.867907 0.313046 -0.560954
O39   O     O_3   0.153151 0.132796 0.633736 -0.530708
O40   O     O_3   0.866182 0.234476 0.813838 -0.561474
O41   O     O_3   0.136061 0.843524 0.137125 -0.527553
O42   O     O_3   0.232499 0.132913 0.314356 -0.558342
O43   O     O_3   0.844164 0.865257 0.636817 -0.529472
O44   O     O_R   0.068020 0.415930 0.954320 -0.494880
O45   O     O_R   0.931980 0.584070 0.045680 -0.464722
O46   O     O_R   0.584070 0.068020 0.454320 -0.494978
O47   O     O_R   0.415930 0.931980 0.545680 -0.467672
O48   O     O_R   0.931980 0.415930 0.045680 -0.497551

loop_
_geom_bond_atom_site_label_1
_geom_bond_atom_site_label_2
_ccdc_geom_bond_type
C138  O22   S    
C121  H76   S    
C19   C20   S    
C135  H110  S    
C114  C115  S    
C57   C102  S    
C119  H70   S    
C129  H93   S    
C132  H103  S    
C40   H55   S    
C23   H16   S    
Cu1   O45   S    
C26   H21   S    
C134  O20   S    
C20   H7    S    
C112  H73   S    
C10   H142  S    
C6    H131  S    
C78   C96   A    
C55   C100  S    
C14   H148  S    
C133  H104  S    
C31   H34   S    
C7    H132  S    
C24   C51   S    
C17   H158  S    
C21   C22   S    
C116  H24   S    
Cu2   O44   S    
C35   C76   A    
C67   C85   A    
C89   O21   S    
C95   C109  T    
C81   C99   A    
C51   C104  T    
C123  H81   S    
C43   C44   S    
C125  O16   S    
C12   O28   S    
C138  H119  S    
C2    C104  S    
C4    O24   S    
C3    C138  S    
C61   O29   S    
C27   H23   S    
C46   C84   S    
C134  H108  S    
C87   O19   S    
C30   O37   S    
C19   O31   S    
C119  H68   S    
C89   C101  A    
C79   C97   A    
C56   O45   A    
C4    C5    S    
C21   O32   S    
C88   C102  A    
Cu1   Cu2   S    
C52   O48   A    
C6    C7    S    
C137  H115  S    
C26   O35   S    
C38   H51   S    
C13   C69   A    
C130  C131  S    
C54   O7    A    
C11   H145  S    
C50   C96   S    
C65   C82   A    
C116  C118  S    
C126  H89   S    
C54   O34   A    
C32   O38   S    
C28   H26   S    
C33   H40   S    
C32   H38   S    
C41   H60   S    
C30   H32   S    
C87   C94   A    
C2    C109  S    
C69   O37   S    
C123  O15   S    
C42   H62   S    
C8    H135  S    
C123  C124  S    
C4    H125  S    
C60   C78   A    
Cu3   O23   S    
C114  O10   S    
C125  H87   S    
C21   H10   S    
Cu3   O4    S    
C16   H156  S    
C77   C94   A    
C42   H63   S    
C44   H67   S    
C41   O42   S    
C65   O32   S    
C132  H102  S    
C49   C117  S    
C124  H82   S    
C25   H19   S    
C72   O40   S    
C20   H6    S    
C9    H138  S    
C125  H86   S    
C114  H117  S    
C1    C103  T    
Cu1   O1    S    
Cu2   O2    S    
C37   H48   S    
C14   H151  S    
C60   O28   S    
C63   C80   A    
C127  O17   S    
C130  H97   S    
C127  H91   S    
C19   H4    S    
C122  H77   S    
C31   H36   S    
C75   O42   S    
C11   H143  S    
C50   O2    A    
C7    H134  S    
C39   C40   S    
Cu1   O6    S    
C120  H71   S    
C108  C128  S    
C127  C129  S    
C25   H17   S    
C85   O17   S    
C72   C90   A    
C81   O14   S    
C86   O18   S    
C53   O23   A    
C17   C18   S    
C35   C61   A    
C29   H29   S    
C43   O43   S    
C77   O9    S    
C112  O9    S    
C78   O10   S    
C133  H107  S    
C115  H150  S    
C124  H85   S    
C115  H2    S    
C83   C101  A    
C71   O39   S    
C121  H75   S    
Cu3   O47   S    
C136  C137  S    
C56   O5    A    
C17   O30   S    
C134  C135  S    
C13   C59   A    
C53   C98   S    
C70   O38   S    
C59   O27   S    
C3    H121  S    
C111  C117  T    
C44   H69   S    
C12   H146  S    
C40   H56   S    
C61   C79   A    
C130  H98   S    
Cu1   O48   S    
C20   H8    S    
C9    H140  S    
C34   C36   S    
C21   H9    S    
C135  H112  S    
C57   O4    A    
C64   C81   A    
C10   C11   S    
C14   H149  S    
C3    H122  S    
C111  C128  S    
C56   C99   S    
C48   C66   A    
C85   C102  A    
C22   H11   S    
C17   H157  S    
C15   H152  S    
C93   C97   A    
C41   C42   S    
C136  H113  S    
C18   H3    S    
C115  H139  S    
C121  O14   S    
C26   C27   S    
C52   O12   A    
C16   H154  S    
C112  H1    S    
C28   C29   S    
C58   O3    A    
C22   H12   S    
C30   C31   S    
C73   C107  T    
C4    H124  S    
C18   H159  S    
C136  O21   S    
C66   C83   A    
C48   C106  S    
C138  H120  S    
C54   C97   S    
C69   C87   A    
C134  H109  S    
C114  H128  S    
C124  H83   S    
C132  O19   S    
C129  H94   S    
C43   H65   S    
C11   H144  S    
C22   H14   S    
C40   H58   S    
C23   O33   S    
C26   H20   S    
C19   H5    S    
C38   H52   S    
C74   C91   A    
C34   H43   S    
C126  H90   S    
C76   C93   A    
C92   O25   S    
C116  O11   S    
C39   O41   S    
Cu2   O12   S    
C25   H18   S    
C53   O8    A    
C66   O33   S    
C121  C122  S    
C86   C96   A    
C133  H105  S    
C130  O18   S    
C49   C70   A    
C131  H99   S    
C125  C126  S    
C119  O13   S    
C63   O30   S    
C41   H59   S    
C88   O20   S    
C93   O26   S    
C2    C110  S    
C80   C98   A    
C131  H100  S    
C8    H136  S    
C119  C120  S    
C39   H54   S    
C83   O16   S    
C5    H127  S    
C76   O43   S    
C36   H45   S    
C32   C33   S    
C113  H84   S    
C39   H53   S    
C84   C108  T    
C6    O25   S    
C47   C72   A    
C24   C68   A    
C28   O36   S    
C28   H27   S    
C5    H126  S    
C9    H137  S    
C79   O11   S    
C34   O39   S    
C10   H141  S    
C3    H123  S    
C129  H96   S    
C68   C86   A    
C15   O29   S    
C70   C88   A    
C59   C77   A    
C92   C98   A    
C62   C105  T    
C31   H33   S    
C137  H116  S    
C15   H153  S    
C37   C38   S    
C122  H78   S    
C126  H88   S    
C80   O13   S    
C107  C128  S    
C67   O35   S    
C7    H133  S    
C120  H72   S    
C15   C16   S    
C23   H15   S    
C44   H66   S    
C45   C73   S    
C64   O31   S    
C116  H13   S    
C132  C133  S    
C122  H79   S    
C33   H41   S    
C32   H37   S    
C52   C94   S    
C29   H28   S    
C55   O6    A    
C30   H31   S    
C68   O36   S    
C113  H95   S    
C42   H61   S    
C118  H57   S    
C90   C100  A    
C112  C113  S    
C82   O15   S    
C123  H80   S    
C5    H129  S    
Cu4   O3    S    
C6    H130  S    
C36   H47   S    
C58   C101  S    
C118  H46   S    
C8    C9    S    
C12   H147  S    
C16   H155  S    
C45   C63   A    
C46   C64   A    
C57   O46   A    
Cu4   O34   S    
C27   H22   S    
C71   C89   A    
C24   C60   A    
C135  H111  S    
C34   H42   S    
C103  C128  S    
C75   C92   A    
C37   H49   S    
C58   O47   A    
C12   C14   S    
C55   O44   A    
C38   H50   S    
C10   O27   S    
C1    C13   S    
C48   C71   A    
C46   C74   A    
C90   O22   S    
C106  C110  T    
C137  H118  S    
C127  H92   S    
C49   C67   A    
C82   C100  A    
C136  H114  S    
Cu3   O7    S    
C50   O1    A    
C74   O41   S    
C120  H74   S    
C113  H106  S    
C2    C105  S    
C45   C75   A    
C91   C99   A    
C131  H101  S    
Cu3   Cu4   S    
C33   H39   S    
Cu4   O46   S    
C18   H160  S    
Cu4   O8    S    
C35   C62   S    
C36   H44   S    
C23   C25   S    
C29   H30   S    
C8    O26   S    
C118  H35   S    
C37   O40   S    
Cu2   O5    S    
C47   C95   S    
C91   O24   S    
C47   C65   A    
C27   H25   S    
C43   H64   S    
