data_mof_unit_67205.cif
_audit_creation_date              2012-12-11T18:15:30-0500
_audit_creation_method            fapswitch 2.2
_symmetry_space_group_name_H-M    P1
_symmetry_Int_Tables_number       1
_space_group_crystal_system       triclinic
_cell_length_a                    20.316965
_cell_length_b                    20.143175
_cell_length_c                    8.509027
_cell_angle_alpha                 90.39602
_cell_angle_beta                  92.481352
_cell_angle_gamma                 89.689445
_cell_volume                      3478.90989009

loop_
_atom_site_label
_atom_site_type_symbol
_atom_type_description
_atom_site_fract_x
_atom_site_fract_y
_atom_site_fract_z
_atom_type_partial_charge
Ba1   Ba    Ba6+2 0.999980 0.452130 0.155200 1.713940
Ba2   Ba    Ba6+2 0.999980 0.547870 0.655200 1.710868
Ba3   Ba    Ba6+2 0.499980 0.952130 0.155200 1.731076
Ba4   Ba    Ba6+2 0.499980 0.047870 0.655200 1.718213
C1    C     C_3   0.018396 0.102676 0.398296 0.262622
C2    C     C_R   0.115134 0.661150 0.179897 -0.312982
C3    C     C_2   0.767289 0.933989 0.358824 0.878331
C4    C     C_2   0.981875 0.071608 0.530334 0.812727
C5    C     C_2   0.006494 0.945627 0.035259 0.883022
C6    C     C_2   0.489231 0.557933 0.471864 0.809509
C7    C     C_2   0.498957 0.450522 0.989169 0.878253
C8    C     C_R   0.614115 0.837956 0.678164 -0.276039
C9    C     C_R   0.614591 0.161284 0.181496 -0.306417
C10   C     C_R   0.125773 0.284743 0.578171 0.057226
C11   C     C_R   0.125956 0.714488 0.080257 0.036872
C12   C     C_R   0.623092 0.782676 0.580273 0.078153
C13   C     C_R   0.621405 0.217317 0.088008 0.016600
C14   C     C_R   0.171952 0.235785 0.621824 0.370978
C15   C     C_R   0.171037 0.764047 0.125373 0.327055
C16   C     C_R   0.666432 0.731885 0.628911 0.353558
C17   C     C_3   0.024662 0.903171 0.896856 0.274370
C18   C     C_R   0.661810 0.269562 0.142779 0.345413
C19   C     C_R   0.209941 0.242096 0.765430 -0.072015
C20   C     C_R   0.208491 0.758634 0.269589 -0.062519
C21   C     C_R   0.706925 0.739939 0.768473 -0.069948
C22   C     C_R   0.705700 0.260141 0.275778 -0.042979
C23   C     C_R   0.199444 0.297557 0.866648 -0.086179
C24   C     C_R   0.198863 0.703072 0.369458 -0.095045
C25   C     C_R   0.698669 0.797037 0.866185 -0.093646
C26   C     C_R   0.701348 0.201034 0.366088 -0.075802
C27   C     C_R   0.798212 0.699676 0.944902 0.022964
C28   C     C_3   0.518784 0.598337 0.343062 0.256349
C29   C     C_R   0.801028 0.298729 0.442276 0.035161
C30   C     C_R   0.298346 0.199643 0.946839 0.032855
C31   C     C_R   0.295615 0.802713 0.452479 0.002776
C32   C     C_R   0.787210 0.754563 0.045836 0.077880
C33   C     C_R   0.796479 0.239936 0.532006 0.018385
C34   C     C_R   0.286409 0.253779 0.049122 0.080483
C35   C     C_R   0.284099 0.748910 0.554296 0.025241
C36   C     C_R   0.849089 0.652613 0.987434 0.065051
C37   C     C_R   0.850428 0.347180 0.486457 0.097369
C38   C     C_R   0.348760 0.152136 0.989715 0.058472
C39   C     C_3   0.520991 0.403388 0.863921 0.275358
C40   C     C_R   0.345314 0.850721 0.496414 0.081487
C41   C     C_R   0.885873 0.661064 0.128283 -0.291806
C42   C     C_R   0.888752 0.338246 0.624754 -0.261055
C43   C     C_R   0.385550 0.160554 0.130411 -0.290822
C44   C     C_R   0.379679 0.844439 0.641665 -0.203274
C45   C     C_3   0.006159 0.194743 0.936304 0.627507
C46   C     C_3   0.983676 0.817161 0.376904 0.737723
C47   C     C_3   0.506591 0.703640 0.885522 0.622698
C48   C     C_3   0.485087 0.316709 0.370817 0.724049
C49   C     C_R   0.871469 0.712159 0.231856 -0.010616
C50   C     C_R   0.150713 0.346510 0.821792 0.011928
C51   C     C_R   0.879946 0.283432 0.719537 0.029682
C52   C     C_R   0.371176 0.211746 0.233785 -0.010615
C53   C     C_R   0.364946 0.794015 0.745660 0.028854
C54   C     C_R   0.822920 0.759129 0.190907 0.050863
C55   C     C_R   0.837921 0.232131 0.667612 -0.120519
C56   C     C_R   0.321902 0.258089 0.194247 0.019482
C57   C     C_R   0.317795 0.746348 0.701830 -0.083573
C58   C     C_R   0.757367 0.693240 0.807679 0.005273
C59   C     C_R   0.755425 0.307562 0.314830 0.015522
C60   C     C_R   0.259924 0.195149 0.805803 -0.000808
C61   C     C_R   0.150725 0.653587 0.323522 0.021391
C62   C     C_R   0.257118 0.806600 0.311574 -0.001455
C63   C     C_3   0.024904 0.123195 0.978007 -0.331537
C64   C     C_3   0.054941 0.815243 0.440169 -0.320476
C65   C     C_3   0.527788 0.630965 0.877409 -0.325869
C66   C     C_3   0.555185 0.324926 0.439729 -0.251167
C67   C     C_3   0.803855 0.461603 0.818806 0.190879
C68   C     C_3   0.793927 0.527335 0.273402 0.209248
C69   C     C_3   0.291477 0.976353 0.755485 0.241460
C70   C     C_3   0.293825 0.026336 0.257048 0.222695
C71   C     C_3   0.748012 0.421286 0.882605 -0.191325
C72   C     C_R   0.650593 0.846446 0.820733 0.000461
C73   C     C_3   0.721415 0.542602 0.239150 -0.201514
C74   C     C_3   0.222317 0.982648 0.677846 -0.172182
C75   C     C_3   0.222716 0.026109 0.188658 -0.172203
C76   C     C_3   0.232511 0.497059 0.822696 0.231548
C77   C     C_3   0.231499 0.501736 0.318981 0.146990
C78   C     C_3   0.734461 0.997276 0.830156 0.225654
C79   C     C_3   0.731099 0.998607 0.324728 0.137802
C80   C     C_3   0.283615 0.444325 0.778739 -0.348264
C81   C     C_3   0.278717 0.555493 0.264492 -0.338178
C82   C     C_3   0.785868 0.943957 0.792266 -0.353554
C83   C     C_R   0.651645 0.152817 0.322871 0.013364
C84   C     C_3   0.777844 0.051375 0.264829 -0.353455
C85   C     C_3   0.008630 0.179183 0.391409 0.282884
C86   C     C_3   0.018684 0.828335 0.932602 0.279573
C87   C     C_3   0.513972 0.673334 0.377704 0.290726
C88   C     C_3   0.514720 0.330299 0.914771 0.244418
C89   C     C_R   0.239090 0.302727 0.006631 0.011033
C90   C     C_R   0.238160 0.698954 0.509976 -0.047994
C91   C     C_R   0.739558 0.803191 0.003931 -0.005337
C92   C     C_R   0.747510 0.191948 0.493265 -0.047360
C93   C     C_2   0.941521 0.198105 0.322990 0.805324
C94   C     C_R   0.114325 0.338162 0.679339 -0.311971
C95   C     C_2   0.946079 0.811066 0.934389 0.706605
C96   C     C_2   0.444531 0.698424 0.347089 0.803839
C97   C     C_2   0.442324 0.312874 0.920137 0.704973
C98   C     C_2   0.732155 0.361182 0.786450 0.898097
C99   C     C_2   0.708071 0.609854 0.173393 0.887860
C100  C     C_2   0.197914 0.918570 0.607029 0.817638
C101  C     C_2   0.201301 0.091313 0.120472 0.821933
C102  C     C_2   0.265398 0.563257 0.849876 0.848086
C103  C     C_2   0.266867 0.436165 0.345568 0.879047
C104  C     C_2   0.767812 0.062977 0.861322 0.834189
H1    H     H_    0.702747 0.452160 0.887186 0.154402
H2    H     H_    0.191960 0.493656 0.229188 0.082400
H3    H     H_    0.587119 0.460348 0.778545 0.329623
H4    H     H_    0.968059 0.175054 0.731696 0.290258
H5    H     H_    0.962866 0.906711 0.447393 0.333741
H6    H     H_    0.461542 0.707336 0.681862 0.280209
H7    H     H_    0.454332 0.406004 0.417360 0.342227
H8    H     H_    0.698639 0.002737 0.730557 0.068217
H9    H     H_    0.691726 0.988622 0.236038 0.088734
H10   H     H_    0.315848 0.431405 0.882889 0.199150
H11   H     H_    0.308064 0.575426 0.366793 0.184220
H12   H     H_    0.815580 0.930249 0.899953 0.201420
H13   H     H_    0.807604 0.072366 0.364993 0.189486
H14   H     H_    0.314487 0.462601 0.683694 0.142897
H15   H     H_    0.312416 0.535860 0.175807 0.167564
H16   H     H_    0.819241 0.962179 0.702168 0.135068
H17   H     H_    0.699685 0.504037 0.158923 0.071270
H18   H     H_    0.811336 0.030083 0.177977 0.182634
H19   H     H_    0.259458 0.399017 0.732102 0.095692
H20   H     H_    0.251174 0.596499 0.206251 0.089146
H21   H     H_    0.762011 0.899154 0.741806 0.102814
H22   H     H_    0.750049 0.091519 0.203639 0.085209
H23   H     H_    0.012942 0.198480 0.511099 -0.038491
H24   H     H_    0.042367 0.819253 0.050612 -0.084799
H25   H     H_    0.529958 0.678433 0.502150 -0.016806
H26   H     H_    0.537166 0.324934 0.035090 -0.000018
H27   H     H_    0.998918 0.079979 0.286640 0.027346
H28   H     H_    0.221388 0.022833 0.589075 0.088125
H29   H     H_    0.990555 0.915054 0.794290 0.030064
H30   H     H_    0.492180 0.586513 0.229639 0.044873
H31   H     H_    0.489534 0.411021 0.754701 0.029021
H32   H     H_    0.052978 0.099692 0.883488 0.169550
H33   H     H_    0.087708 0.832907 0.348451 0.114628
H34   H     H_    0.572056 0.625847 0.806092 0.117125
H35   H     H_    0.586593 0.347084 0.350917 0.085728
H36   H     H_    0.078932 0.375841 0.642095 0.065392
H37   H     H_    0.080252 0.623341 0.141502 0.079141
H38   H     H_    0.580180 0.876597 0.638817 0.065945
H39   H     H_    0.216812 0.985991 0.098986 0.107615
H40   H     H_    0.581203 0.122537 0.140680 0.079701
H41   H     H_    0.812617 0.798521 0.273176 0.148046
H42   H     H_    0.832449 0.189450 0.741530 0.104702
H43   H     H_    0.311548 0.297335 0.276870 0.151553
H44   H     H_    0.307126 0.707641 0.783529 0.102449
H45   H     H_    0.923153 0.624829 0.163128 0.055004
H46   H     H_    0.922761 0.376595 0.664731 0.042787
H47   H     H_    0.423041 0.124470 0.164815 0.055886
H48   H     H_    0.417074 0.880359 0.676392 0.046287
H49   H     H_    0.234153 0.344967 0.083800 0.112879
H50   H     H_    0.761866 0.406856 0.005053 0.081106
H51   H     H_    0.233537 0.657012 0.586661 0.133256
H52   H     H_    0.735298 0.845970 0.079895 0.107158
H53   H     H_    0.745697 0.147598 0.563656 0.116500
H54   H     H_    0.764724 0.651577 0.730725 0.130083
H55   H     H_    0.759220 0.351453 0.244736 0.087406
H56   H     H_    0.268203 0.154135 0.727966 0.116950
H57   H     H_    0.265026 0.847432 0.234040 0.114975
H58   H     H_    0.043475 0.228983 0.990848 0.081898
H59   H     H_    0.981772 0.789541 0.263477 -0.084022
H60   H     H_    0.545306 0.731709 0.953803 0.070679
H61   H     H_    0.696443 0.539785 0.352336 0.162744
H62   H     H_    0.488261 0.284512 0.264521 -0.113859
H63   H     H_    0.056345 0.121580 0.087003 0.138481
H64   H     H_    0.069318 0.763742 0.472762 0.076629
H65   H     H_    0.539660 0.611920 0.997033 0.144980
H66   H     H_    0.575938 0.275895 0.475289 0.084631
H67   H     H_    0.980024 0.093286 0.992273 0.164150
H68   H     H_    0.061116 0.848007 0.544975 0.176587
H69   H     H_    0.487614 0.600612 0.821758 0.158279
H70   H     H_    0.555721 0.358529 0.543365 0.182552
H71   H     H_    0.802639 0.459868 0.688566 0.045481
H72   H     H_    0.187532 0.997728 0.767922 0.146199
H73   H     H_    0.816972 0.512606 0.162889 0.019714
H74   H     H_    0.329543 0.983398 0.668470 0.032315
H75   H     H_    0.328797 0.015304 0.164637 0.046127
H76   H     H_    0.851442 0.441008 0.866732 0.027688
H77   H     H_    0.819733 0.571054 0.326606 0.033887
H78   H     H_    0.298613 0.926184 0.806665 0.028756
H79   H     H_    0.306314 0.075816 0.307975 0.030512
H80   H     H_    0.854708 0.170782 0.219394 0.324205
H81   H     H_    0.947342 0.742914 0.758175 0.337717
H82   H     H_    0.353167 0.684060 0.250410 0.323246
H83   H     H_    0.188619 0.014794 0.282687 0.146878
H84   H     H_    0.444538 0.239625 0.757048 0.338962
H85   H     H_    0.726382 0.262180 0.782895 0.337086
H86   H     H_    0.658841 0.663570 0.008929 0.295355
H87   H     H_    0.175030 0.822750 0.642473 0.332260
H88   H     H_    0.159499 0.139476 0.936122 0.289012
H89   H     H_    0.350768 0.613880 0.881486 0.323445
H90   H     H_    0.188912 0.395899 0.446025 0.260439
H91   H     H_    0.851512 0.111249 0.927778 0.324084
H92   H     H_    0.688789 0.894150 0.456599 0.257127
H93   H     H_    0.894878 0.054264 0.626498 0.337142
H94   H     H_    0.194795 0.502202 0.726886 0.064188
H95   H     H_    0.935799 0.998644 0.139535 0.345931
H96   H     H_    0.408702 0.534604 0.589589 0.341707
H97   H     H_    0.430561 0.516351 0.057103 0.339571
H98   H     H_    0.182189 0.142311 0.581520 0.317063
H99   H     H_    0.177208 0.857913 0.088104 0.323659
H100  H     H_    0.671751 0.636629 0.607031 0.306295
H101  H     H_    0.661624 0.365579 0.143470 0.296554
H102  H     H_    0.090693 0.039619 0.394045 0.336257
H103  H     H_    0.087076 0.962337 0.809057 0.317883
H104  H     H_    0.586111 0.536459 0.283457 0.338597
O1    O     O_2   0.130070 0.404060 0.104920 -0.463945
O2    O     O_3   0.942098 0.790896 0.489196 -0.591931
O3    O     O_3   0.446354 0.708284 0.961412 -0.598962
O4    O     O_3   0.444656 0.291054 0.486599 -0.596839
O5    O     O_3   0.924190 0.533610 0.949240 -0.500929
O6    O     O_3   0.924190 0.466390 0.449240 -0.483566
O7    O     O_3   0.424190 0.033610 0.949240 -0.488933
O8    O     O_3   0.424190 0.966390 0.449240 -0.484187
O9    O     O_3   0.075780 0.466370 0.861070 -0.471803
O10   O     O_3   0.075780 0.533630 0.361070 -0.480830
O11   O     O_3   0.575780 0.966370 0.861070 -0.469790
O12   O     O_2   0.130070 0.595940 0.604920 -0.433530
O13   O     O_3   0.575780 0.033630 0.361070 -0.482614
O14   O     O_3   0.022320 0.344950 0.359800 -0.461664
O15   O     O_3   0.022320 0.655050 0.859800 -0.500317
O16   O     O_3   0.522320 0.844950 0.359800 -0.450179
O17   O     O_3   0.522320 0.155050 0.859800 -0.495467
O18   O     O_2   0.137336 0.303543 0.263532 -0.434998
O19   O     O_2   0.134240 0.699955 0.761686 -0.412453
O20   O     O_2   0.637947 0.805339 0.270183 -0.442711
O21   O     O_2   0.632617 0.198188 0.769626 -0.412292
O22   O     O_3   0.202875 0.480854 0.962888 -0.661473
O23   O     O_2   0.630070 0.904060 0.104920 -0.463605
O24   O     O_3   0.203969 0.519856 0.461218 -0.682515
O25   O     O_3   0.701873 0.981808 0.966671 -0.659933
O26   O     O_3   0.703337 0.019233 0.464678 -0.680864
O27   O     O_3   0.057259 0.207715 0.299929 -0.563300
O28   O     O_3   0.050267 0.792231 0.814144 -0.587771
O29   O     O_3   0.557018 0.708969 0.283965 -0.560839
O30   O     O_3   0.547263 0.290714 0.804108 -0.582783
O31   O     O_2   0.869860 0.403670 0.205810 -0.462535
O32   O     O_2   0.869860 0.596330 0.705810 -0.440030
O33   O     O_2   0.369860 0.903670 0.205810 -0.460816
O34   O     O_2   0.630070 0.095940 0.604920 -0.419650
O35   O     O_2   0.369860 0.096330 0.705810 -0.461611
O36   O     O_3   0.977590 0.344880 0.951200 -0.476170
O37   O     O_3   0.977590 0.655120 0.451200 -0.504556
O38   O     O_3   0.477590 0.844880 0.951200 -0.469201
O39   O     O_3   0.477590 0.155120 0.451200 -0.499457
O40   O     O_2   0.859923 0.304277 0.034116 -0.419166
O41   O     O_2   0.860961 0.697074 0.548331 -0.426148
O42   O     O_2   0.367870 0.795963 0.074852 -0.450672
O43   O     O_2   0.362164 0.198475 0.550415 -0.432503
O44   O     O_2   0.926761 0.256611 0.313708 -0.587562
O45   O     O_3   0.794120 0.476689 0.384265 -0.638055
O46   O     O_R   0.897109 0.150324 0.264448 -0.760499
O47   O     O_2   0.911689 0.839305 0.028033 -0.577805
O48   O     O_R   0.916060 0.766147 0.828882 -0.710155
O49   O     O_2   0.430046 0.753403 0.394025 -0.629125
O50   O     O_R   0.397335 0.660597 0.262657 -0.749508
O51   O     O_2   0.408023 0.342714 0.011472 -0.571298
O52   O     O_R   0.412721 0.265003 0.822234 -0.710297
O53   O     O_2   0.706733 0.366494 0.654241 -0.613686
O54   O     O_R   0.743029 0.299122 0.853463 -0.716311
O55   O     O_2   0.723014 0.659006 0.251260 -0.572876
O56   O     O_3   0.792057 0.526737 0.866495 -0.639903
O57   O     O_R   0.672799 0.616015 0.030065 -0.764287
O58   O     O_2   0.177970 0.916550 0.469663 -0.633768
O59   O     O_R   0.195428 0.862057 0.700738 -0.685950
O60   O     O_2   0.201679 0.141207 0.203037 -0.552146
O61   O     O_R   0.177357 0.093966 0.964764 -0.777244
O62   O     O_2   0.232136 0.611245 0.885929 -0.624669
O63   O     O_R   0.333762 0.569364 0.842425 -0.761158
O64   O     O_2   0.323703 0.428261 0.307851 -0.557232
O65   O     O_R   0.235126 0.383692 0.416290 -0.745312
O66   O     O_2   0.734329 0.113139 0.873293 -0.615026
O67   O     O_3   0.296474 0.980889 0.380341 -0.652920
O68   O     O_R   0.836142 0.066094 0.888840 -0.768566
O69   O     O_2   0.824961 0.926696 0.327161 -0.552730
O70   O     O_R   0.735437 0.881940 0.430668 -0.740912
O71   O     O_2   0.011714 0.038804 0.630787 -0.623813
O72   O     O_R   0.913679 0.078942 0.535598 -0.782448
O73   O     O_2   0.046441 0.954640 0.144923 -0.595221
O74   O     O_R   0.943638 0.974052 0.037722 -0.709163
O75   O     O_2   0.523634 0.519139 0.549283 -0.613190
O76   O     O_R   0.422534 0.564682 0.502053 -0.777327
O77   O     O_2   0.530492 0.454663 0.114184 -0.605210
O78   O     O_3   0.295196 0.021517 0.880698 -0.648840
O79   O     O_R   0.441972 0.488533 0.962385 -0.734736
O80   O     O_3   0.180444 0.183628 0.519215 -0.643897
O81   O     O_3   0.178253 0.816537 0.024674 -0.656964
O82   O     O_3   0.668653 0.675566 0.536644 -0.662635
O83   O     O_3   0.656713 0.329175 0.065181 -0.696115
O84   O     O_3   0.085858 0.087820 0.415993 -0.678376
O85   O     O_3   0.089133 0.917806 0.857905 -0.668466
O86   O     O_3   0.585060 0.581377 0.331361 -0.689597
O87   O     O_3   0.586638 0.416684 0.831765 -0.682451
O88   O     O_3   0.006213 0.201292 0.773699 -0.811207
O89   O     O_3   0.943336 0.208933 0.992286 -0.600279
O90   O     O_3   0.964785 0.882908 0.345029 -0.645801
O91   O     O_3   0.500889 0.728878 0.732724 -0.809284
O92   O     O_3   0.460082 0.378485 0.321574 -0.636372
P1    P     P_3+3 0.136530 0.426510 0.931350 0.976987
P2    P     P_3+3 0.912951 0.712941 0.427595 0.994605
P3    P     P_3+3 0.412624 0.787886 0.934207 1.043271
P4    P     P_3+3 0.413643 0.213437 0.427849 0.998402
P5    P     P_3+3 0.082714 0.716280 0.884147 1.047926
P6    P     P_3+3 0.084568 0.284414 0.379348 1.096276
P7    P     P_3+3 0.580404 0.217616 0.887565 1.043302
P8    P     P_3+3 0.583526 0.783240 0.378614 1.108484
P9    P     P_3+3 0.136530 0.573490 0.431350 0.974435
P10   P     P_3+3 0.636530 0.926510 0.931350 0.977393
P11   P     P_3+3 0.636530 0.073490 0.431350 0.981240
P12   P     P_3+3 0.863410 0.426100 0.379280 1.004392
P13   P     P_3+3 0.863410 0.573900 0.879280 0.977677
P14   P     P_3+3 0.363410 0.926100 0.379280 0.995885
P15   P     P_3+3 0.363410 0.073900 0.879280 0.968260
P16   P     P_3+3 0.915201 0.285960 0.922623 1.039369

loop_
_geom_bond_atom_site_label_1
_geom_bond_atom_site_label_2
_ccdc_geom_bond_type
C90   H51   S    
C51   C55   A    
C30   C38   A    
Ba3   O38   S    
C17   H29   S    
C60   H56   S    
C69   H78   S    
C64   H68   S    
C59   H55   S    
O29   P8    S    
O30   P7    S    
C24   C90   A    
C53   P3    S    
C26   C92   A    
Ba1   O31   S    
Ba3   O23   S    
C8    C12   A    
C37   P12   S    
C42   C51   A    
C69   O78   S    
C99   O55   D    
C87   C96   S    
O22   P1    S    
C76   C80   S    
C79   C84   S    
C75   H83   S    
C27   C58   A    
C65   H65   S    
C18   O83   S    
H103  O85   S    
H100  O82   S    
C17   C86   S    
C21   C25   A    
O38   P3    S    
C35   C57   A    
O26   P11   S    
H92   O70   S    
Ba3   P10   S    
C76   O22   S    
C48   H62   S    
C4    O71   D    
C31   C62   A    
C65   H34   S    
C14   O80   S    
C38   P15   S    
Ba2   O9    S    
C14   C19   A    
C33   C92   A    
C56   H43   S    
H84   O52   S    
C35   C90   A    
H91   O68   S    
C12   C16   A    
Ba4   O7    S    
H101  O83   S    
H86   O57   S    
C93   O44   D    
C11   P5    S    
C19   C60   A    
C70   C75   S    
C23   C89   A    
C73   H17   S    
C70   H79   S    
O13   P11   S    
H96   O76   S    
C83   P11   S    
C94   H36   S    
O12   P9    D    
C66   H70   S    
C102  O63   S    
O7    P15   S    
C1    C4    S    
C49   C54   A    
C53   C57   A    
C13   P7    S    
C85   H23   S    
C5    O73   D    
C79   H9    S    
C100  O59   S    
C45   H58   S    
C47   O91   S    
C5    C17   S    
H90   O65   S    
C24   C61   A    
C21   C58   A    
C68   H77   S    
O33   P14   D    
C77   H2    S    
Ba2   O6    S    
C27   C32   A    
C47   C65   S    
C40   P14   S    
C26   C83   A    
Ba2   O32   S    
Ba3   O16   S    
C1    C85   S    
C40   C44   A    
Ba1   O14   S    
C3    C79   S    
C67   O56   S    
C48   O4    S    
O32   P13   D    
H87   O59   S    
C44   C53   A    
H98   O80   S    
C66   H35   S    
C17   O85   S    
C61   P9    S    
C76   C102  S    
C81   H11   S    
Ba3   O8    S    
C85   O27   S    
C81   H15   S    
Ba1   O6    S    
C78   C104  S    
C3    O69   D    
C101  O60   D    
C41   C49   A    
C68   O45   S    
Ba2   O12   S    
C93   O46   S    
C10   C94   A    
C2    C61   A    
C7    C39   S    
O15   P5    S    
C74   C100  S    
C73   C99   S    
C6    O76   S    
O42   P3    D    
O1    P1    D    
C1    O84   S    
C28   O86   S    
Ba1   P1    S    
H97   O79   S    
C22   C59   A    
Ba4   O35   S    
C28   H30   S    
C63   H32   S    
C95   O47   D    
C29   C59   A    
C9    C83   A    
C30   C60   A    
H102  O84   S    
H99   O81   S    
C66   H66   S    
O23   P10   D    
C33   C55   A    
C34   C56   A    
O35   P15   D    
C22   C26   A    
O36   P16   S    
C82   H16   S    
Ba3   Ba4   S    
C86   C95   S    
C1    H27   S    
C15   O81   S    
C62   H57   S    
C88   H26   S    
C20   C24   A    
O28   P5    S    
Ba4   O11   S    
C39   C88   S    
C9    C13   A    
C101  O61   S    
Ba4   O17   S    
C45   O89   S    
C32   C91   A    
C34   C89   A    
O78   P15   S    
C100  O58   D    
O24   P9    S    
C72   P10   S    
C96   O49   D    
C80   H10   S    
Ba1   P12   S    
H80   O46   S    
C81   H20   S    
C82   H12   S    
C77   C81   S    
C43   C52   A    
O14   P6    S    
C77   C103  S    
C16   O82   S    
C50   P1    S    
C46   O90   S    
C51   P16   S    
C25   C72   A    
C11   C15   A    
H4    O88   S    
C74   H72   S    
H85   O54   S    
C99   O57   S    
C10   P6    S    
C68   H73   S    
H104  O86   S    
C4    O72   S    
C16   C21   A    
C78   O25   S    
O40   P16   D    
C27   C36   A    
H93   O72   S    
C10   C14   A    
C65   H69   S    
O67   P14   S    
C76   H94   S    
C63   H67   S    
Ba4   O8    S    
C98   O53   D    
C20   C62   A    
C86   H24   S    
C7    O79   S    
C44   H48   S    
C79   O26   S    
Ba4   P11   S    
Ba2   O15   S    
O4    P4    S    
C36   C41   A    
C42   H46   S    
O45   P12   S    
C2    H37   S    
O9    P1    S    
C75   H39   S    
C78   C82   S    
C29   C33   A    
C52   C56   A    
Ba1   O10   S    
C31   C35   A    
O10   P9    S    
Ba2   P9    S    
O21   P7    D    
C103  O64   D    
Ba4   O34   S    
C88   C97   S    
O43   P4    D    
C71   H50   S    
O20   P8    D    
C87   O29   S    
H3    O87   S    
C8    C72   A    
Ba1   O1    S    
C41   H45   S    
O2    P2    S    
C55   H42   S    
C47   O3    S    
H81   O48   S    
C67   H76   S    
Ba4   O39   S    
C84   H13   S    
O34   P11   D    
C13   C18   A    
Ba2   O37   S    
C29   C37   A    
C15   C20   A    
C78   H8    S    
C69   H74   S    
C64   H64   S    
C58   H54   S    
O18   P6    D    
C7    O77   D    
Ba3   O7    S    
C18   C22   A    
O41   P2    D    
O5    P13   S    
Ba1   O5    S    
Ba3   O33   S    
C46   C64   S    
O27   P6    S    
C12   P8    S    
C48   O92   S    
C102  O62   D    
C84   H22   S    
C23   C50   A    
C5    O74   S    
C32   C54   A    
H89   O63   S    
C28   C87   S    
C46   O2    S    
C80   H14   S    
C92   H53   S    
C75   C101  S    
Ba1   Ba2   S    
Ba3   P14   S    
C67   H71   S    
H6    O91   S    
C84   H18   S    
C2    C11   A    
O19   P5    D    
C88   O30   S    
O39   P4    S    
C71   C98   S    
C37   C42   A    
C39   H31   S    
C19   C23   A    
Ba3   O13   S    
C8    H38   S    
O17   P7    S    
C54   H41   S    
C80   H19   S    
O31   P12   D    
C47   H60   S    
O6    P12   S    
C104  O66   D    
O8    P14   S    
C70   O67   S    
C71   H1    S    
C91   H52   S    
C52   P4    S    
C25   C91   A    
H5    O90   S    
C70   H75   S    
C63   H63   S    
O11   P10   S    
C85   C93   S    
C45   O88   S    
C68   C73   S    
Ba2   O5    S    
C87   H25   S    
C69   C74   S    
C77   O24   S    
C64   H33   S    
C89   H49   S    
C31   C40   A    
Ba4   P15   S    
H7    O92   S    
C3    O70   S    
H95   O74   S    
C96   O50   S    
C97   O51   D    
C97   O52   S    
C103  O65   S    
C39   O87   S    
C45   C63   S    
C30   C34   A    
C6    O75   D    
Ba1   O36   S    
C82   H21   S    
O37   P2    S    
O25   P10   S    
O89   P16   S    
Ba2   P13   S    
C86   O28   S    
C49   P2    S    
H82   O50   S    
C67   C71   S    
O56   P13   S    
C43   H47   S    
C95   O48   S    
C38   C43   A    
O16   P8    S    
C57   H44   S    
C48   C66   S    
H88   O61   S    
O3    P3    S    
C6    C28   S    
C73   H61   S    
C98   O54   S    
C46   H59   S    
C50   C94   A    
C9    H40   S    
C104  O68   S    
C74   H28   S    
C36   P13   S    
