data_mof_unit_10077.cif
_audit_creation_date              2012-10-26T20:25:37-0400
_audit_creation_method            fapswitch 2.2
_symmetry_space_group_name_H-M    P1
_symmetry_Int_Tables_number       1
_space_group_crystal_system       triclinic
_cell_length_a                    23.498601
_cell_length_b                    10.713351
_cell_length_c                    9.532971
_cell_angle_alpha                 90.59958
_cell_angle_beta                  91.001323
_cell_angle_gamma                 88.94521
_cell_volume                      2399.01705199

loop_
_atom_site_label
_atom_site_type_symbol
_atom_type_description
_atom_site_fract_x
_atom_site_fract_y
_atom_site_fract_z
_atom_type_partial_charge
C1    C     C_R   0.504120 0.260095 0.499349 0.604010
C2    C     C_R   0.700449 0.579108 0.586926 -0.133431
C3    C     C_R   0.240316 0.418618 0.412359 -0.043641
C4    C     C_R   0.759689 0.581362 0.587580 -0.043641
C5    C     C_R   0.209616 0.498892 0.501136 0.204354
C6    C     C_R   0.790383 0.501043 0.498841 0.204347
C7    C     C_3   0.529918 0.036495 0.613114 0.023194
C8    C     C_3   0.470082 0.963505 0.386887 0.023181
C9    C     C_3   0.551436 0.944246 0.499205 -0.166327
C10   C     C_3   0.448564 0.055754 0.500796 -0.166356
C11   C     C_3   0.494002 0.876990 0.502272 -0.033888
C12   C     C_R   0.495880 0.739904 0.500651 0.603981
C13   C     C_3   0.505998 0.123009 0.497728 -0.033861
C14   C     C_3   0.472973 0.968631 0.616313 0.030597
C15   C     C_3   0.527026 0.031369 0.383688 0.030636
C16   C     C_R   0.391385 0.501613 0.499373 0.578643
C17   C     C_R   0.608615 0.498382 0.500627 0.578654
C18   C     C_3   0.521621 0.600511 0.051906 0.062680
C19   C     C_3   0.478379 0.399489 0.948093 0.062680
C20   C     C_3   0.470484 0.594006 0.948266 -0.036805
C21   C     C_3   0.529516 0.405994 0.051733 -0.036814
C22   C     C_3   0.550832 0.507456 0.953738 0.095064
C23   C     C_R   0.238669 0.580980 0.590969 -0.038196
C24   C     C_3   0.449168 0.492543 0.046261 0.095069
C25   C     C_R   0.879162 0.606816 0.464925 0.418924
C26   C     C_R   0.120838 0.393109 0.535017 0.418929
C27   C     C_R   0.880880 0.394118 0.537025 0.426061
C28   C     C_R   0.119121 0.605817 0.462948 0.426059
C29   C     C_R   0.940933 0.387621 0.528935 0.014316
C30   C     C_R   0.059067 0.612310 0.471027 0.014314
C31   C     C_R   0.969908 0.499041 0.499081 -0.045692
C32   C     C_R   0.030092 0.500888 0.500871 -0.045693
C33   C     C_R   0.938743 0.608925 0.467158 0.014357
C34   C     C_R   0.761323 0.418922 0.409058 -0.038201
C35   C     C_R   0.061257 0.391002 0.532788 0.014357
C36   C     C_R   0.973214 0.276042 0.553791 0.050906
C37   C     C_R   0.026786 0.723889 0.446175 0.050900
C38   C     C_R   0.032649 0.280455 0.559448 -0.098818
C39   C     C_R   0.967351 0.719474 0.440503 -0.098825
C40   C     C_2   0.947692 0.150896 0.563058 0.647505
C41   C     C_2   0.052307 0.849039 0.436939 0.647506
C42   C     C_2   0.549187 0.715469 0.111957 0.694370
C43   C     C_2   0.450815 0.284528 0.888041 0.694370
C44   C     C_2   0.611214 0.515631 0.906697 0.590387
C45   C     C_R   0.298108 0.586878 0.589906 0.027985
C46   C     C_2   0.388784 0.484381 0.093297 0.590380
C47   C     C_2   0.325971 0.681893 0.680506 0.589409
C48   C     C_2   0.674010 0.317999 0.319590 0.589431
C49   C     C_2   0.567927 0.065191 0.736606 0.639131
C50   C     C_2   0.432073 0.934812 0.263393 0.639122
C51   C     C_2   0.439653 0.945833 0.745317 0.686888
C52   C     C_2   0.560347 0.054162 0.254683 0.686876
C53   C     C_R   0.701883 0.413046 0.410131 0.027974
C54   C     C_R   0.328928 0.505546 0.499239 0.009312
C55   C     C_R   0.671070 0.494426 0.500758 0.009319
C56   C     C_R   0.299556 0.420890 0.413023 -0.133418
Cu1   Cu    Cu3+1 0.500010 0.499990 0.643150 1.079230
Cu2   Cu    Cu3+1 0.499990 0.500010 0.356850 1.079214
H1    H     H_    0.442808 0.667203 0.900730 0.168729
H2    H     H_    0.105083 0.976122 0.523138 0.362191
H3    H     H_    0.618733 0.622018 0.184878 0.316698
H4    H     H_    0.381271 0.377973 0.815103 0.316723
H5    H     H_    0.680618 0.622079 0.891912 0.344909
H6    H     H_    0.319365 0.377970 0.108008 0.344916
H7    H     H_    0.214401 0.642726 0.659112 0.189460
H8    H     H_    0.785585 0.357139 0.340946 0.189482
H9    H     H_    0.325416 0.780047 0.862334 0.366372
H10   H     H_    0.674555 0.219756 0.137818 0.366404
H11   H     H_    0.593991 0.897214 0.499389 0.178651
H12   H     H_    0.557193 0.332797 0.099269 0.168723
H13   H     H_    0.406008 0.102785 0.500612 0.178648
H14   H     H_    0.614326 0.190847 0.843408 0.356419
H15   H     H_    0.385676 0.809160 0.156584 0.356410
H16   H     H_    0.439370 0.883845 0.942357 0.359497
H17   H     H_    0.560634 0.116152 0.057645 0.359489
H18   H     H_    0.056754 0.194984 0.579280 0.187982
H19   H     H_    0.943246 0.804945 0.420672 0.187990
H20   H     H_    0.322727 0.354226 0.348899 0.159487
H21   H     H_    0.677284 0.645807 0.651016 0.159457
H22   H     H_    0.218255 0.354000 0.343360 0.162846
H23   H     H_    0.781755 0.646005 0.656541 0.162858
H24   H     H_    0.894911 0.023804 0.476906 0.362187
N1    N     N_R   0.851556 0.500954 0.500624 -0.399145
N2    N     N_R   0.148444 0.498976 0.499336 -0.399155
N3    N     N_3   0.500040 0.499970 0.858290 -0.308658
N4    N     N_3   0.499960 0.500030 0.141710 -0.308661
O1    O     O_R   0.500030 0.316850 0.620870 -0.463325
O2    O     O_2   0.151068 0.290055 0.572636 -0.467624
O3    O     O_2   0.851812 0.296764 0.585750 -0.423375
O4    O     O_2   0.148190 0.703179 0.414247 -0.423358
O5    O     O_2   0.962949 0.079932 0.656679 -0.472160
O6    O     O_R   0.908590 0.111540 0.460294 -0.616309
O7    O     O_2   0.037051 0.920019 0.343334 -0.472162
O8    O     O_R   0.091406 0.888380 0.539719 -0.616309
O9    O     O_2   0.526416 0.817081 0.094440 -0.410581
O10   O     O_R   0.601014 0.708783 0.185749 -0.606864
O11   O     O_2   0.473587 0.182918 0.905566 -0.410588
O12   O     O_R   0.499970 0.683150 0.379130 -0.463317
O13   O     O_R   0.398991 0.291209 0.814239 -0.606859
O14   O     O_2   0.637268 0.421077 0.871575 -0.487908
O15   O     O_R   0.638333 0.630548 0.909775 -0.667754
O16   O     O_2   0.362742 0.578934 0.128474 -0.487892
O17   O     O_R   0.361649 0.369483 0.090145 -0.667794
O18   O     O_2   0.368635 0.733613 0.641104 -0.494171
O19   O     O_R   0.302416 0.714895 0.809702 -0.662424
O20   O     O_2   0.631341 0.266323 0.359025 -0.494198
O21   O     O_R   0.697562 0.284916 0.190416 -0.662408
O22   O     O_2   0.582236 0.981406 0.816574 -0.428164
O23   O     O_R   0.500000 0.316860 0.379090 -0.472661
O24   O     O_R   0.588376 0.185415 0.757647 -0.637813
O25   O     O_2   0.417766 0.018599 0.183426 -0.428170
O26   O     O_R   0.411625 0.814589 0.242347 -0.637810
O27   O     O_2   0.390228 0.982818 0.752009 -0.436698
O28   O     O_R   0.465835 0.888063 0.859845 -0.610871
O29   O     O_2   0.609772 0.017169 0.247993 -0.436764
O30   O     O_R   0.534167 0.111935 0.140155 -0.610882
O31   O     O_R   0.500000 0.683140 0.620910 -0.472652
O32   O     O_R   0.417890 0.499960 0.620920 -0.518535
O33   O     O_R   0.582110 0.500040 0.379080 -0.518543
O34   O     O_R   0.417870 0.499970 0.379140 -0.458679
O35   O     O_R   0.582130 0.500030 0.620860 -0.458673
O36   O     O_2   0.848933 0.709864 0.427285 -0.467635

loop_
_geom_bond_atom_site_label_1
_geom_bond_atom_site_label_2
_ccdc_geom_bond_type
C1    O1    A    
H6    O17   S    
C23   C45   A    
C27   C29   A    
Cu2   O23   S    
Cu2   O12   S    
H5    O15   S    
C48   O20   D    
C34   H8    S    
H3    O10   S    
C56   H20   S    
C38   H18   S    
C46   O16   D    
C29   C36   A    
C33   C39   A    
C42   O10   S    
C39   H19   S    
C19   C21   S    
C43   O13   S    
C52   O30   S    
C2    C55   A    
C16   O34   A    
C8    C10   S    
C11   C14   S    
C48   O21   S    
C28   N2    A    
H16   O28   S    
H24   O6    S    
C22   N3    S    
Cu2   O33   S    
C2    H21   S    
C1    O23   A    
C7    C14   S    
C41   O7    D    
C4    H23   S    
C14   C51   S    
C47   O19   S    
C26   N2    A    
C31   C33   A    
C47   O18   D    
H10   O21   S    
C25   O36   S    
C17   C55   S    
C12   O12   A    
C10   H13   S    
C45   C47   S    
C21   C22   S    
C3    H22   S    
Cu2   N4    S    
Cu2   O34   S    
C19   C43   S    
C49   O22   D    
H14   O24   S    
C53   C55   A    
C48   C53   S    
C54   C56   A    
C51   O28   S    
C42   O9    D    
C32   C35   A    
C20   C24   S    
C36   C40   S    
C35   C38   A    
C7    C49   S    
C4    C6    A    
C10   C14   S    
C5    N2    S    
H9    O19   S    
C3    C5    A    
Cu1   O1    S    
C30   C37   A    
C2    C4    A    
C16   O32   A    
C3    C56   A    
C41   O8    S    
C5    C23   A    
C11   C12   S    
C20   N3    S    
C50   O26   S    
C18   N4    S    
C15   C52   S    
C40   O6    S    
C20   H1    S    
C9    C11   S    
C17   O35   A    
C45   C54   A    
C8    C15   S    
C13   C15   S    
C1    C13   S    
C8    C50   S    
H15   O26   S    
Cu1   O31   S    
C52   O29   D    
C7    C9    S    
C21   N4    S    
C22   C44   S    
C6    N1    S    
C18   C22   S    
C51   O27   D    
C31   C32   A    
C43   O11   D    
C9    H11   S    
C19   N3    S    
C10   C13   S    
C44   O15   S    
H17   O30   S    
C46   O17   S    
C21   H12   S    
C24   C46   S    
C23   H7    S    
C18   C42   S    
C19   C24   S    
C9    C15   S    
C28   C30   A    
C29   C31   A    
C30   C32   A    
H4    O13   S    
C44   O14   D    
Cu1   Cu2   S    
C8    C11   S    
C36   C38   A    
C50   O25   D    
Cu1   N3    S    
C27   O3    S    
C18   C20   S    
C40   O5    D    
C37   C41   S    
C16   C54   S    
C17   O33   A    
Cu1   O35   S    
C27   N1    A    
C26   O2    S    
C6    C34   A    
C26   C35   A    
C7    C13   S    
C34   C53   A    
C37   C39   A    
C25   N1    A    
C49   O24   S    
C28   O4    S    
C12   O31   A    
C24   N4    S    
C25   C33   A    
Cu1   O32   S    
H2    O8    S    
