data_mof_unit_57233.cif
_audit_creation_date              2012-12-10T18:24:47-0500
_audit_creation_method            fapswitch 2.2
_symmetry_space_group_name_H-M    P1
_symmetry_Int_Tables_number       1
_space_group_crystal_system       triclinic
_cell_length_a                    18.8505
_cell_length_b                    18.861426
_cell_length_c                    18.853444
_cell_angle_alpha                 109.395878
_cell_angle_beta                  109.252654
_cell_angle_gamma                 109.507048
_cell_volume                      5176.54719401

loop_
_atom_site_label
_atom_site_type_symbol
_atom_type_description
_atom_site_fract_x
_atom_site_fract_y
_atom_site_fract_z
_atom_type_partial_charge
C1    C     C_R   0.382539 0.500742 0.381996 0.790217
C2    C     C_R   0.734039 0.797187 0.809013 -0.189399
C3    C     C_R   0.080411 0.259481 0.754750 -0.103979
C4    C     C_R   0.795634 0.195483 0.769818 -0.043213
C5    C     C_R   0.711549 0.179328 0.749791 -0.098694
C6    C     C_R   0.669075 0.202439 0.693074 -0.117512
C7    C     C_R   0.711136 0.242778 0.657280 -0.127485
C8    C     C_R   0.795984 0.260951 0.678835 -0.190792
C9    C     C_R   0.838497 0.236628 0.734650 0.071124
C10   C     C_R   0.821144 0.824651 0.581567 -0.053865
C11   C     C_R   0.814386 0.814085 0.500773 -0.118426
C12   C     C_R   0.743537 0.739313 0.421947 0.058272
C13   C     C_R   0.681832 0.676281 0.424669 -0.079139
C14   C     C_R   0.687545 0.686391 0.503136 -0.058500
C15   C     C_R   0.755271 0.761745 0.581891 -0.065683
C16   C     C_R   0.697969 0.774371 0.305826 -0.092516
C17   C     C_R   0.682515 0.766299 0.225681 -0.161497
C18   C     C_R   0.698468 0.710012 0.171715 -0.026526
C19   C     C_R   0.619377 0.618811 0.500859 0.779150
C20   C     C_R   0.725918 0.656528 0.197182 -0.084342
C21   C     C_R   0.737192 0.661251 0.277689 -0.040287
C22   C     C_R   0.729257 0.726029 0.334934 0.016272
C23   C     C_R   0.414268 0.773572 0.542924 0.021769
C24   C     C_R   0.360413 0.690216 0.470591 -0.056642
C25   C     C_R   0.380268 0.664126 0.404315 -0.027349
C26   C     C_R   0.455457 0.721949 0.409950 -0.057981
C27   C     C_R   0.510782 0.806081 0.484150 0.018157
C28   C     C_R   0.488282 0.831157 0.548569 -0.285493
C29   C     C_R   0.252964 0.575938 0.258566 -0.155790
C30   C     C_R   0.617171 0.499433 0.618439 0.824933
C31   C     C_R   0.186936 0.496868 0.185119 -0.009129
C32   C     C_R   0.183335 0.418614 0.177546 0.056468
C33   C     C_R   0.249643 0.421731 0.241804 -0.184395
C34   C     C_R   0.315850 0.501079 0.315719 -0.087155
C35   C     C_R   0.315978 0.578701 0.325451 -0.014393
C36   C     C_R   0.030082 0.293606 0.101981 0.033202
C37   C     C_R   0.962232 0.214215 0.028839 -0.282821
C38   C     C_R   0.971925 0.174177 0.958050 0.062849
C39   C     C_R   0.051662 0.213016 0.961712 -0.155145
C40   C     C_R   0.120541 0.290904 0.034915 -0.180395
C41   C     C_R   0.379943 0.381388 0.499059 0.804113
C42   C     C_R   0.110181 0.333011 0.104395 0.076835
C43   C     C_R   0.243994 0.532554 0.583632 -0.205776
C44   C     C_R   0.267999 0.469193 0.576918 -0.117154
C45   C     C_R   0.223458 0.390833 0.498725 0.010152
C46   C     C_R   0.152772 0.375878 0.426474 -0.040052
C47   C     C_R   0.127725 0.439137 0.434979 -0.111395
C48   C     C_R   0.173087 0.517589 0.513154 0.030340
C49   C     C_R   0.176128 0.251541 0.495733 -0.223146
C50   C     C_R   0.185523 0.181216 0.495480 -0.066675
C51   C     C_R   0.259271 0.176685 0.496926 0.007224
C52   C     C_R   0.706173 0.837075 0.763740 0.051971
C53   C     C_R   0.322133 0.243766 0.498600 -0.204691
C54   C     C_R   0.313043 0.314801 0.499677 -0.029105
C55   C     C_R   0.239476 0.319148 0.498982 0.038392
C56   C     C_R   0.347178 0.115676 0.557335 -0.131247
C57   C     C_R   0.360166 0.045904 0.552959 -0.111186
C58   C     C_R   0.298295 0.962168 0.483974 -0.108895
C59   C     C_R   0.223463 0.948148 0.419199 -0.130954
C60   C     C_R   0.209633 0.017603 0.423864 -0.117716
C61   C     C_R   0.271315 0.101996 0.493362 0.109047
C62   C     C_2   0.737071 0.432410 0.764622 -0.097504
C63   C     C_R   0.717164 0.828398 0.691660 -0.080489
C64   C     C_2   0.821083 0.493019 0.809039 -0.257833
C65   C     C_2   0.674479 0.428535 0.689496 -0.175001
C66   C     C_2   0.682731 0.500970 0.687433 -0.259416
C67   C     C_R   0.998771 0.879008 0.382016 0.762910
C68   C     C_R   0.881129 0.879956 0.498981 0.870027
C69   C     C_R   0.000092 0.119362 0.618201 0.904444
C70   C     C_R   0.118803 0.116152 0.497414 0.772462
C71   C     C_R   0.003174 0.381321 0.884312 0.829854
C72   C     C_R   0.121022 0.498005 0.119315 0.881023
C73   C     C_R   0.003344 0.618784 0.122063 0.828757
C74   C     C_R   0.753149 0.778040 0.663639 0.032313
C75   C     C_R   0.885332 0.497697 0.882446 0.824714
C76   C     C_R   0.138943 0.775365 0.552953 -0.084937
C77   C     C_R   0.117546 0.767413 0.471244 -0.095150
C78   C     C_R   0.034537 0.749466 0.416580 0.053807
C79   C     C_R   0.974000 0.740408 0.445343 -0.042596
C80   C     C_R   0.995094 0.747164 0.526551 -0.062828
C81   C     C_R   0.077557 0.764542 0.580323 -0.124073
C82   C     C_R   0.014610 0.682071 0.267191 -0.032560
C83   C     C_R   0.004942 0.685677 0.190849 -0.078449
C84   C     C_R   0.995909 0.753359 0.180169 -0.045731
C85   C     C_R   0.779600 0.737602 0.708827 -0.133863
C86   C     C_R   0.988627 0.812039 0.241149 -0.197265
C87   C     C_R   0.997369 0.809273 0.316393 -0.067512
C88   C     C_R   0.013379 0.745901 0.331588 -0.059709
C89   C     C_R   0.080385 0.836718 0.131702 -0.223735
C90   C     C_R   0.093153 0.853959 0.068800 -0.028002
C91   C     C_R   0.026670 0.799692 0.980893 0.009921
C92   C     C_R   0.947136 0.734407 0.960007 -0.192339
C93   C     C_R   0.933556 0.719032 0.023685 -0.001109
C94   C     C_R   0.002127 0.769338 0.110027 0.046430
C95   C     C_R   0.297059 0.266349 0.821129 -0.047246
C96   C     C_R   0.770827 0.748098 0.781829 -0.036582
C97   C     C_R   0.216509 0.253017 0.814138 -0.154282
C98   C     C_R   0.163237 0.269685 0.757945 0.123998
C99   C     C_R   0.190486 0.300319 0.708282 -0.127543
C100  C     C_R   0.270059 0.313642 0.714206 -0.178382
C101  C     C_R   0.323387 0.295062 0.768476 -0.002451
C102  C     C_R   0.081862 0.323194 0.821308 -0.058521
C103  C     C_R   0.002585 0.314377 0.816577 -0.142220
C104  C     C_R   0.922463 0.242750 0.745443 -0.076261
C105  C     C_R   0.921407 0.176915 0.681459 -0.020817
C106  C     C_R   0.000454 0.186140 0.685771 -0.097647
Cu1   Cu    Cu3+1 0.499580 0.561790 0.561390 0.988307
Cu2   Cu    Cu3+1 0.500420 0.438210 0.438610 0.993797
Cu3   Cu    Cu3+1 0.061410 0.999960 0.561370 1.032318
Cu4   Cu    Cu3+1 0.938590 0.000000 0.438590 0.990381
Cu5   Cu    Cu3+1 0.065060 0.561820 0.003180 1.015602
Cu6   Cu    Cu3+1 0.941450 0.438250 0.003210 1.007991
H1    H     H_    0.726503 0.803263 0.864916 0.136826
H2    H     H_    0.529998 0.895544 0.604788 0.199445
H3    H     H_    0.301959 0.645500 0.464798 0.185245
H4    H     H_    0.253721 0.635612 0.265120 0.159267
H5    H     H_    0.247818 0.361800 0.235653 0.172837
H6    H     H_    0.900554 0.184479 0.026133 0.157952
H7    H     H_    0.060920 0.183106 0.908108 0.187115
H8    H     H_    0.181976 0.319253 0.036946 0.183074
H9    H     H_    0.279179 0.592278 0.644841 0.161100
H10   H     H_    0.319672 0.480039 0.633835 0.163640
H11   H     H_    0.071878 0.426748 0.380954 0.231395
H12   H     H_    0.695135 0.858034 0.655391 0.166353
H13   H     H_    0.119761 0.254982 0.495652 0.147404
H14   H     H_    0.378504 0.240429 0.498672 0.140685
H15   H     H_    0.396299 0.180359 0.610408 0.148629
H16   H     H_    0.418555 0.056880 0.602692 0.137742
H17   H     H_    0.308716 0.908279 0.480299 0.128046
H18   H     H_    0.176631 0.883493 0.365039 0.136498
H19   H     H_    0.151701 0.005858 0.372744 0.107167
H20   H     H_    0.713994 0.382890 0.781406 0.174873
H21   H     H_    0.844930 0.538916 0.788481 0.142990
H22   H     H_    0.617657 0.366255 0.638663 0.138509
H23   H     H_    0.805703 0.697135 0.686756 0.135344
H24   H     H_    0.733169 0.563923 0.743101 0.158882
H25   H     H_    0.094199 0.770548 0.643528 0.141387
H26   H     H_    0.203167 0.790077 0.595141 0.166745
H27   H     H_    0.165898 0.776459 0.451049 0.126979
H28   H     H_    0.912023 0.731683 0.406071 0.134165
H29   H     H_    0.948054 0.740506 0.548371 0.141685
H30   H     H_    0.981405 0.863678 0.232255 0.165306
H31   H     H_    0.131791 0.876603 0.198793 0.130417
H32   H     H_    0.791103 0.717010 0.816746 0.152931
H33   H     H_    0.896509 0.692895 0.892964 0.163663
H34   H     H_    0.195812 0.231813 0.854265 0.162622
H35   H     H_    0.150352 0.314575 0.665475 0.128579
H36   H     H_    0.289419 0.337279 0.674899 0.175682
H37   H     H_    0.826929 0.175174 0.811782 0.147840
H38   H     H_    0.678817 0.147611 0.777106 0.149896
H39   H     H_    0.603539 0.188905 0.676658 0.128239
H40   H     H_    0.677886 0.259765 0.612595 0.140076
H41   H     H_    0.827386 0.290908 0.649574 0.138599
H42   H     H_    0.627324 0.619569 0.364501 0.134998
H43   H     H_    0.686173 0.819888 0.346120 0.193823
H44   H     H_    0.660451 0.806765 0.206983 0.181203
O1    O     O_R   0.410050 0.552190 0.462250 -0.574759
O2    O     O_R   0.948740 0.909840 0.358530 -0.586838
O3    O     O_R   0.961680 0.909780 0.551820 -0.567408
O4    O     O_R   0.857970 0.909820 0.448140 -0.580795
O5    O     O_R   0.051260 0.090120 0.641420 -0.545710
O6    O     O_R   0.947550 0.090150 0.537740 -0.587506
O7    O     O_R   0.142030 0.090140 0.551820 -0.577516
O8    O     O_R   0.038320 0.090170 0.448130 -0.587089
O9    O     O_R   0.056040 0.462030 0.913600 -0.570436
O10   O     O_R   0.951650 0.357670 0.913630 -0.597897
O11   O     O_R   0.145040 0.552210 0.092780 -0.576107
O12   O     O_R   0.410760 0.447830 0.358560 -0.584740
O13   O     O_R   0.040660 0.447850 0.092810 -0.561925
O14   O     O_R   0.054850 0.642400 0.092760 -0.589269
O15   O     O_R   0.950470 0.538040 0.092790 -0.551401
O16   O     O_R   0.965850 0.552220 0.913580 -0.595769
O17   O     O_R   0.861470 0.447860 0.913610 -0.581451
O18   O     O_R   0.589820 0.642360 0.551840 -0.578052
O19   O     O_R   0.590530 0.538000 0.448150 -0.579183
O20   O     O_R   0.589240 0.552170 0.641440 -0.571518
O21   O     O_R   0.589950 0.447810 0.537750 -0.578280
O22   O     O_R   0.409470 0.462000 0.551850 -0.586351
O23   O     O_R   0.410180 0.357640 0.448160 -0.579172
O24   O     O_R   0.052450 0.909800 0.462220 -0.580274
C107  C     C_2   0.686876 0.710680 0.090104 0.825666
O25   O     O_2   0.734346 0.700125 0.061702 -0.599502
O26   O     O_R   0.623350 0.727073 0.047348 -0.749440
H45   H     H_    0.622309 0.727052 0.993224 0.343356
C108  C     C_2   0.740495 0.594896 0.138456 0.342086
H46   H     H_    0.698148 0.560994 0.068922 0.129439
O27   O     O_2   0.801605 0.583676 0.166950 -0.568895
C109  C     C_2   0.749211 0.593694 0.296550 0.362367
H47   H     H_    0.730841 0.532521 0.244324 0.134769
O28   O     O_2   0.778734 0.604279 0.369710 -0.567834
C110  C     C_2   0.394700 0.801659 0.613703 0.331981
H48   H     H_    0.435460 0.867706 0.667502 0.104039
O29   O     O_2   0.333542 0.751463 0.613398 -0.602080
C111  C     C_2   0.471901 0.694198 0.336190 0.397260
H49   H     H_    0.452626 0.626724 0.298391 0.060779
O30   O     O_2   0.503072 0.745223 0.314235 -0.521897
C112  C     C_2   0.594508 0.867793 0.498902 0.900582
O31   O     O_2   0.621365 0.945799 0.536524 -0.597794
O32   O     O_R   0.644413 0.836992 0.472863 -0.762866
H50   H     H_    0.699017 0.884881 0.484646 0.361435
C113  C     C_2   0.664063 0.885654 0.791437 0.419800
H51   H     H_    0.653918 0.889207 0.845671 0.069253
O33   O     O_2   0.640633 0.922657 0.754604 -0.566504
C114  C     C_2   0.012470 0.333270 0.171946 0.420132
H52   H     H_    0.949095 0.300197 0.165008 0.079063
O34   O     O_2   0.067066 0.402745 0.237411 -0.527547
C115  C     C_2   0.897992 0.092944 0.879768 0.807149
O35   O     O_2   0.834917 0.050453 0.882619 -0.595348
O36   O     O_R   0.898776 0.066086 0.801683 -0.733334
H53   H     H_    0.842045 0.012845 0.751950 0.356491
C116  C     C_2   0.145357 0.583183 0.522903 0.399356
H54   H     H_    0.178222 0.641324 0.585203 0.101166
O37   O     O_2   0.085272 0.572960 0.461889 -0.547746
C117  C     C_2   0.101808 0.293452 0.342876 0.855832
O38   O     O_2   0.137584 0.256106 0.316950 -0.590117
O39   O     O_R   0.012454 0.258399 0.293615 -0.773051
H55   H     H_    0.984717 0.201978 0.238146 0.330271
C118  C     C_2   0.028496 0.613895 0.282288 0.409297
H56   H     H_    0.001198 0.588307 0.316598 0.142774
O40   O     O_2   0.073575 0.588737 0.260346 -0.542284
C119  C     C_2   0.175532 0.930937 0.099267 0.420282
H57   H     H_    0.231621 0.956296 0.160863 0.059962
O41   O     O_2   0.180789 0.969676 0.058998 -0.490887
C120  C     C_2   0.038838 0.805409 0.908737 0.894755
O42   O     O_2   0.108465 0.821827 0.911430 -0.550154
O43   O     O_R   0.969207 0.788106 0.835610 -0.800941
H58   H     H_    0.984972 0.793006 0.790297 0.324373
C121  C     C_2   0.848393 0.650212 0.999354 0.406696
H59   H     H_    0.840456 0.630052 0.045059 0.116146
O44   O     O_2   0.785339 0.615993 0.928170 -0.540336
C122  C     C_2   0.402977 0.302658 0.764648 0.851262
O45   O     O_2   0.431749 0.256614 0.778959 -0.581125
O46   O     O_R   0.442958 0.360032 0.740426 -0.770508
H60   H     H_    0.495299 0.358100 0.738088 0.330509
C123  C     C_2   0.352833 0.254333 0.887464 0.878121
O47   O     O_2   0.431351 0.302681 0.929021 -0.557827
O48   O     O_R   0.314827 0.189871 0.905374 -0.754282
H61   H     H_    0.359122 0.188703 0.952703 0.347352
C124  C     C_2   0.166785 0.398987 0.895332 0.861814
O49   O     O_2   0.183084 0.418874 0.969772 -0.630468
O50   O     O_R   0.227799 0.447668 0.879569 -0.742608
H62   H     H_    0.282880 0.497052 0.934861 0.345029
C125  C     C_2   0.836892 0.097410 0.612189 0.416903
H63   H     H_    0.778881 0.101427 0.585103 0.103753
O51   O     O_2   0.830509 0.026002 0.587249 -0.528970
C126  C     C_2   0.895277 0.900080 0.666850 0.393777
H64   H     H_    0.916017 0.892020 0.723202 0.090047
O52   O     O_2   0.931724 0.972219 0.676463 -0.468143

loop_
_geom_bond_atom_site_label_1
_geom_bond_atom_site_label_2
_ccdc_geom_bond_type
C111  O30   D    
C87   C88   A    
C59   H18   S    
C33   H5    S    
C93   C94   A    
C56   C61   A    
C75   O17   A    
Cu1   O18   S    
C123  O48   S    
C97   H34   S    
C36   C42   A    
Cu5   Cu6   S    
C51   C61   S    
O26   H45   S    
C70   O7    A    
C75   O16   A    
C57   H16   S    
C121  O44   D    
C63   H12   S    
C57   C58   A    
C7    C8    A    
Cu6   O13   S    
C77   C78   A    
C11   C68   S    
C81   H25   S    
C4    H37   S    
C111  H49   S    
C102  C124  S    
C119  H57   S    
C36   C37   A    
C69   O5    A    
O50   H62   S    
C67   O24   A    
C5    C6    A    
C85   C96   A    
C117  O39   S    
C108  O27   D    
Cu6   O15   S    
Cu1   O20   S    
C58   H17   S    
C125  H63   S    
Cu2   O19   S    
C12   C22   S    
C56   C57   A    
C109  O28   D    
C34   C35   A    
C113  H51   S    
C56   H15   S    
C44   H10   S    
C89   C94   A    
C112  O32   S    
C39   H7    S    
C100  C101  A    
C62   C64   D    
C20   C108  S    
C64   H21   S    
C118  O40   D    
C30   O21   A    
C108  H46   S    
C37   H6    S    
C124  O49   D    
C53   C54   A    
C16   C17   A    
C46   C117  S    
C71   O10   A    
C27   C112  S    
C123  O47   D    
Cu5   O9    S    
C73   O15   A    
C68   O3    A    
C59   C60   A    
C43   C48   A    
C43   H9    S    
C65   H22   S    
Cu4   O2    S    
C126  H64   S    
C40   C42   A    
Cu6   O17   S    
Cu2   O12   S    
O32   H50   S    
C13   C14   A    
C120  O42   D    
C105  C125  S    
C114  H52   S    
C113  O33   D    
C112  O31   D    
C95   C123  S    
C12   C13   A    
C60   H19   S    
C30   O20   A    
C104  C105  A    
Cu1   O1    S    
C1    C34   S    
C97   C98   A    
C76   C77   A    
C107  O26   S    
C3    C106  A    
Cu4   O6    S    
C13   H42   S    
O36   H53   S    
C126  O52   D    
C38   C115  S    
C68   O4    A    
C115  O35   D    
C101  C122  S    
C47   C48   A    
C62   H20   S    
C41   O22   A    
C24   C25   A    
C90   C119  S    
C122  O46   S    
Cu3   O7    S    
C89   C90   A    
C91   C92   A    
Cu4   O8    S    
C117  O38   D    
C8    C9    A    
C1    O12   A    
C50   C51   A    
C58   C59   A    
C49   C55   A    
C23   C110  S    
C91   C120  S    
Cu5   O16   S    
C110  H48   S    
Cu2   O23   S    
C70   O8    A    
C109  H47   S    
C51   C53   A    
C124  O50   S    
C107  O25   D    
C43   C44   A    
C110  O29   D    
C116  H54   S    
C37   C38   A    
C36   C114  S    
C96   H32   S    
C47   H11   S    
C83   C84   A    
C82   C118  S    
C48   C116  S    
Cu1   Cu2   S    
O39   H55   S    
Cu6   O10   S    
C16   H43   S    
C17   C18   A    
C26   C27   A    
C53   H14   S    
O43   H58   S    
C25   C26   A    
C84   C94   S    
C23   C28   A    
C69   O6    A    
C8    H41   S    
C30   C66   S    
C2    C52   A    
C25   C35   S    
C66   H24   S    
C6    H39   S    
C3    C102  A    
C31   C72   S    
C116  O37   D    
C29   H4    S    
C85   H23   S    
C98   C99   A    
Cu1   O22   S    
C52   C113  S    
C72   O11   A    
Cu5   O11   S    
C90   C91   A    
Cu3   O3    S    
C103  C104  A    
Cu4   O4    S    
C44   C45   A    
C86   H30   S    
C21   C109  S    
C86   C87   A    
O46   H60   S    
C78   C88   S    
C99   H35   S    
C54   C55   A    
C16   C22   A    
C62   C65   S    
C40   H8    S    
C92   H33   S    
C78   C79   A    
C14   C19   S    
C41   O23   A    
C31   C32   A    
C77   H27   S    
C84   C86   A    
C80   C81   A    
C52   C63   A    
C120  O43   S    
C76   C81   A    
C69   C106  S    
C95   C97   A    
Cu3   O24   S    
C6    C7    A    
C63   C74   A    
C76   H26   S    
C49   H13   S    
C105  C106  A    
C29   C35   A    
C67   C87   S    
C18   C107  S    
C99   C100  A    
C10   C126  S    
C10   C15   A    
Cu5   O14   S    
C32   C33   A    
C2    C96   A    
C73   O14   A    
C19   O18   A    
C29   C31   A    
C89   H31   S    
Cu3   Cu4   S    
C72   O13   A    
C114  O34   D    
C7    H40   S    
C93   C121  S    
C118  H56   S    
C38   C39   A    
C100  H36   S    
C9    C104  S    
C82   C88   A    
O48   H61   S    
C28   H2    S    
C1    O1    A    
C92   C93   A    
C2    H1    S    
C64   C75   S    
C33   C34   A    
Cu2   O21   S    
C79   H28   S    
C67   O2    A    
C18   C20   A    
C65   C66   D    
C74   C85   A    
C50   C70   S    
C102  C103  A    
C19   O19   A    
C41   C54   S    
C46   C47   A    
C10   C11   A    
C5    H38   S    
C23   C24   A    
C121  H59   S    
C79   C80   A    
C39   C40   A    
C45   C46   A    
C4    C5    A    
C15   C74   S    
C20   C21   A    
C45   C55   S    
C24   H3    S    
C119  O41   D    
C49   C50   A    
C71   O9    A    
C122  O45   D    
C115  O36   S    
C32   C42   S    
C14   C15   A    
C60   C61   A    
Cu3   O5    S    
C125  O51   D    
C82   C83   A    
C4    C9    A    
C21   C22   A    
C17   H44   S    
C71   C103  S    
C73   C83   S    
C80   H29   S    
C3    C98   S    
C95   C101  A    
C11   C12   A    
C27   C28   A    
C26   C111  S    
