data_mof_unit_23951.cif
_audit_creation_date              2013-03-05T15:39:31-0500
_audit_creation_method            fapswitch 2.2
_symmetry_space_group_name_H-M    P1
_symmetry_Int_Tables_number       1
_space_group_crystal_system       triclinic
_cell_length_a                    19.776077
_cell_length_b                    16.978489
_cell_length_c                    15.422458
_cell_angle_alpha                 90.034247
_cell_angle_beta                  53.507698
_cell_angle_gamma                 90.261684
_cell_volume                      4163.02130853

loop_
_atom_site_label
_atom_site_type_symbol
_atom_site_description
_atom_site_fract_x
_atom_site_fract_y
_atom_site_fract_z
_atom_type_partial_charge
C1    C     C_R   0.343771 0.178550 0.043233 -0.103220
C2    C     C_R   0.374058 0.802170 0.995646 -0.151321
C3    C     C_R   0.849077 0.683432 0.032225 -0.122565
C4    C     C_R   0.843795 0.320853 0.043652 -0.103441
H1    H     H_    0.340696 0.232568 0.081886 0.086597
H2    H     H_    0.376696 0.747931 0.029709 0.085798
H3    H     H_    0.848982 0.740572 0.062528 0.091257
H4    H     H_    0.840249 0.267421 0.083582 0.087054
N1    N     N_R   0.408680 0.130160 0.995800 -0.044464
N2    N     N_R   0.408680 0.869840 0.995800 -0.041408
N3    N     N_R   0.908680 0.630160 0.995800 -0.044130
N4    N     N_R   0.908680 0.369840 0.995800 -0.045621
C5    C     C_R   0.351437 0.826399 0.219090 -0.104830
C6    C     C_R   0.396204 0.198909 0.209186 -0.154926
C7    C     C_R   0.896444 0.300878 0.209249 -0.153711
C8    C     C_R   0.858630 0.679600 0.221683 -0.167172
H5    H     H_    0.331785 0.776858 0.195581 0.091636
H6    H     H_    0.388452 0.253840 0.181046 0.083960
H7    H     H_    0.888514 0.245873 0.181271 0.083671
H8    H     H_    0.846922 0.735752 0.201089 0.091145
N5    N     N_R   0.421680 0.867580 0.153120 -0.044713
N6    N     N_R   0.421680 0.132420 0.153120 -0.035774
N7    N     N_R   0.921680 0.367580 0.153120 -0.036451
N8    N     N_R   0.921680 0.632420 0.153120 -0.038537
C9    C     C_R   0.366703 0.888510 0.895454 -0.117785
C10   C     C_R   0.329741 0.087567 0.951953 -0.109978
C11   C     C_R   0.831264 0.409050 0.948851 -0.104489
C12   C     C_R   0.835674 0.593455 0.940168 -0.104095
H9    H     H_    0.362608 0.914922 0.834898 0.118502
H10   H     H_    0.307746 0.053054 0.914222 0.095785
H11   H     H_    0.811171 0.438298 0.905827 0.093492
H12   H     H_    0.818321 0.565143 0.893367 0.100949
N9    N     N_R   0.403730 0.921770 0.935950 -0.047783
N10   N     N_R   0.403730 0.078230 0.935950 -0.041279
N11   N     N_R   0.903730 0.421770 0.935950 -0.041784
N12   N     N_R   0.903730 0.578230 0.935950 -0.043462
C13   C     C_R   0.408526 0.108027 0.302265 -0.139763
C14   C     C_R   0.362439 0.917190 0.315541 -0.161181
C15   C     C_R   0.867269 0.585425 0.316620 -0.141273
C16   C     C_R   0.908911 0.391992 0.302064 -0.135944
H13   H     H_    0.416741 0.078270 0.357315 0.089523
H14   H     H_    0.354916 0.951906 0.379297 0.103368
H15   H     H_    0.861918 0.551561 0.379615 0.097555
H16   H     H_    0.917403 0.422008 0.356790 0.091715
N13   N     N_R   0.426630 0.075970 0.212960 -0.032750
N14   N     N_R   0.426630 0.924030 0.212960 -0.040848
N15   N     N_R   0.926630 0.575970 0.212960 -0.037455
N16   N     N_R   0.926630 0.424030 0.212960 -0.033560
C17   C     C_R   0.289235 0.150347 0.022951 0.133890
C18   C     C_R   0.349177 0.811660 0.930134 0.137019
C19   C     C_R   0.796928 0.656869 0.008031 0.140966
C20   C     C_R   0.790045 0.347667 0.021996 0.132610
C21   C     C_R   0.313473 0.855461 0.322303 0.050492
C22   C     C_R   0.388043 0.185559 0.303274 0.036262
C23   C     C_R   0.888919 0.314165 0.302957 0.033900
C24   C     C_R   0.821639 0.649489 0.324521 0.047332
C25   C     C_R   0.619254 0.200779 0.017065 -0.173771
C26   C     C_R   0.621874 0.800170 0.011888 -0.155528
C27   C     C_R   0.162934 0.673828 0.946488 -0.157833
C28   C     C_R   0.119786 0.299197 0.015760 -0.172669
H17   H     H_    0.607342 0.257606 0.997272 0.095368
H18   H     H_    0.610921 0.743277 0.990619 0.095433
H19   H     H_    0.176140 0.719814 0.890221 0.102227
H20   H     H_    0.108477 0.242428 0.994783 0.094863
N17   N     N_R   0.591320 0.134600 0.004200 -0.041971
N18   N     N_R   0.591320 0.865400 0.004200 -0.039204
N19   N     N_R   0.091320 0.634600 0.004200 -0.044460
N20   N     N_R   0.091320 0.365400 0.004200 -0.041176
C29   C     C_R   0.600734 0.800814 0.792673 -0.134372
C30   C     C_R   0.648506 0.173016 0.782440 -0.043735
C31   C     C_R   0.147528 0.326502 0.782165 -0.051012
C32   C     C_R   0.098556 0.699677 0.792756 -0.136200
H21   H     H_    0.605886 0.745281 0.822479 0.090959
H22   H     H_    0.666471 0.222932 0.808011 0.088147
H23   H     H_    0.165236 0.276593 0.807736 0.088105
H24   H     H_    0.100545 0.755940 0.823852 0.089014
N21   N     N_R   0.578320 0.867660 0.846880 -0.036514
N22   N     N_R   0.578320 0.132340 0.846880 -0.040010
N23   N     N_R   0.078320 0.367660 0.846880 -0.040757
N24   N     N_R   0.078320 0.632340 0.846880 -0.040506
C33   C     C_R   0.640860 0.078754 0.685721 -0.104261
C34   C     C_R   0.590429 0.893131 0.698507 -0.141036
C35   C     C_R   0.090015 0.606765 0.698245 -0.144817
C36   C     C_R   0.139900 0.420520 0.685184 -0.100046
H25   H     H_    0.651527 0.043785 0.620163 0.079459
H26   H     H_    0.583889 0.923305 0.642320 0.116037
H27   H     H_    0.085258 0.576151 0.640656 0.124339
H28   H     H_    0.150467 0.455337 0.619538 0.079711
N25   N     N_R   0.573370 0.074390 0.787040 -0.032658
N26   N     N_R   0.573370 0.925610 0.787040 -0.042815
N27   N     N_R   0.073370 0.574390 0.787040 -0.044135
N28   N     N_R   0.073370 0.425610 0.787040 -0.032853
C37   C     C_R   0.634537 0.895500 0.103548 -0.142722
C38   C     C_R   0.631713 0.105172 0.107444 -0.130984
C39   C     C_R   0.130994 0.394014 0.108011 -0.153213
C40   C     C_R   0.172512 0.580250 0.043366 -0.140657
H29   H     H_    0.640137 0.923389 0.162090 0.109202
H30   H     H_    0.636226 0.076442 0.166366 0.103872
H31   H     H_    0.134393 0.421771 0.168437 0.108488
H32   H     H_    0.195705 0.544879 0.078624 0.105615
N29   N     N_R   0.596270 0.927870 0.064040 -0.040875
N30   N     N_R   0.596270 0.072130 0.064040 -0.039582
N31   N     N_R   0.096270 0.427870 0.064040 -0.039154
N32   N     N_R   0.096270 0.572130 0.064040 -0.042576
Ni1   Ni    Ni4+2 0.500000 0.131190 0.000000 0.227216
Ni2   Ni    Ni4+2 0.500000 0.868810 0.000000 0.204693
Ni3   Ni    Ni4+2 0.000000 0.631190 0.000000 0.208568
Ni4   Ni    Ni4+2 0.000000 0.368810 0.000000 0.226145
Ni5   Ni    Ni4+2 0.488650 0.000000 0.862740 0.242543
Ni6   Ni    Ni4+2 0.988650 0.500000 0.862740 0.253650
Ni7   Ni    Ni4+2 0.511350 0.000000 0.137260 0.204535
Ni8   Ni    Ni4+2 0.011350 0.500000 0.137260 0.210704
C41   C     C_R   0.645518 0.185096 0.080449 0.108939
C42   C     C_R   0.650494 0.816572 0.072007 0.103270
C43   C     C_R   0.215277 0.642614 0.969512 0.103382
C44   C     C_R   0.145874 0.314350 0.079401 0.111949
C45   C     C_R   0.607600 0.814838 0.699811 0.066461
C46   C     C_R   0.687970 0.141884 0.679876 0.007360
C47   C     C_R   0.186267 0.357131 0.679340 0.008304
C48   C     C_R   0.105049 0.685640 0.699965 0.082424
C49   C     C_3   0.331323 0.191870 0.495895 -0.439223
C50   C     C_3   0.211129 0.867626 0.521187 -0.437453
C51   C     C_3   0.706990 0.633433 0.519887 -0.401242
C52   C     C_3   0.834983 0.306828 0.494645 -0.438000
H33   H     H_    0.394151 0.179228 0.476524 0.159385
H34   H     H_    0.258443 0.892728 0.530563 0.161767
H35   H     H_    0.745028 0.591040 0.528798 0.150339
H36   H     H_    0.898504 0.319317 0.473463 0.160897
H37   H     H_    0.297805 0.134653 0.512290 0.203934
H38   H     H_    0.180451 0.917521 0.510330 0.194152
H39   H     H_    0.666723 0.598284 0.505798 0.212038
H40   H     H_    0.801865 0.364075 0.512208 0.205670
C53   C     C_3   0.281496 0.241177 0.597824 -0.371294
C54   C     C_3   0.145769 0.823331 0.625856 -0.368353
C55   C     C_3   0.651741 0.678680 0.626349 -0.370574
C56   C     C_3   0.785901 0.256935 0.596539 -0.369203
H41   H     H_    0.585368 0.658221 0.673282 0.210397
H42   H     H_    0.738787 0.295571 0.663723 0.197783
H43   H     H_    0.232644 0.202538 0.664156 0.198997
H44   H     H_    0.081490 0.844330 0.660073 0.220738
H45   H     H_    0.323174 0.261358 0.619780 0.170479
H46   H     H_    0.157733 0.838050 0.685816 0.150308
H47   H     H_    0.674146 0.665234 0.675929 0.152022
H48   H     H_    0.828578 0.235554 0.616068 0.173268
H49   H     H_    0.436618 0.307360 0.389718 0.136575
H50   H     H_    0.357556 0.776856 0.429633 0.151933
H51   H     H_    0.845440 0.703946 0.473968 0.146893
H52   H     H_    0.937339 0.190953 0.387819 0.137465
H53   H     H_    0.766456 0.789267 0.609813 0.190677
H54   H     H_    0.850577 0.104478 0.523103 0.182435
H55   H     H_    0.350424 0.392953 0.525323 0.182533
H56   H     H_    0.267083 0.735594 0.598387 0.190615
C57   C     C_3   0.381454 0.318380 0.389792 0.084436
C58   C     C_3   0.305373 0.746200 0.434471 0.079252
C59   C     C_3   0.814057 0.744788 0.451598 0.079904
C60   C     C_3   0.881575 0.180687 0.388804 0.082704
C61   C     C_3   0.702506 0.742282 0.414462 -0.537145
C62   C     C_3   0.752261 0.255639 0.429750 -0.503464
C63   C     C_3   0.251778 0.244762 0.427799 -0.503827
C64   C     C_3   0.181932 0.772363 0.423767 -0.510250
C65   C     C_3   0.340737 0.235568 0.400210 0.235473
C66   C     C_3   0.254299 0.810662 0.422022 0.234816
C67   C     C_3   0.763165 0.692353 0.424569 0.229103
C68   C     C_3   0.842027 0.263909 0.400003 0.233247
H57   H     H_    0.737566 0.786890 0.349281 0.134903
H58   H     H_    0.754365 0.221595 0.366474 0.132071
H59   H     H_    0.255549 0.278923 0.363445 0.131885
H60   H     H_    0.204268 0.739762 0.348937 0.131293
H61   H     H_    0.669411 0.703062 0.393007 0.215655
H62   H     H_    0.726615 0.314624 0.432354 0.210364
H63   H     H_    0.225240 0.186021 0.430392 0.210191
H64   H     H_    0.140223 0.819421 0.430095 0.212629
C69   C     C_3   0.659607 0.768237 0.602132 0.163801
C70   C     C_3   0.745491 0.185783 0.579551 0.170367
C71   C     C_3   0.243775 0.313438 0.579214 0.171641
C72   C     C_3   0.154501 0.733762 0.601925 0.181121
C73   C     C_3   0.751427 0.794694 0.550947 -0.475837
C74   C     C_3   0.817679 0.131913 0.492183 -0.489181
C75   C     C_3   0.317806 0.366963 0.492961 -0.489118
C76   C     C_3   0.247655 0.711521 0.548923 -0.531091
C77   C     C_3   0.639514 0.785876 0.520324 0.277742
C78   C     C_3   0.694124 0.213419 0.537709 0.279841
C79   C     C_3   0.193466 0.287408 0.535032 0.278308
C80   C     C_3   0.132926 0.715402 0.520802 0.260009
H65   H     H_    0.650191 0.849580 0.499119 0.029743
H66   H     H_    0.669760 0.160437 0.521494 0.043014
H67   H     H_    0.171512 0.341139 0.517146 0.043586
H68   H     H_    0.156151 0.655083 0.488111 0.047156
H69   H     H_    0.757923 0.858230 0.529096 0.170481
H70   H     H_    0.790467 0.083269 0.473409 0.165872
H71   H     H_    0.292407 0.416691 0.473575 0.164796
H72   H     H_    0.255026 0.646707 0.549937 0.168238
C81   C     C_2   0.296419 0.678159 0.932416 0.195906
C82   C     C_2   0.179579 0.254043 0.112701 0.209473
C83   C     C_2   0.679073 0.245105 0.114202 0.210847
C84   C     C_2   0.686356 0.756793 0.100189 0.222737
C85   C     C_2   0.714392 0.309055 0.049242 -0.282536
C86   C     C_2   0.726569 0.698214 0.027442 -0.281412
C87   C     C_2   0.306859 0.755533 0.906462 -0.206031
C88   C     C_2   0.214570 0.189894 0.048121 -0.283218
H73   H     H_    0.701474 0.323779 0.992185 0.122959
H74   H     H_    0.720346 0.689229 0.962913 0.129262
H75   H     H_    0.266958 0.785336 0.890778 0.109274
H76   H     H_    0.202126 0.175594 0.990431 0.123440
N33   N     N_R   0.551852 0.766818 0.564567 0.235713
O1    O     O_R   0.499371 0.823379 0.587964 -0.443138
O2    O     O_R   0.526558 0.694184 0.575418 -0.427265
N34   N     N_R   0.621417 0.262398 0.616314 0.242988
O3    O     O_R   0.545629 0.235892 0.660446 -0.410149
O4    O     O_R   0.631228 0.333869 0.637800 -0.428078
N35   N     N_R   0.118797 0.239447 0.612758 0.243367
O5    O     O_R   0.044147 0.267315 0.654488 -0.408660
O6    O     O_R   0.125812 0.167548 0.635636 -0.424568
N36   N     N_R   0.042263 0.717392 0.571436 0.235763
O7    O     O_R   0.004381 0.654144 0.572496 -0.433862
O8    O     O_R   0.000012 0.782665 0.608517 -0.422563
C89   C     C_3   0.415513 0.365654 0.285315 -0.382455
C90   C     C_3   0.458970 0.442676 0.278941 -0.888541
H77   H     H_    0.413484 0.484959 0.341664 0.260491
H78   H     H_    0.509401 0.430865 0.288552 0.263935
H79   H     H_    0.487951 0.470620 0.198922 0.249321
H80   H     H_    0.464459 0.330528 0.214669 0.197788
H81   H     H_    0.363989 0.378883 0.278283 0.191889
C91   C     C_3   0.344631 0.679017 0.347369 -0.333996
C92   C     C_3   0.440610 0.682546 0.271726 -0.931739
H82   H     H_    0.463329 0.742293 0.236827 0.270656
H83   H     H_    0.465822 0.666129 0.316919 0.272135
H84   H     H_    0.464682 0.639882 0.204850 0.252822
H85   H     H_    0.327735 0.619235 0.383787 0.187183
H86   H     H_    0.320873 0.679421 0.298401 0.179731
C93   C     C_3   0.885004 0.797144 0.357953 -0.390403
C94   C     C_3   0.936443 0.840629 0.387999 -0.858840
H87   H     H_    0.897835 0.884947 0.451939 0.258838
H88   H     H_    0.962241 0.798203 0.416125 0.283734
H89   H     H_    0.989841 0.872000 0.315947 0.248179
H90   H     H_    0.930675 0.760089 0.287621 0.208525
H91   H     H_    0.858244 0.840607 0.332279 0.193262
C95   C     C_3   0.914140 0.134025 0.284567 -0.372038
C96   C     C_3   0.955404 0.055996 0.278324 -0.908611
H92   H     H_    0.005458 0.066123 0.289235 0.264918
H93   H     H_    0.908444 0.013719 0.340293 0.262453
H94   H     H_    0.984445 0.028956 0.197911 0.251490
H95   H     H_    0.862169 0.122186 0.277780 0.191119
H96   H     H_    0.964040 0.168926 0.213819 0.197431
C97   C     C_3   0.362165 0.629282 0.928750 -0.399054
C98   C     C_3   0.387035 0.557345 0.856194 -0.811958
H97   H     H_    0.332932 0.516487 0.889045 0.250405
H98   H     H_    0.410350 0.576009 0.773642 0.283484
H99   H     H_    0.438088 0.525117 0.850957 0.248838
H100  H     H_    0.420936 0.663639 0.894162 0.203595
H101  H     H_    0.337505 0.609937 0.011530 0.172957
C99   C     C_3   0.181364 0.269741 0.208669 -0.370381
C100  C     C_3   0.093347 0.278294 0.313838 -0.915673
H102  H     H_    0.097938 0.302360 0.377167 0.263647
H103  H     H_    0.053335 0.318038 0.305223 0.252695
H104  H     H_    0.063541 0.219336 0.340614 0.259377
H105  H     H_    0.209676 0.220282 0.223499 0.203590
H106  H     H_    0.218546 0.324060 0.193378 0.173412
C101  C     C_3   0.681048 0.229219 0.209939 -0.369886
C102  C     C_3   0.593094 0.219252 0.315053 -0.920841
H107  H     H_    0.562540 0.277613 0.341663 0.260251
H108  H     H_    0.553647 0.178240 0.306416 0.252574
H109  H     H_    0.597907 0.195985 0.378497 0.262167
H110  H     H_    0.718529 0.175422 0.194214 0.173947
H111  H     H_    0.709119 0.279115 0.224989 0.204022
C103  C     C_3   0.683289 0.767225 0.200320 -0.422583
C104  C     C_3   0.593087 0.775074 0.302815 -0.830799
H112  H     H_    0.593817 0.806624 0.365128 0.272609
H113  H     H_    0.552061 0.808828 0.289613 0.249080
H114  H     H_    0.565276 0.715808 0.334473 0.266877
H115  H     H_    0.710906 0.716099 0.213258 0.205235
H116  H     H_    0.719816 0.820814 0.190292 0.175550

loop_
_geom_bond_atom_site_label_1
_geom_bond_atom_site_label_2
_geom_bond_distance
_ccdc_geom_bond_type
C89   H81   1.110856 S    
C35   H27   1.079925 S    
C97   H100  1.110148 S    
C57   C75   1.556345 S    
H56   C76   1.115103 S    
C58   C76   1.537488 S    
C30   N22   1.320047 A    
C6    H6    1.078241 S    
C29   N21   1.321439 A    
C96   H92   1.110975 S    
N20   N31   1.446236 A    
C4    H4    1.075117 S    
N28   Ni6   1.859119 S    
C91   C92   1.527264 S    
C70   C78   1.566179 S    
C31   N23   1.319399 A    
C99   H106  1.111152 S    
C90   H79   1.110618 S    
N33   O1    1.301090 A    
C98   H99   1.110535 S    
C7    H7    1.077771 S    
H52   C60   1.106848 S    
C24   C67   1.460054 S    
C63   H63   1.114457 S    
C4    C20   1.369509 A    
N22   Ni1   1.904016 S    
C1    H1    1.075618 S    
C55   C69   1.550849 S    
N27   Ni6   1.849645 S    
C15   N15   1.314854 A    
N3    N12   1.320861 A    
C23   C68   1.473617 S    
C14   H14   1.078185 S    
C3    H3    1.076112 S    
C103  H115  1.107145 S    
C30   H22   1.078661 S    
C46   C70   1.464137 S    
C54   H44   1.107944 S    
C100  H102  1.110752 S    
C74   H70   1.111988 S    
C12   C19   1.376243 A    
C39   H31   1.081105 S    
C21   C66   1.471664 S    
C83   C101  1.524305 S    
C38   H30   1.081241 S    
N1    Ni1   1.845213 S    
N15   Ni8   1.877545 S    
C95   H96   1.109160 S    
C92   H84   1.110554 S    
C52   H40   1.114250 S    
C16   N16   1.316635 A    
C78   H66   1.114896 S    
C29   C45   1.376591 A    
C25   H17   1.080541 S    
C9    C18   1.372931 A    
C50   C54   1.533923 S    
C2    C18   1.371535 A    
C3    N3    1.320815 A    
C27   N19   1.316930 A    
C95   C96   1.531855 S    
N32   Ni8   1.822774 S    
C58   C91   1.572954 S    
C10   N10   1.341472 A    
C82   C88   1.357530 D    
N35   O5    1.301316 A    
C39   N31   1.349017 A    
N34   O3    1.301164 A    
C86   H74   1.083578 S    
C104  H114  1.108851 S    
C63   C65   1.553232 S    
C40   C43   1.407568 A    
C29   H21   1.080648 S    
C93   H90   1.107804 S    
N26   Ni5   1.859119 S    
C4    N4    1.321943 A    
H51   C59   1.115341 S    
C70   C74   1.553268 S    
C57   C89   1.549165 S    
N5    Ni2   1.904025 S    
C32   H24   1.079640 S    
C52   H36   1.113226 S    
C47   C71   1.464833 S    
C7    N7    1.327837 A    
C97   H101  1.110902 S    
C69   C77   1.561166 S    
C8    N8    1.324535 A    
C55   H41   1.110648 S    
C97   C98   1.528084 S    
C87   H75   1.080758 S    
C41   C83   1.467466 S    
N18   N29   1.446236 A    
N30   Ni7   1.822774 S    
C2    H2    1.077205 S    
C61   C77   1.533981 S    
N17   N30   1.447700 A    
N18   Ni2   1.846376 S    
C102  H109  1.110888 S    
N17   Ni1   1.845856 S    
C38   C41   1.396923 A    
C26   N18   1.302774 A    
C99   H105  1.108055 S    
C5    C21   1.386336 A    
N33   O2    1.301579 A    
N22   N25   1.390989 A    
C9    H9    1.081959 S    
C49   C53   1.518707 S    
C98   H98   1.111246 S    
N21   N26   1.392401 A    
C31   H23   1.078712 S    
C73   H69   1.114200 S    
C52   C56   1.519545 S    
C11   H11   1.077309 S    
C12   H12   1.078210 S    
C1    N1    1.322835 A    
C102  H108  1.108911 S    
C101  H110  1.111138 S    
C76   H72   1.112069 S    
C10   C17   1.392808 A    
C61   H57   1.109932 S    
N4    Ni4   1.845370 S    
C77   H65   1.112471 S    
N36   O7    1.301069 A    
C62   H62   1.114507 S    
N25   Ni5   1.849645 S    
C71   C75   1.552950 S    
C50   H38   1.113306 S    
C11   N11   1.340912 A    
C89   C90   1.532246 S    
C81   C87   1.352215 D    
N12   Ni6   1.903306 S    
C51   H39   1.113019 S    
C95   H95   1.110740 S    
C94   H89   1.110620 S    
C80   H68   1.114559 S    
C51   C55   1.533689 S    
N31   Ni8   1.832151 S    
C64   C66   1.554807 S    
C35   C48   1.374112 A    
C50   H34   1.111427 S    
C77   N33   1.470987 S    
C83   C85   1.353714 D    
C8    C24   1.389059 A    
C37   N29   1.341149 A    
C49   H33   1.113533 S    
C101  H111  1.108351 S    
C19   C86   1.425371 S    
C91   H86   1.101466 S    
C54   H46   1.110401 S    
C51   C67   1.563664 S    
C84   C103  1.519254 S    
C72   C76   1.555443 S    
H55   C75   1.113542 S    
C15   C24   1.374872 A    
H50   C58   1.115806 S    
C69   C73   1.552487 S    
C39   C44   1.399715 A    
C88   H76   1.081999 S    
C16   C23   1.375256 A    
C49   C65   1.560792 S    
C32   C48   1.379341 A    
C9    N9    1.335996 A    
H53   C73   1.114607 S    
C92   H82   1.108817 S    
C64   H64   1.112852 S    
C5    N5    1.328387 A    
C96   H93   1.109115 S    
N8    Ni3   1.904149 S    
C8    H8    1.073904 S    
C104  H112  1.107496 S    
N4    N11   1.322193 A    
C85   H73   1.081828 S    
C93   H91   1.111104 S    
C62   C78   1.524772 S    
C78   N34   1.471416 S    
C60   C68   1.577083 S    
N23   N28   1.392401 A    
N11   Ni6   1.893519 S    
C42   C84   1.447687 S    
C26   H18   1.081573 S    
C48   C72   1.464770 S    
C13   C22   1.376410 A    
C27   C43   1.385971 A    
C6    C22   1.380042 A    
C53   H43   1.108938 S    
C60   C74   1.555694 S    
C31   C47   1.387242 A    
C40   N32   1.349216 A    
N3    Ni3   1.845213 S    
N1    N10   1.320861 A    
C56   H48   1.113597 S    
N35   O6    1.301629 A    
N2    Ni2   1.845370 S    
N9    Ni5   1.893519 S    
C13   N13   1.317477 A    
C101  C102  1.525078 S    
C2    N2    1.335510 A    
C37   H29   1.081461 S    
C51   H35   1.109445 S    
C11   C20   1.386757 A    
C62   H58   1.113272 S    
C56   H42   1.108378 S    
C71   C79   1.565715 S    
N5    N14   1.373110 A    
C45   C69   1.454772 S    
C89   H80   1.108953 S    
C72   C80   1.574091 S    
C61   C67   1.553648 S    
C98   H97   1.109762 S    
N21   Ni2   1.904132 S    
C3    C19   1.363648 A    
N7    N16   1.373110 A    
N16   Ni8   1.867967 S    
C94   H88   1.110965 S    
N8    N15   1.374503 A    
C53   H45   1.113851 S    
C58   C66   1.579854 S    
C43   C81   1.471769 S    
C44   C82   1.473260 S    
C36   H28   1.079845 S    
N36   O8    1.301041 A    
C25   N17   1.315867 A    
N19   N32   1.447700 A    
C50   C66   1.567156 S    
C96   H94   1.110479 S    
C100  H104  1.107070 S    
C25   C41   1.379020 A    
C18   C87   1.448269 S    
N13   Ni7   1.877545 S    
C54   C72   1.550679 S    
C10   H10   1.081451 S    
C62   C68   1.552657 S    
N29   Ni7   1.832151 S    
N6    Ni1   1.904149 S    
C35   N27   1.322470 A    
C40   H32   1.079938 S    
C27   H19   1.077145 S    
C34   N26   1.317236 A    
C5    H5    1.074366 S    
C90   H78   1.111101 S    
C28   H20   1.080465 S    
C28   N20   1.318158 A    
C60   C95   1.548696 S    
C61   H61   1.111115 S    
C6    N6    1.327306 A    
N24   N27   1.390989 A    
C49   H37   1.114496 S    
C33   N25   1.321804 A    
C32   N24   1.328015 A    
N34   O4    1.301461 A    
C34   H26   1.079137 S    
C91   H85   1.109807 S    
C102  H107  1.106983 S    
N24   Ni3   1.904016 S    
C53   C71   1.551624 S    
C104  H113  1.108601 S    
N19   Ni3   1.845856 S    
C90   H77   1.109223 S    
H54   C74   1.113417 S    
C14   C21   1.384833 A    
C1    C17   1.373574 A    
C30   C46   1.387430 A    
C36   C47   1.384873 A    
N7    Ni4   1.904025 S    
C33   C46   1.384216 A    
C59   C93   1.557086 S    
C55   H47   1.112320 S    
C92   H83   1.107672 S    
H49   C57   1.107041 S    
C63   H59   1.113214 S    
N23   Ni4   1.904132 S    
N2    N9    1.322193 A    
C82   C99   1.524624 S    
C37   C42   1.397327 A    
C64   H60   1.108359 S    
C22   C65   1.474225 S    
C13   H13   1.080645 S    
N20   Ni4   1.846376 S    
C14   N14   1.318325 A    
C84   C86   1.350937 D    
C28   C44   1.377126 A    
C103  C104  1.531853 S    
C56   C70   1.551298 S    
C94   H87   1.109231 S    
C80   N36   1.469966 S    
C16   H16   1.080533 S    
N6    N13   1.374503 A    
C75   H71   1.112359 S    
C12   N12   1.334710 A    
C59   C67   1.571522 S    
C100  H103  1.108682 S    
C15   H15   1.078658 S    
C57   C65   1.577057 S    
C93   C94   1.532338 S    
C26   C42   1.371133 A    
N10   Ni5   1.903306 S    
C81   C97   1.518128 S    
C103  H116  1.111233 S    
C20   C85   1.445109 S    
C36   N28   1.322401 A    
C34   C45   1.376607 A    
C63   C79   1.525435 S    
N14   Ni7   1.867967 S    
C79   N35   1.471505 S    
C64   C80   1.543437 S    
C33   H25   1.079799 S    
C79   H67   1.114990 S    
C59   C73   1.533123 S    
C38   N30   1.344670 A    
C7    C23   1.380489 A    
C99   C100  1.524994 S    
C52   C68   1.561629 S    
C17   C88   1.452166 S    
