data_mof_unit_43584.cif
_audit_creation_date              2012-12-10T16:51:31-0500
_audit_creation_method            fapswitch 2.2
_symmetry_space_group_name_H-M    P1
_symmetry_Int_Tables_number       1
_space_group_crystal_system       triclinic
_cell_length_a                    7.869921
_cell_length_b                    8.563043
_cell_length_c                    12.095855
_cell_angle_alpha                 92.835308
_cell_angle_beta                  101.241441
_cell_angle_gamma                 94.044411
_cell_volume                      795.848867951

loop_
_atom_site_label
_atom_site_type_symbol
_atom_type_description
_atom_site_fract_x
_atom_site_fract_y
_atom_site_fract_z
_atom_type_partial_charge
C1    C     C_R   0.044503 0.794530 0.497603 0.963502
C2    C     C_R   0.159491 0.504136 0.832225 -0.120974
C3    C     C_2   0.067801 0.958317 0.496607 -0.396724
C4    C     C_R   0.105937 0.503744 0.710238 0.842409
C5    C     C_2   0.932960 0.041818 0.505028 -0.387975
C6    C     C_R   0.955757 0.205507 0.502969 0.956373
C7    C     C_R   0.892517 0.488431 0.289697 0.865932
C8    C     C_R   0.809781 0.289602 0.000803 -0.187820
C9    C     C_R   0.829998 0.457961 0.169543 -0.069666
C10   C     C_R   0.074402 0.595014 0.900743 -0.180843
C11   C     C_R   0.146425 0.625917 0.014496 -0.130596
C12   C     C_R   0.397233 0.485252 0.989800 0.079230
C13   C     C_R   0.308124 0.574743 0.058752 -0.200313
C14   C     C_3   0.532576 0.694418 0.574885 -0.485393
C15   C     C_R   0.311042 0.434101 0.879644 0.078379
C16   C     C_R   0.569184 0.445151 0.026247 0.079522
C17   C     C_R   0.641620 0.334459 0.961265 0.167582
C18   C     C_R   0.543702 0.268037 0.859306 -0.246077
C19   C     C_R   0.380192 0.317228 0.818732 -0.199608
C20   C     C_R   0.672170 0.514462 0.125203 -0.267549
C21   C     C_R   0.902411 0.348398 0.106556 -0.182925
H1    H     H_    0.025598 0.303384 0.141006 0.157284
H2    H     H_    0.307620 0.261703 0.739646 0.169214
H3    H     H_    0.195003 0.009554 0.488697 0.173900
H4    H     H_    0.655726 0.750526 0.626492 0.172035
H5    H     H_    0.489190 0.771387 0.505421 0.182338
H6    H     H_    0.440635 0.684553 0.632539 0.216003
H7    H     H_    0.805836 0.990585 0.513090 0.172251
H8    H     H_    0.469939 0.360162 0.429151 0.170670
H9    H     H_    0.594499 0.179946 0.810032 0.144927
H10   H     H_    0.865898 0.204308 0.952453 0.135424
H11   H     H_    0.628651 0.608090 0.173063 0.148203
H12   H     H_    0.955493 0.646643 0.865594 0.155949
H13   H     H_    0.358142 0.603496 0.147518 0.140233
H14   H     H_    0.079901 0.694740 0.067672 0.144484
N1    N     N_2   0.434800 0.456690 0.470850 -0.131612
N2    N     N_2   0.565200 0.543310 0.529150 -0.033029
O1    O     O_R   0.893060 0.738880 0.507150 -0.611763
O2    O     O_R   0.172250 0.711130 0.488470 -0.635412
O3    O     O_R   0.944700 0.520730 0.667600 -0.607635
O4    O     O_R   0.223890 0.492980 0.648920 -0.621455
O5    O     O_R   0.827750 0.288870 0.511530 -0.628644
O6    O     O_R   0.106940 0.261120 0.492850 -0.619011
O7    O     O_R   0.776110 0.507020 0.351080 -0.614999
O8    O     O_R   0.055300 0.479270 0.332400 -0.616973
Zn1   Zn    Zn3+2 0.813580 0.518530 0.512470 0.937572
Zn2   Zn    Zn3+2 0.186420 0.481470 0.487530 0.923582

loop_
_geom_bond_atom_site_label_1
_geom_bond_atom_site_label_2
_ccdc_geom_bond_type
C19   H2    S    
C15   C19   A    
C18   H9    S    
C14   H6    S    
C5    H7    S    
C6    O5    A    
C9    C20   A    
C2    C4    S    
C8    C17   A    
C12   C15   A    
C16   C20   A    
C10   C11   A    
C11   H14   S    
C8    C21   A    
O4    Zn2   S    
C13   H13   S    
C7    O7    A    
C14   H5    S    
C14   N2    S    
O3    Zn1   S    
C2    C15   A    
C11   C13   A    
H8    N1    S    
C9    C21   A    
C3    H3    S    
C1    O1    A    
C7    O8    A    
N1    N2    D    
O7    Zn1   S    
C17   C18   A    
C10   H12   S    
C6    O6    A    
O8    Zn2   S    
C14   H4    S    
C20   H11   S    
C5    C6    S    
O1    Zn1   S    
C4    O4    A    
C1    O2    A    
C2    C10   A    
C12   C16   A    
C12   C13   A    
N1    Zn2   S    
O2    Zn2   S    
C18   C19   A    
O5    Zn1   S    
C7    C9    S    
C3    C5    D    
N2    Zn1   S    
C21   H1    S    
C8    H10   S    
O6    Zn2   S    
C4    O3    A    
C16   C17   A    
C1    C3    S    
