data_mof_unit_5470.cif
_audit_creation_date              2012-12-10T19:00:43-0500
_audit_creation_method            fapswitch 2.2
_symmetry_space_group_name_H-M    P1
_symmetry_Int_Tables_number       1
_space_group_crystal_system       triclinic
_cell_length_a                    15.071699
_cell_length_b                    10.720472
_cell_length_c                    9.574082
_cell_angle_alpha                 89.952309
_cell_angle_beta                  90.755505
_cell_angle_gamma                 92.429736
_cell_volume                      1545.41408455

loop_
_atom_site_label
_atom_site_type_symbol
_atom_type_description
_atom_site_fract_x
_atom_site_fract_y
_atom_site_fract_z
_atom_type_partial_charge
C1    C     C_R   0.493413 0.261916 0.499501 0.881774
C2    C     C_R   0.914593 0.617806 0.520172 -0.053347
C3    C     C_R   0.947529 0.299407 0.376940 0.421489
C4    C     C_R   0.040003 0.295648 0.386318 -0.310979
C5    C     C_R   0.090760 0.395703 0.442146 0.085539
C6    C     C_R   0.048986 0.504227 0.484860 0.042549
C7    C     C_R   0.101228 0.610361 0.528768 0.050684
C8    C     C_R   0.061353 0.722049 0.560629 0.394907
C9    C     C_R   0.969038 0.725764 0.549376 -0.225084
C10   C     C_R   0.183342 0.392436 0.446863 -0.231963
C11   C     C_R   0.233691 0.495770 0.496357 -0.050227
C12   C     C_R   0.329286 0.494999 0.499066 0.739121
C13   C     C_R   0.193379 0.603765 0.536961 -0.211661
C14   C     C_R   0.459304 0.061608 0.620781 0.030506
C15   C     C_R   0.473263 0.128036 0.496830 -0.179258
C16   C     C_R   0.461440 0.061099 0.369326 0.465473
C17   C     C_R   0.460908 0.930733 0.372290 -0.219570
C18   C     C_R   0.469335 0.866990 0.499263 -0.182647
C19   C     C_R   0.456811 0.933663 0.622011 0.083598
C20   C     C_3   0.494700 0.928365 0.766578 -0.413836
C21   C     C_3   0.498524 0.070656 0.764591 -0.381991
C22   C     C_R   0.577887 0.502318 0.073948 0.118490
C23   C     C_R   0.488393 0.735575 0.499851 0.894002
C24   C     C_R   0.422768 0.492106 0.072639 -0.040850
C25   C     C_R   0.422710 0.493369 0.924574 -0.055296
C26   C     C_R   0.578047 0.493983 0.927004 0.109215
C27   C     C_3   0.657066 0.582960 0.917028 0.240789
C28   C     C_3   0.655871 0.596088 0.076694 0.098225
C29   C     C_R   0.671667 0.504657 0.500846 1.041569
C30   C     C_R   0.820922 0.619731 0.525538 0.352714
C31   C     C_R   0.769556 0.506913 0.501788 -0.294126
C32   C     C_R   0.811830 0.394353 0.472878 0.303128
C33   C     C_R   0.903780 0.398650 0.442905 -0.111921
C34   C     C_R   0.955479 0.506765 0.482888 -0.106580
Cu1   Cu    Cu3+1 0.500000 0.499980 0.640670 1.006491
Cu2   Cu    Cu3+1 0.500000 0.500020 0.359330 1.038250
H1    H     H_    0.458384 0.880624 0.274899 0.211125
H2    H     H_    0.445285 0.888307 0.841094 0.199142
H3    H     H_    0.561186 0.887939 0.772899 0.237617
H4    H     H_    0.452676 0.112127 0.839958 0.192572
H5    H     H_    0.567298 0.111682 0.766338 0.236828
H6    H     H_    0.359922 0.486577 0.125557 0.128436
H7    H     H_    0.359659 0.489664 0.869773 0.141292
H8    H     H_    0.638111 0.668298 0.859650 0.205647
H9    H     H_    0.712974 0.562002 0.137123 0.095433
H10   H     H_    0.072988 0.217637 0.341007 0.160397
H11   H     H_    0.216301 0.310140 0.412334 0.114160
H12   H     H_    0.234718 0.683272 0.572019 0.171811
H13   H     H_    0.941741 0.815495 0.563525 0.225724
N1    N     N_R   0.500570 0.500930 0.147930 -0.148097
N2    N     N_R   0.500570 0.500890 0.852020 -0.192989
O1    O     O_R   0.500000 0.319640 0.618810 -0.570476
O2    O     O_R   0.500010 0.319680 0.381230 -0.544735
O3    O     O_R   0.370250 0.499950 0.618800 -0.611196
O4    O     O_R   0.370260 0.499990 0.381220 -0.615595
O5    O     O_R   0.499990 0.680320 0.618770 -0.571271
O6    O     O_R   0.500000 0.680360 0.381190 -0.512393
O7    O     O_R   0.629740 0.500010 0.618780 -0.489756
O8    O     O_R   0.629750 0.500050 0.381200 -0.584002
S1    S     S_3+6 0.772641 0.762854 0.572940 0.032033
O9    O     O_2   0.810367 0.806075 0.711705 -0.284570
O10   O     O_2   0.796226 0.859076 0.463836 -0.201593
O11   O     O_3   0.663194 0.754561 0.586581 -0.540808
H14   H     H_    0.646907 0.843023 0.583823 0.377154
O12   O     O_3   0.733081 0.533309 0.853055 -0.551650
C35   C     C_3   0.777825 0.441269 0.929488 0.132336
H15   H     H_    0.794673 0.366321 0.856032 0.203092
H16   H     H_    0.736702 0.393448 0.010338 0.118734
C36   C     C_3   0.865329 0.496840 0.991610 -0.351640
H17   H     H_    0.852872 0.578532 0.058548 0.225101
H18   H     H_    0.896704 0.425791 0.057824 0.238872
C37   C     C_3   0.930669 0.537694 0.878264 -0.727901
H19   H     H_    0.943394 0.458668 0.807269 0.238098
H20   H     H_    0.994619 0.570578 0.927248 0.223536
H21   H     H_    0.903882 0.615750 0.817114 0.296647
S2    S     S_3+6 0.756197 0.249618 0.519401 0.051633
O13   O     O_2   0.694675 0.204417 0.403788 -0.184326
O14   O     O_2   0.822459 0.152156 0.550977 -0.251199
O15   O     O_3   0.695320 0.269036 0.663014 -0.573332
H22   H     H_    0.711573 0.201310 0.727655 0.361592
S3    S     S_3+6 0.633306 0.753570 0.121514 0.044222
O16   O     O_2   0.647667 0.774361 0.275098 -0.195315
O17   O     O_2   0.696466 0.840125 0.043867 -0.235865
O18   O     O_3   0.528586 0.783416 0.074398 -0.589930
H23   H     H_    0.529238 0.874888 0.059625 0.366972
S4    S     S_3+6 0.896226 0.200489 0.247713 0.048704
O19   O     O_2   0.809157 0.249204 0.199303 -0.256106
O20   O     O_2   0.956180 0.195302 0.123681 -0.344782
O21   O     O_3   0.880165 0.054693 0.309343 -0.370433
H24   H     H_    0.940414 0.021912 0.318775 0.332109
O22   O     O_3   0.114826 0.829692 0.583404 -0.622514
C38   C     C_3   0.086360 0.902664 0.696561 0.033805
H25   H     H_    0.143865 0.917837 0.769270 0.161320
H26   H     H_    0.032401 0.857173 0.759856 0.153545
C39   C     C_3   0.058960 0.030236 0.642379 -0.360842
H27   H     H_    0.116571 0.078371 0.590870 0.216122
H28   H     H_    0.004713 0.017853 0.563479 0.242905
C40   C     C_3   0.027336 0.112505 0.760195 -0.761803
H29   H     H_    0.968307 0.067631 0.810992 0.297598
H30   H     H_    0.008596 0.204084 0.716997 0.253149
H31   H     H_    0.081073 0.128774 0.839406 0.245377
O23   O     O_3   0.462028 0.119761 0.240564 -0.571504
C41   C     C_3   0.375166 0.155775 0.205731 0.079613
H32   H     H_    0.381911 0.236153 0.132985 0.171115
H33   H     H_    0.338021 0.189147 0.297667 0.096810
C42   C     C_3   0.322091 0.049761 0.131024 -0.401367
H34   H     H_    0.361465 0.014379 0.043249 0.226508
H35   H     H_    0.308414 0.971742 0.205118 0.217373
C43   C     C_3   0.233763 0.094135 0.074030 -0.882949
H36   H     H_    0.193088 0.129444 0.160279 0.262553
H37   H     H_    0.196368 0.015070 0.022432 0.255802
H38   H     H_    0.245351 0.169581 0.995920 0.247149

loop_
_geom_bond_atom_site_label_1
_geom_bond_atom_site_label_2
_ccdc_geom_bond_type
C35   H16   S    
C24   C25   A    
C24   H6    S    
C39   H27   S    
S2    O15   S    
Cu2   O8    S    
C25   H7    S    
S3    O16   D    
C39   C40   S    
C7    C8    A    
C4    H10   S    
C26   C27   S    
Cu1   O7    S    
C14   C21   S    
C27   C28   S    
S2    O14   D    
C43   H37   S    
C5    C6    A    
S4    O20   D    
C35   C36   S    
C42   H34   S    
C3    C33   A    
C15   C16   A    
S1    O10   D    
C18   C19   A    
C36   H18   S    
C1    O2    A    
Cu2   O2    S    
C27   H8    S    
C29   O8    A    
C8    C9    A    
C30   S1    S    
C1    C15   S    
C22   N1    A    
C2    C34   A    
C35   H15   S    
Cu1   O5    S    
C22   C28   S    
Cu1   O3    S    
O23   C41   S    
C37   H21   S    
S3    O17   D    
C33   C34   A    
C24   N1    A    
C28   H9    S    
C10   H11   S    
C18   C23   S    
C23   O5    A    
C9    H13   S    
S2    O13   D    
C37   H20   S    
Cu2   O6    S    
C43   H38   S    
O22   C38   S    
C20   H3    S    
S4    O19   D    
C16   C17   A    
C38   C39   S    
C6    C34   A    
S1    O9    D    
Cu1   Cu2   S    
C36   C37   S    
C25   N2    A    
C27   O12   S    
C20   H2    S    
C31   C32   A    
C7    C13   A    
C20   C21   S    
C38   H26   S    
C17   C18   A    
C41   H33   S    
C8    O22   S    
C17   H1    S    
O18   H23   S    
C21   H5    S    
C16   O23   S    
C40   H29   S    
C40   H30   S    
S1    O11   S    
Cu1   N2    S    
O15   H22   S    
C3    C4    A    
C41   H32   S    
S3    O18   S    
Cu2   N1    S    
C23   O6    A    
C28   S3    S    
C14   C19   A    
C37   H19   S    
S4    O21   S    
C32   S2    S    
C13   H12   S    
C11   C12   S    
C39   H28   S    
C6    C7    A    
C40   H31   S    
C2    C30   A    
C32   C33   A    
C19   C20   S    
C5    C10   A    
C29   C31   S    
Cu2   O4    S    
C26   N2    A    
C11   C13   A    
C30   C31   A    
C21   H4    S    
C42   H35   S    
C38   H25   S    
C41   C42   S    
C36   H17   S    
C1    O1    A    
C12   O4    A    
C10   C11   A    
O11   H14   S    
C4    C5    A    
C29   O7    A    
O12   C35   S    
C22   C26   A    
Cu1   O1    S    
C14   C15   A    
O21   H24   S    
C43   H36   S    
C2    C9    A    
C12   O3    A    
C3    S4    S    
C42   C43   S    
