data_mof_unit_7555.cif
_audit_creation_date              2012-12-10T17:31:27-0500
_audit_creation_method            fapswitch 2.2
_symmetry_space_group_name_H-M    P1
_symmetry_Int_Tables_number       1
_space_group_crystal_system       triclinic
_cell_length_a                    18.860231
_cell_length_b                    18.515684
_cell_length_c                    12.405045
_cell_angle_alpha                 89.999986
_cell_angle_beta                  129.382864
_cell_angle_gamma                 89.99931
_cell_volume                      3348.27833561

loop_
_atom_site_label
_atom_site_type_symbol
_atom_type_description
_atom_site_fract_x
_atom_site_fract_y
_atom_site_fract_z
_atom_type_partial_charge
C1    C     C_R   0.612111 0.897655 0.652435 0.783662
C2    C     C_R   0.612109 0.102345 0.652433 0.783668
C3    C     C_R   0.112108 0.397653 0.652432 0.783688
C4    C     C_R   0.112111 0.602345 0.652436 0.783655
C5    C     C_R   0.250022 0.770218 0.047945 0.007779
C6    C     C_R   0.250020 0.229782 0.047947 0.007789
C7    C     C_R   0.750013 0.270228 0.047924 0.007755
C8    C     C_R   0.750023 0.729785 0.047949 0.007786
C9    C     C_R   0.666978 0.271499 0.027455 0.102398
C10   C     C_R   0.666982 0.728503 0.027463 0.102381
C11   C     C_R   0.166983 0.771500 0.027461 0.102383
C12   C     C_R   0.166986 0.228512 0.027479 0.102397
C13   C     C_R   0.587330 0.241496 0.907717 -0.199459
C14   C     C_R   0.587331 0.758496 0.907709 -0.199456
C15   C     C_R   0.087333 0.741504 0.907712 -0.199452
C16   C     C_R   0.087335 0.258511 0.907733 -0.199477
C17   C     C_R   0.589453 0.207158 0.810580 -0.189427
C18   C     C_R   0.589457 0.792835 0.810575 -0.189414
C19   C     C_R   0.089459 0.707164 0.810579 -0.189423
C20   C     C_R   0.089456 0.292843 0.810590 -0.189391
C21   C     C_R   0.331803 0.794626 0.176147 0.396669
C22   C     C_R   0.331802 0.205374 0.176145 0.396670
C23   C     C_R   0.831794 0.294648 0.176115 0.396624
C24   C     C_R   0.831804 0.705379 0.176154 0.396679
C25   C     C_R   0.241880 0.836082 0.242810 -0.214351
C26   C     C_R   0.241890 0.163934 0.242835 -0.214338
C27   C     C_R   0.741878 0.336083 0.242804 -0.214388
C28   C     C_R   0.741881 0.663923 0.242816 -0.214339
C29   C     C_R   0.677282 0.161374 0.739170 -0.121634
C30   C     C_R   0.677292 0.838630 0.739185 -0.121638
C31   C     C_R   0.177292 0.661369 0.739185 -0.121643
C32   C     C_R   0.177284 0.338624 0.739176 -0.121604
C33   C     C_R   0.685850 0.000000 0.284357 -0.292756
C34   C     C_R   0.185850 0.499997 0.284357 -0.292762
C35   C     C_R   0.341638 0.000001 0.630776 0.338085
C36   C     C_R   0.841638 0.500000 0.630776 0.338086
C37   C     C_R   0.309113 0.000000 0.704839 -0.251742
C38   C     C_R   0.809114 0.500000 0.704839 -0.251748
C39   C     C_R   0.389024 0.103077 0.349027 0.797683
C40   C     C_R   0.389024 0.896923 0.349026 0.797690
C41   C     C_R   0.889024 0.603077 0.349026 0.797678
C42   C     C_R   0.889028 0.396921 0.349029 0.797753
C43   C     C_R   0.368762 0.999999 0.848375 -0.242148
C44   C     C_R   0.868762 0.499999 0.848376 -0.242157
C45   C     C_R   0.463483 0.999999 0.922403 0.009559
C46   C     C_R   0.963483 0.500000 0.922403 0.009560
C47   C     C_R   0.495651 0.999999 0.843195 0.237741
C48   C     C_R   0.995651 0.500000 0.843195 0.237741
C49   C     C_R   0.527115 0.999999 0.072358 -0.021619
C50   C     C_R   0.027115 0.500000 0.072358 -0.021620
C51   C     C_R   0.621626 0.999999 0.139609 0.126011
C52   C     C_R   0.121626 0.499998 0.139609 0.126013
C53   C     C_R   0.652272 0.999999 0.062726 -0.239727
C54   C     C_R   0.152272 0.499998 0.062726 -0.239730
C55   C     C_R   0.590864 0.999999 0.918168 -0.155483
C56   C     C_R   0.090864 0.499999 0.918168 -0.155487
C57   C     C_R   0.501553 0.999999 0.159448 -0.058128
C58   C     C_R   0.001553 0.500001 0.159448 -0.058174
C59   C     C_R   0.657769 0.000000 0.364274 0.333323
C60   C     C_R   0.157769 0.499998 0.364274 0.333333
C61   C     C_R   0.664790 0.301652 0.128238 -0.188860
C62   C     C_R   0.664791 0.698349 0.128242 -0.188872
C63   C     C_R   0.164791 0.801655 0.128238 -0.188867
C64   C     C_R   0.164800 0.198364 0.128268 -0.188879
C65   C     C_R   0.323336 0.838592 0.261478 -0.138570
C66   C     C_R   0.323339 0.161413 0.261486 -0.138590
C67   C     C_R   0.823328 0.338602 0.261458 -0.138445
C68   C     C_R   0.823337 0.661412 0.261484 -0.138599
C69   C     C_R   0.751832 0.172684 0.741523 -0.158571
C70   C     C_R   0.751854 0.827329 0.741562 -0.158566
C71   C     C_R   0.251852 0.672669 0.741559 -0.158567
C72   C     C_R   0.251839 0.327314 0.741538 -0.158561
C73   C     C_R   0.323725 0.717641 0.840804 -0.153473
C74   C     C_R   0.323708 0.282334 0.840777 -0.153456
C75   C     C_R   0.823694 0.217670 0.840746 -0.153458
C76   C     C_R   0.823729 0.782357 0.840812 -0.153471
C77   C     C_R   0.324356 0.749542 0.942849 -0.122652
C78   C     C_R   0.324341 0.250438 0.942829 -0.122642
C79   C     C_R   0.824326 0.249571 0.942791 -0.122687
C80   C     C_R   0.824359 0.750458 0.942859 -0.122640
C81   C     C_R   0.750095 0.239931 0.942874 0.106361
C82   C     C_R   0.750111 0.760083 0.942907 0.106350
C83   C     C_R   0.250110 0.739917 0.942903 0.106355
C84   C     C_R   0.250102 0.260075 0.942895 0.106344
C85   C     C_R   0.671673 0.201904 0.830533 0.074648
C86   C     C_R   0.671683 0.798099 0.830546 0.074639
C87   C     C_R   0.171683 0.701900 0.830546 0.074641
C88   C     C_R   0.171677 0.298097 0.830543 0.074651
Cu1   Cu    Cu3+1 0.526340 0.000000 0.421010 0.940318
Cu2   Cu    Cu3+1 0.026340 0.500000 0.421010 0.940313
Cu3   Cu    Cu3+1 0.473640 1.000000 0.578990 0.953319
Cu4   Cu    Cu3+1 0.973640 0.500000 0.578990 0.953324
H1    H     H_    0.236334 0.862973 0.314017 0.203265
H2    H     H_    0.236349 0.137048 0.314052 0.203262
H3    H     H_    0.736337 0.362967 0.314022 0.203263
H4    H     H_    0.736336 0.637032 0.314024 0.203265
H5    H     H_    0.725118 0.999999 0.115199 0.169174
H6    H     H_    0.225118 0.499997 0.115200 0.169173
H7    H     H_    0.758560 0.000000 0.336044 0.172286
H8    H     H_    0.258560 0.499996 0.336044 0.172284
H9    H     H_    0.430880 0.999999 0.116267 0.138906
H10   H     H_    0.930880 0.500002 0.116267 0.138904
H11   H     H_    0.338379 0.999999 0.898210 0.147784
H12   H     H_    0.838379 0.499999 0.898211 0.147781
H13   H     H_    0.236043 0.000001 0.650253 0.178655
H14   H     H_    0.736043 0.500000 0.650253 0.178650
H15   H     H_    0.621346 0.999999 0.869425 0.210867
H16   H     H_    0.121346 0.499999 0.869426 0.210866
H17   H     H_    0.523235 0.243687 0.889875 0.136126
H18   H     H_    0.523231 0.756297 0.889853 0.136126
H19   H     H_    0.023234 0.743703 0.889858 0.136126
H20   H     H_    0.023239 0.256321 0.889892 0.136124
H21   H     H_    0.602238 0.301623 0.115201 0.153783
H22   H     H_    0.602234 0.698370 0.115192 0.153777
H23   H     H_    0.102235 0.801635 0.115190 0.153782
H24   H     H_    0.102248 0.198394 0.115232 0.153754
H25   H     H_    0.755584 0.145937 0.667976 0.186034
H26   H     H_    0.755607 0.854076 0.668015 0.186033
H27   H     H_    0.255605 0.645921 0.668013 0.186034
H28   H     H_    0.255590 0.354058 0.667988 0.186025
H29   H     H_    0.381611 0.784071 0.017679 0.146060
H30   H     H_    0.381594 0.215904 0.017655 0.146059
H31   H     H_    0.881567 0.284114 0.017588 0.145947
H32   H     H_    0.881618 0.715931 0.017695 0.146079
H33   H     H_    0.380489 0.726227 0.840937 0.136526
H34   H     H_    0.380466 0.273739 0.840898 0.136525
H35   H     H_    0.880448 0.226268 0.840858 0.136527
H36   H     H_    0.880494 0.773770 0.840946 0.136524
H37   H     H_    0.524905 0.187418 0.717257 0.172121
H38   H     H_    0.524909 0.812570 0.717242 0.172111
H39   H     H_    0.024911 0.687428 0.717249 0.172112
H40   H     H_    0.024908 0.312581 0.717263 0.172130
N1    N     N_R   0.566260 0.000000 0.302220 -0.197320
N2    N     N_R   0.066260 0.500000 0.302220 -0.197311
N3    N     N_R   0.434410 1.000000 0.697680 -0.220747
N4    N     N_R   0.934410 0.500000 0.697680 -0.220746
O1    O     O_R   0.608610 0.924520 0.551740 -0.560443
O2    O     O_R   0.608610 0.075480 0.551740 -0.560445
O3    O     O_R   0.108610 0.424520 0.551740 -0.560463
O4    O     O_R   0.108610 0.575480 0.551740 -0.560438
O5    O     O_R   0.564110 0.924510 0.685150 -0.600820
O6    O     O_R   0.564110 0.075490 0.685150 -0.600831
O7    O     O_R   0.064110 0.424510 0.685150 -0.600829
O8    O     O_R   0.064110 0.575490 0.685150 -0.600822
O9    O     O_R   0.435880 0.075470 0.314850 -0.598975
O10   O     O_R   0.435880 0.924530 0.314850 -0.598975
O11   O     O_R   0.935880 0.575470 0.314850 -0.598969
O12   O     O_R   0.935880 0.424530 0.314850 -0.599005
O13   O     O_R   0.391380 0.075460 0.448260 -0.553891
O14   O     O_R   0.391380 0.924540 0.448260 -0.553891
O15   O     O_R   0.891380 0.575460 0.448260 -0.553888
O16   O     O_R   0.891380 0.424540 0.448260 -0.553898
I1    I     I_    0.233687 0.000005 0.412977 -0.415742
I2    I     I_    0.733687 0.500000 0.412978 -0.415760
O17   O     O_3   0.407442 0.749380 0.233914 -0.584392
C89   C     C_3   0.491807 0.785770 0.308433 -0.261580
H41   H     H_    0.515900 0.802042 0.412828 0.165148
H42   H     H_    0.489372 0.831205 0.247649 0.168899
H43   H     H_    0.543593 0.747296 0.326869 0.183773
O18   O     O_3   0.407438 0.250620 0.233896 -0.584396
C90   C     C_3   0.491808 0.214233 0.308453 -0.261568
H44   H     H_    0.489392 0.168794 0.247694 0.168920
H45   H     H_    0.515883 0.197967 0.412840 0.165126
H46   H     H_    0.543595 0.252707 0.326896 0.183776
O19   O     O_3   0.907442 0.249411 0.233912 -0.584329
C91   C     C_3   0.991762 0.285843 0.308099 -0.261685
H47   H     H_    0.016025 0.302134 0.412580 0.165417
H48   H     H_    0.989164 0.331280 0.247167 0.168739
H49   H     H_    0.043505 0.247390 0.326338 0.183740
O20   O     O_3   0.907439 0.750627 0.233912 -0.584404
C92   C     C_3   0.991814 0.714245 0.308503 -0.261566
H50   H     H_    0.989414 0.668807 0.247755 0.168939
H51   H     H_    0.015871 0.697979 0.412880 0.165096
H52   H     H_    0.043606 0.752722 0.326972 0.183781
I3    I     I_    0.766727 0.000003 0.582101 -0.408203
I4    I     I_    0.266727 0.499994 0.582101 -0.408209

loop_
_geom_bond_atom_site_label_1
_geom_bond_atom_site_label_2
_ccdc_geom_bond_type
C28   H4    S    
C26   H2    S    
C83   C87   A    
C92   H50   S    
C25   H1    S    
O19   C91   S    
C64   H24   S    
C14   C18   A    
C27   H3    S    
C48   C56   A    
C42   O12   A    
Cu3   N3    S    
Cu2   O3    S    
C44   H12   S    
C36   I2    S    
C32   C72   A    
C10   C62   A    
C58   N2    A    
C15   C19   A    
C92   H51   S    
C40   O14   A    
C18   C86   A    
C2    C29   S    
C9    C61   A    
C89   H41   S    
C28   C68   A    
C5    C11   A    
C59   I3    S    
C6    C12   A    
Cu2   N2    S    
C9    C13   A    
C73   H33   S    
O20   C92   S    
C77   C83   A    
C6    C22   A    
C49   C57   A    
C7    C9    A    
C25   C63   A    
C45   C47   A    
C23   C67   A    
Cu4   O7    S    
C26   C64   A    
C56   H16   S    
C13   H17   S    
C27   C61   A    
C30   C70   A    
C23   O19   S    
C11   C15   A    
C22   C66   A    
C12   C16   A    
C44   C46   A    
C49   C51   A    
Cu4   O16   S    
C50   C52   A    
C76   C80   A    
C58   H10   S    
C30   C86   A    
C42   O16   A    
C29   C85   A    
Cu3   O6    S    
C63   H23   S    
C60   I4    S    
C31   C71   A    
C33   C59   A    
C34   C60   A    
C57   N1    A    
Cu4   N4    S    
C20   H40   S    
C78   H30   S    
C36   N4    A    
C21   C65   A    
C90   H45   S    
C52   C54   A    
C38   C44   A    
C90   H44   S    
C41   C68   S    
C54   C56   A    
C53   C55   A    
C19   H39   S    
Cu1   O10   S    
C92   H52   S    
C46   C48   A    
Cu1   N1    S    
C17   H37   S    
C2    O2    A    
C15   H19   S    
C91   H48   S    
C6    C84   A    
C72   C74   A    
C10   C14   A    
C35   N3    A    
C71   C73   A    
C77   H29   S    
C53   H5    S    
C82   C86   A    
C79   H31   S    
C59   N1    A    
C55   H15   S    
C33   H7    S    
C26   C66   A    
Cu1   Cu3   S    
C38   H14   S    
Cu1   O9    S    
C37   H13   S    
Cu2   O11   S    
C4    O4    A    
C34   H8    S    
C41   O11   A    
C45   C49   A    
C16   C20   A    
C39   O9    A    
Cu4   O15   S    
C21   O17   S    
C50   C58   A    
C3    O7    A    
C27   C67   A    
C43   C45   A    
C80   C82   A    
C7    C81   A    
C74   H34   S    
Cu1   O1    S    
C72   H28   S    
C61   H21   S    
C91   H47   S    
C2    O6    A    
C39   C66   S    
C17   C85   A    
C37   C43   A    
C18   H38   S    
C31   C87   A    
C3    O3    A    
Cu2   O12   S    
C60   N2    A    
C90   H46   S    
C1    O1    A    
C16   H20   S    
C47   C55   A    
C80   H32   S    
C14   H18   S    
C12   C64   A    
C46   C50   A    
C35   C37   A    
C34   C52   A    
C48   N4    A    
C89   H43   S    
C54   H6    S    
C35   I1    S    
C4    O8    A    
Cu3   O14   S    
Cu2   O4    S    
C5    C83   A    
C62   H22   S    
C41   O15   A    
C71   H27   S    
C33   C51   A    
C57   H9    S    
C39   O13   A    
C79   C81   A    
C40   O10   A    
C40   C65   S    
O18   C90   S    
C36   C38   A    
C19   C87   A    
C70   C76   A    
C69   H25   S    
C42   C67   S    
C84   C88   A    
C22   O18   S    
C70   H26   S    
C7    C23   A    
C20   C88   A    
C89   H42   S    
C1    C30   S    
Cu2   Cu4   S    
C69   C75   A    
C75   H35   S    
C47   N3    A    
C24   O20   S    
C3    C32   S    
Cu4   O8    S    
C43   H11   S    
C4    C31   S    
C1    O5    A    
C24   C68   A    
C13   C17   A    
C78   C84   A    
C8    C82   A    
C5    C21   A    
C8    C24   A    
C91   H49   S    
C8    C10   A    
Cu1   O2    S    
C74   C78   A    
Cu3   O13   S    
O17   C89   S    
C25   C65   A    
C73   C77   A    
C29   C69   A    
C51   C53   A    
C11   C63   A    
C75   C79   A    
C81   C85   A    
C28   C62   A    
Cu3   O5    S    
C76   H36   S    
C32   C88   A    
