data_mof_unit_36561.cif
_audit_creation_date              2012-12-10T16:51:19-0500
_audit_creation_method            fapswitch 2.2
_symmetry_space_group_name_H-M    P1
_symmetry_Int_Tables_number       1
_space_group_crystal_system       triclinic
_cell_length_a                    27.801711
_cell_length_b                    8.66535
_cell_length_c                    7.421953
_cell_angle_alpha                 103.407461
_cell_angle_beta                  93.893232
_cell_angle_gamma                 92.553792
_cell_volume                      1731.93594803

loop_
_atom_site_label
_atom_site_type_symbol
_atom_type_description
_atom_site_fract_x
_atom_site_fract_y
_atom_site_fract_z
_atom_type_partial_charge
C1    C     C_R   0.498590 0.199397 0.452774 0.889052
C2    C     C_R   0.868667 0.372078 0.380321 -0.154093
C3    C     C_R   0.354382 0.519136 0.513370 -0.328429
C4    C     C_R   0.644197 0.495543 0.489847 -0.294395
C5    C     C_R   0.971149 0.370620 0.400970 -0.031182
C6    C     C_R   0.027210 0.639663 0.619149 -0.030548
C7    C     C_R   0.976363 0.629343 0.627816 0.087780
C8    C     C_R   0.022321 0.369643 0.416434 0.090860
C9    C     C_R   0.948384 0.498030 0.511717 0.070849
C10   C     C_R   0.050111 0.507335 0.519137 0.070888
C11   C     C_R   0.941907 0.248716 0.277075 -0.293042
C12   C     C_R   0.501633 0.800620 0.547193 0.870212
C13   C     C_R   0.055929 0.779057 0.705609 -0.300031
C14   C     C_R   0.891557 0.246943 0.268094 0.514311
C15   C     C_R   0.105958 0.788685 0.696626 0.503260
C16   C     C_R   0.407391 0.505389 0.503921 0.854411
C17   C     C_R   0.592096 0.499486 0.496973 0.946831
C18   C     C_R   0.046816 0.234949 0.333724 -0.217101
C19   C     C_R   0.952372 0.745922 0.749304 -0.213748
C20   C     C_2   0.497960 0.031210 0.426318 -0.372883
C21   C     C_2   0.502518 0.968820 0.573602 -0.363739
C22   C     C_R   0.175049 0.380287 0.447794 0.561047
C23   C     C_R   0.101273 0.512280 0.522334 -0.113414
C24   C     C_R   0.824012 0.608847 0.622697 0.529711
C25   C     C_R   0.179783 0.655331 0.600569 0.615266
C26   C     C_R   0.817971 0.378852 0.371147 0.638168
C27   C     C_R   0.283057 0.554988 0.693791 0.448564
C28   C     C_R   0.717598 0.357942 0.515195 0.448495
C29   C     C_R   0.333872 0.562918 0.687756 0.305676
C30   C     C_R   0.666981 0.356718 0.503064 0.288528
C31   C     C_R   0.323487 0.485280 0.347469 0.390987
C32   C     C_R   0.671442 0.632160 0.477084 0.378561
C33   C     C_R   0.273743 0.494660 0.356653 -0.305465
C34   C     C_R   0.897185 0.494853 0.505922 -0.115671
C35   C     C_R   0.721400 0.627302 0.469271 -0.248159
C36   C     C_R   0.253360 0.522884 0.526759 0.141075
C37   C     C_R   0.744892 0.491993 0.491137 0.102098
C38   C     C_3   0.332646 0.289797 0.090259 -0.161754
C39   C     C_3   0.652562 0.868277 0.652682 -0.252361
C40   C     C_3   0.630106 0.125430 0.334224 -0.240865
C41   C     C_3   0.380983 0.760321 0.887308 -0.235512
C42   C     C_3   0.750505 0.241610 0.733863 -0.218175
C43   C     C_3   0.267390 0.702805 0.983453 -0.184589
C44   C     C_3   0.861380 0.992702 0.227175 -0.243363
C45   C     C_R   0.124484 0.376005 0.437495 -0.015299
C46   C     C_3   0.127434 0.042721 0.687063 -0.200354
C47   C     C_R   0.874466 0.615126 0.626024 -0.000205
C48   C     C_R   0.096896 0.238173 0.345039 -0.180526
C49   C     C_R   0.902440 0.738149 0.748798 -0.164457
C50   C     C_R   0.129249 0.653397 0.608742 -0.134573
Cu1   Cu    Cu3+1 0.505380 0.517380 0.684380 0.966315
Cu2   Cu    Cu3+1 0.494620 0.482620 0.315620 0.974483
H1    H     H_    0.957005 0.154001 0.180536 0.150897
H2    H     H_    0.537956 0.621945 0.051827 0.228698
H3    H     H_    0.250397 0.474284 0.229451 0.210073
H4    H     H_    0.742158 0.730996 0.452094 0.205467
H5    H     H_    0.113931 0.131725 0.279479 0.193330
H6    H     H_    0.885810 0.830754 0.844081 0.200712
H7    H     H_    0.663845 0.078692 0.275978 0.208216
H8    H     H_    0.611099 0.189545 0.239390 0.140713
H9    H     H_    0.605837 0.022210 0.341037 0.200197
H10   H     H_    0.403876 0.789310 0.020538 0.187678
H11   H     H_    0.351649 0.843970 0.900545 0.102077
H12   H     H_    0.040484 0.885593 0.777651 0.151806
H13   H     H_    0.403784 0.782043 0.777378 0.148656
H14   H     H_    0.716862 0.248292 0.807867 0.170343
H15   H     H_    0.775547 0.347411 0.795362 0.169721
H16   H     H_    0.768734 0.135244 0.755408 0.211296
H17   H     H_    0.299333 0.707494 0.082885 0.206973
H18   H     H_    0.235320 0.718117 0.065549 0.179909
H19   H     H_    0.269973 0.804556 0.916050 0.168195
H20   H     H_    0.837303 0.897509 0.133979 0.216321
H21   H     H_    0.844989 0.024850 0.362779 0.180707
H22   H     H_    0.897191 0.943402 0.245343 0.130478
H23   H     H_    0.293386 0.260206 0.052187 0.175634
H24   H     H_    0.138999 0.999661 0.544221 0.177624
H25   H     H_    0.151330 0.148801 0.756390 0.206871
H26   H     H_    0.089847 0.081203 0.681093 0.131966
H27   H     H_    0.028260 0.122983 0.263956 0.137813
H28   H     H_    0.971261 0.842769 0.850824 0.138205
H29   H     H_    0.493724 0.958527 0.284820 0.168016
H30   H     H_    0.506816 0.041501 0.715082 0.173900
H31   H     H_    0.347135 0.213438 0.180493 0.112701
H32   H     H_    0.351204 0.262262 0.959900 0.173796
H33   H     H_    0.690320 0.917555 0.695422 0.195550
H34   H     H_    0.639305 0.804432 0.755667 0.143743
H35   H     H_    0.629354 0.969213 0.654877 0.216560
H36   H     H_    0.461953 0.378342 0.948254 0.236563
N1    N     N_R   0.201627 0.518702 0.528216 -0.421388
N2    N     N_R   0.796751 0.493161 0.494915 -0.433770
N3    N     N_2   0.486510 0.456430 0.038510 -0.203602
N4    N     N_2   0.513490 0.543570 0.961490 -0.217590
O1    O     O_R   0.503500 0.286120 0.619780 -0.580966
O2    O     O_2   0.802321 0.717238 0.747181 -0.563896
O3    O     O_2   0.789992 0.273816 0.238459 -0.487179
O4    O     O_2   0.206888 0.793013 0.659469 -0.523095
O5    O     O_3   0.342006 0.452711 0.175148 -0.510163
O6    O     O_3   0.649070 0.770285 0.471010 -0.584742
O7    O     O_3   0.639860 0.222466 0.515154 -0.579316
O8    O     O_3   0.362799 0.600063 0.853105 -0.507706
O9    O     O_3   0.740124 0.224925 0.541506 -0.553327
O10   O     O_3   0.261683 0.552755 0.856982 -0.565992
O11   O     O_3   0.865106 0.123357 0.144306 -0.550761
O12   O     O_R   0.496500 0.713880 0.380220 -0.582843
O13   O     O_3   0.132264 0.926463 0.791222 -0.547148
O14   O     O_R   0.494410 0.256780 0.308360 -0.604225
O15   O     O_R   0.505590 0.743220 0.691640 -0.604818
O16   O     O_R   0.434810 0.514700 0.655690 -0.557550
O17   O     O_R   0.565190 0.485300 0.344310 -0.590332
O18   O     O_R   0.425720 0.485350 0.344280 -0.529532
O19   O     O_R   0.574280 0.514650 0.655720 -0.577735
O20   O     O_2   0.197554 0.247305 0.377204 -0.547223

loop_
_geom_bond_atom_site_label_1
_geom_bond_atom_site_label_2
_ccdc_geom_bond_type
C36   N1    S    
C33   H3    S    
C23   C45   A    
C38   H31   S    
C27   C29   A    
C39   H35   S    
C40   O7    S    
C46   H24   S    
C16   O18   A    
C48   H5    S    
C47   C49   A    
H2    N4    S    
C37   N2    S    
C40   H8    S    
C28   C37   A    
C35   C37   A    
C12   O12   A    
C11   C14   A    
C46   O13   S    
C33   C36   A    
C15   C50   A    
C3    C29   A    
C25   C50   A    
C7    C19   A    
C28   O9    S    
Cu1   O16   S    
Cu1   O19   S    
C31   C33   A    
C11   H1    S    
C1    O14   A    
C2    C34   A    
Cu2   O14   S    
C43   H17   S    
C40   H7    S    
C20   H29   S    
C42   H16   S    
C44   H21   S    
C41   H10   S    
C38   O5    S    
C17   O19   A    
C44   O11   S    
C38   H23   S    
Cu1   Cu2   S    
C32   C35   A    
N3    N4    D    
C46   H26   S    
C16   O16   A    
C18   H27   S    
C23   C50   A    
C41   H13   S    
C30   O7    S    
C8    C18   A    
C40   H9    S    
C24   N2    A    
C44   H22   S    
C5    C9    A    
C24   O2    S    
Cu1   N4    S    
C12   O15   A    
C19   C49   A    
H36   N3    S    
Cu2   O18   S    
C41   O8    S    
C2    C26   A    
C21   H30   S    
C3    C31   A    
C4    C32   A    
Cu1   O1    S    
C4    C17   S    
C1    O1    A    
C43   H18   S    
C22   O20   S    
C13   C15   A    
C9    C34   A    
C10   C23   A    
C5    C8    A    
C39   H33   S    
C42   O9    S    
C45   C48   A    
C26   O3    S    
C7    C9    A    
Cu2   O12   S    
C1    C20   S    
C43   H19   S    
C29   O8    S    
C38   H32   S    
C35   H4    S    
C24   C47   A    
C8    C10   A    
C39   O6    S    
C17   O17   A    
C6    C10   A    
C46   H25   S    
C18   C48   A    
C5    C11   A    
C6    C7    A    
C27   C36   A    
C26   N2    A    
C27   O10   S    
C25   N1    A    
C15   O13   S    
C28   C30   A    
C43   O10   S    
C6    C13   A    
C14   O11   S    
C42   H15   S    
C13   H12   S    
Cu2   O17   S    
C12   C21   S    
C22   N1    A    
C32   O6    S    
C44   H20   S    
C31   O5    S    
C19   H28   S    
C2    C14   A    
C49   H6    S    
C22   C45   A    
C20   C21   D    
C25   O4    S    
Cu1   O15   S    
C42   H14   S    
C41   H11   S    
Cu2   N3    S    
C34   C47   A    
C39   H34   S    
C4    C30   A    
C3    C16   S    
