data_mof_unit_16727.cif
_audit_creation_date              2012-12-11T15:58:39-0500
_audit_creation_method            fapswitch 2.2
_symmetry_space_group_name_H-M    P1
_symmetry_Int_Tables_number       1
_space_group_crystal_system       triclinic
_cell_length_a                    8.204571
_cell_length_b                    18.755528
_cell_length_c                    19.000631
_cell_angle_alpha                 98.631554
_cell_angle_beta                  94.265299
_cell_angle_gamma                 91.607903
_cell_volume                      2880.43335929

loop_
_atom_site_label
_atom_site_type_symbol
_atom_type_description
_atom_site_fract_x
_atom_site_fract_y
_atom_site_fract_z
_atom_type_partial_charge
Ba1   Ba    Ba6+2 0.152460 0.535140 0.468980 1.676430
Ba2   Ba    Ba6+2 0.657710 0.464850 0.530960 1.710193
C1    C     C_3   0.355288 0.713659 0.213959 -0.356115
C2    C     C_R   0.096964 0.903474 0.567157 0.032622
C3    C     C_R   0.254181 0.926334 0.597904 -0.083114
C4    C     C_3   0.822787 0.729149 0.296824 0.340861
C5    C     C_R   0.315698 0.996024 0.595073 -0.091866
C6    C     C_R   0.220185 0.044711 0.562457 0.035197
C7    C     C_R   0.062838 0.022314 0.530698 0.011753
C8    C     C_R   0.278787 0.115692 0.562618 -0.083738
C9    C     C_R   0.180814 0.166255 0.533244 -0.109687
C10   C     C_R   0.024464 0.143349 0.498950 -0.012403
C11   C     C_R   0.966481 0.071039 0.497724 0.012269
C12   C     C_3   0.371007 0.690624 0.287401 0.388691
C13   C     C_R   0.232419 0.239570 0.538852 -0.051849
C14   C     C_R   0.126529 0.289033 0.513438 0.299102
C15   C     C_R   0.978233 0.266724 0.474181 -0.006720
C16   C     C_3   0.873512 0.809357 0.315628 -0.194739
C17   C     C_R   0.925655 0.192543 0.466306 -0.117073
C18   C     C_R   0.844798 0.928232 0.500654 -0.010513
C19   C     C_R   0.785212 0.856405 0.500932 -0.003046
C20   C     C_R   0.884039 0.807261 0.533636 -0.038419
C21   C     C_R   0.035315 0.833409 0.569952 -0.042354
C22   C     C_R   0.775661 0.166134 0.428896 -0.022573
C23   C     C_3   0.512317 0.683737 0.645863 0.312482
C24   C     C_R   0.714814 0.095704 0.430821 0.036450
C25   C     C_R   0.810128 0.047920 0.465398 0.005574
C26   C     C_R   0.748760 0.976858 0.467387 0.012164
C27   C     C_R   0.557847 0.072707 0.399830 -0.086438
C28   C     C_3   0.790770 0.380341 0.311589 0.303440
C29   C     C_R   0.495785 0.003217 0.403188 -0.090938
C30   C     C_R   0.590757 0.954704 0.436306 0.033451
C31   C     C_R   0.627232 0.833968 0.468174 -0.042912
C32   C     C_R   0.530372 0.884337 0.437969 -0.110379
C33   C     C_R   0.572494 0.761350 0.465278 -0.009383
C34   C     C_3   0.527717 0.764885 0.669661 -0.387732
C35   C     C_R   0.675798 0.712230 0.492785 -0.288543
C36   C     C_R   0.829191 0.733557 0.527750 0.052639
C37   C     C_R   0.609147 0.532821 0.301380 -0.276200
C38   C     C_R   0.463591 0.494044 0.276279 0.053337
C39   C     C_R   0.410731 0.486545 0.203619 -0.121064
C40   C     C_3   0.771576 0.362519 0.230555 -0.392263
C41   C     C_R   0.504263 0.517053 0.155496 0.011121
C42   C     C_R   0.654262 0.553976 0.181496 -0.147721
C43   C     C_R   0.707650 0.560525 0.254133 -0.012292
C44   C     C_R   0.462294 0.566270 0.039740 -0.113493
C45   C     C_3   0.906718 0.264666 0.671137 0.363204
C46   C     C_R   0.407194 0.558789 0.967400 0.586458
C47   C     C_R   0.339248 0.492188 0.931024 -0.015340
C48   C     C_R   0.323359 0.434399 0.969662 -0.164634
C49   C     C_R   0.376569 0.442395 0.042325 -0.087691
C50   C     C_R   0.447590 0.508347 0.078173 -0.013445
C51   C     C_R   0.140410 0.445591 0.824380 -0.144408
C52   C     C_3   0.014788 0.618679 0.688365 0.287593
C53   C     C_R   0.093972 0.438987 0.750861 0.008779
C54   C     C_R   0.340596 0.505685 0.733612 0.000002
C55   C     C_R   0.389001 0.511949 0.806377 -0.057067
C56   C     C_3   0.890388 0.188431 0.688658 -0.367764
C57   C     C_R   0.289332 0.482346 0.852912 0.022562
C58   C     C_R   0.197179 0.466970 0.705867 -0.288807
C59   C     C_3   0.037430 0.637012 0.769342 -0.359281
C60   C     C_3   0.295006 0.317908 0.368119 0.315433
C61   C     C_3   0.282048 0.236776 0.343764 -0.428599
C62   C     C_R   0.967152 0.836998 0.259256 0.095616
C63   C     C_R   0.123807 0.869781 0.277342 -0.015223
C64   C     C_R   0.211345 0.895622 0.225432 -0.088495
C65   C     C_R   0.142576 0.889568 0.155191 -0.060134
C66   C     C_R   0.985588 0.858267 0.136948 -0.065905
C67   C     C_3   0.428560 0.307177 0.713687 0.352846
C68   C     C_R   0.897549 0.832449 0.188779 -0.057990
C69   C     C_3   0.450357 0.284328 0.787115 -0.369360
C70   C     C_R   0.001692 0.951187 0.532482 0.001670
F1    F     F_    0.171589 0.360097 0.524450 -0.716065
F2    F     F_    0.416596 0.617489 0.933683 -0.721477
H1    H     H_    0.291230 0.641731 0.286137 0.103971
H2    H     H_    0.174296 0.336696 0.383074 0.045220
H3    H     H_    0.386226 0.329447 0.414906 0.096866
H4    H     H_    0.226252 0.725366 0.199490 0.154252
H5    H     H_    0.184040 0.223403 0.299783 0.128850
H6    H     H_    0.252817 0.208269 0.388560 0.048381
H7    H     H_    0.400153 0.217813 0.324441 0.122380
H8    H     H_    0.499550 0.677211 0.299563 -0.104713
H9    H     H_    0.393789 0.669636 0.173725 0.068587
H10   H     H_    0.633700 0.664413 0.631449 0.010776
H11   H     H_    0.422860 0.672829 0.598337 0.051925
H12   H     H_    0.675735 0.319034 0.213832 0.122414
H13   H     H_    0.621318 0.777788 0.715486 0.133546
H14   H     H_    0.564891 0.792294 0.625191 0.048789
H15   H     H_    0.408327 0.785281 0.686043 0.118774
H16   H     H_    0.434227 0.762663 0.213593 0.101906
H17   H     H_    0.761890 0.841024 0.322773 0.033959
H18   H     H_    0.833157 0.266989 0.620167 0.084061
H19   H     H_    0.037308 0.276513 0.664462 -0.069005
H20   H     H_    0.760346 0.174299 0.694646 0.147439
H21   H     H_    0.934728 0.149408 0.645134 0.073977
H22   H     H_    0.964405 0.184374 0.739157 0.110482
H23   H     H_    0.735928 0.410726 0.206810 0.067081
H24   H     H_    0.296302 0.313966 0.701059 -0.053267
H25   H     H_    0.495926 0.359665 0.715641 0.085320
H26   H     H_    0.403669 0.326260 0.827429 0.066573
H27   H     H_    0.581889 0.277403 0.801769 0.152620
H28   H     H_    0.767860 0.713815 0.344546 -0.041800
H29   H     H_    0.381235 0.232560 0.787126 0.108716
H30   H     H_    0.330185 0.890162 0.623902 0.062877
H31   H     H_    0.437492 0.012153 0.619278 0.071162
H32   H     H_    0.399772 0.131236 0.587619 0.104281
H33   H     H_    0.109197 0.799414 0.599391 0.095020
H34   H     H_    0.889249 0.344332 0.210116 0.124388
H35   H     H_    0.701439 0.200385 0.399908 0.094283
H36   H     H_    0.481975 0.108763 0.373662 0.063519
H37   H     H_    0.373639 0.987279 0.379370 0.062605
H38   H     H_    0.408179 0.869228 0.414492 0.099400
H39   H     H_    0.728908 0.721376 0.250872 -0.027807
H40   H     H_    0.633881 0.656463 0.488831 0.066330
H41   H     H_    0.502792 0.541028 0.826584 0.128974
H42   H     H_    0.514192 0.618010 0.065992 0.092602
H43   H     H_    0.297256 0.456548 0.184733 0.082737
H44   H     H_    0.272577 0.382475 0.943313 0.089309
H45   H     H_    0.130821 0.600337 0.667544 0.004487
H46   H     H_    0.365094 0.396399 0.070151 0.078988
H47   H     H_    0.058693 0.424604 0.859223 0.079835
H48   H     H_    0.731787 0.575270 0.145232 0.073797
H49   H     H_    0.160023 0.463185 0.649548 0.123180
H50   H     H_    0.947745 0.817662 0.367816 0.100698
H51   H     H_    0.650992 0.537384 0.357281 0.065529
H52   H     H_    0.671681 0.395656 0.331375 0.001623
H53   H     H_    0.881625 0.426016 0.326809 0.062955
H54   H     H_    0.177992 0.875501 0.331623 0.076800
H55   H     H_    0.332502 0.920293 0.239690 0.065619
H56   H     H_    0.919236 0.574939 0.674003 0.074277
H57   H     H_    0.210546 0.909496 0.114998 0.073345
H58   H     H_    0.931908 0.854157 0.082642 0.078542
H59   H     H_    0.775544 0.808947 0.173911 0.056514
H60   H     H_    0.140221 0.677402 0.785169 0.151362
H61   H     H_    0.064448 0.588107 0.793476 0.079648
H62   H     H_    0.923721 0.659477 0.790329 0.130017
O1    O     O_2   0.118870 0.674530 0.547560 -0.465986
O2    O     O_2   0.755292 0.445839 0.745911 -0.497628
O3    O     O_3   0.849356 0.313252 0.726652 -0.599219
O4    O     O_3   0.870460 0.585330 0.542110 -0.489935
O5    O     O_3   0.436130 0.464210 0.414140 -0.473865
O6    O     O_2   0.629420 0.533310 0.672080 -0.467842
O7    O     O_3   0.459158 0.650636 0.702045 -0.627915
O8    O     O_2   0.572090 0.241977 0.531922 -0.508157
O9    O     O_3   0.490949 0.254473 0.663290 -0.612152
O10   O     O_3   0.354280 0.631750 0.418430 -0.484941
O11   O     O_2   0.230241 0.756804 0.466789 -0.481098
O12   O     O_3   0.342880 0.351244 0.311538 -0.645254
O13   O     O_3   0.969091 0.680817 0.660913 -0.643151
O14   O     O_3   0.322829 0.746791 0.338043 -0.600764
O15   O     O_2   0.180880 0.466650 0.327890 -0.465100
O16   O     O_3   0.939000 0.596010 0.380670 -0.464905
O17   O     O_2   0.048313 0.553793 0.253688 -0.497754
O18   O     O_3   0.958197 0.687775 0.278651 -0.579853
O19   O     O_2   0.691430 0.325420 0.452420 -0.483320
O20   O     O_3   0.939830 0.414660 0.457830 -0.419122
O21   O     O_3   0.456020 0.368240 0.581510 -0.402590
O22   O     O_3   0.842599 0.318990 0.339012 -0.649661
O23   O     O_3   0.374170 0.535780 0.585810 -0.452742
O24   O     O_3   0.871300 0.403980 0.619270 -0.464422
P1    P     P_3+3 0.947550 0.663200 0.567530 0.982392
P2    P     P_3+3 0.354660 0.445020 0.336980 0.996598
P3    P     P_3+3 0.912467 0.598418 0.289157 0.957960
P4    P     P_3+3 0.862750 0.336790 0.432410 1.027792
P5    P     P_3+3 0.892420 0.401317 0.711420 0.955965
P6    P     P_3+3 0.370109 0.725165 0.423459 0.954257
P7    P     P_3+3 0.448466 0.557054 0.675406 0.968019
P8    P     P_3+3 0.437702 0.275000 0.577912 0.992731

loop_
_geom_bond_atom_site_label_1
_geom_bond_atom_site_label_2
_ccdc_geom_bond_type
C34   H15   S    
C6    C7    A    
C28   H52   S    
Ba2   O19   S    
C37   H51   S    
C58   H49   S    
C32   H38   S    
C45   H18   S    
C60   H3    S    
C7    C70   A    
C41   C42   A    
C51   C57   A    
C5    C6    A    
C55   H41   S    
C61   H5    S    
C34   H14   S    
O8    P8    D    
C24   C25   A    
C35   C36   A    
O17   P3    D    
C1    H16   S    
C16   H17   S    
O11   P6    D    
C22   C24   A    
C41   C50   S    
C55   C57   A    
C19   C31   A    
C13   C14   A    
C20   C36   A    
C44   C50   A    
C33   P6    S    
C67   O9    S    
C54   C55   A    
C10   C17   A    
Ba1   O16   S    
O3    P5    S    
Ba1   Ba2   S    
C66   H58   S    
C7    C11   A    
C18   C70   A    
C56   H22   S    
C15   C17   A    
O6    P7    D    
C9    C13   A    
C36   P1    S    
C14   C15   A    
C68   H59   S    
C5    H31   S    
C40   H12   S    
C62   C68   A    
O22   P4    S    
C37   C43   A    
C64   H55   S    
C53   C58   A    
C67   H24   S    
C64   C65   A    
C69   H27   S    
C3    H30   S    
Ba1   P1    S    
O5    P2    S    
C60   O12   S    
C19   C20   A    
C39   C41   A    
C60   H2    S    
Ba1   O10   S    
C23   O7    S    
C52   H56   S    
O21   P8    S    
C59   H60   S    
C31   C32   A    
C52   O13   S    
C61   H6    S    
C51   C53   A    
C34   H13   S    
C4    C16   S    
C44   C46   A    
C67   C69   S    
C14   F1    S    
C63   H54   S    
C46   F2    S    
O18   P3    S    
C26   C30   A    
C40   H23   S    
Ba2   P4    S    
C37   C38   A    
C3    C5    A    
C2    C21   A    
Ba2   O23   S    
C35   H40   S    
C18   C26   A    
C48   C49   A    
O4    P1    S    
C29   H37   S    
C65   C66   A    
C30   C32   A    
Ba1   O20   S    
C56   H21   S    
C4    H39   S    
C38   P2    S    
C60   C61   S    
C15   P4    S    
C23   H10   S    
C27   H36   S    
C29   C30   A    
Ba1   O23   S    
O15   P2    D    
C21   H33   S    
C12   O14   S    
C23   H11   S    
C49   H46   S    
C45   H19   S    
O24   P5    S    
C10   C11   A    
C1    C12   S    
O7    P7    S    
C4    O18   S    
Ba1   O4    S    
C67   H25   S    
Ba2   O24   S    
C46   C47   A    
C61   H7    S    
Ba1   P2    S    
C47   C48   A    
O2    P5    D    
C1    H9    S    
Ba2   O6    S    
C13   P8    S    
C8    H32   S    
O13   P1    S    
C53   P5    S    
C2    C70   A    
Ba1   O1    S    
C42   C43   A    
C59   H61   S    
C28   O22   S    
C69   H29   S    
C28   H53   S    
C38   C39   A    
Ba2   O20   S    
C33   C35   A    
C48   H44   S    
C6    C8    A    
C65   H57   S    
C22   H35   S    
C2    C3    A    
C9    C10   A    
C52   C59   S    
O19   P4    D    
C69   H26   S    
C47   C57   S    
C44   H42   S    
O12   P2    S    
C62   C63   A    
C17   C22   A    
C43   P3    S    
Ba2   O4    S    
C49   C50   A    
C27   C29   A    
C51   H47   S    
C12   H1    S    
C45   C56   S    
O1    P1    D    
C16   C62   S    
Ba2   O21   S    
C54   P7    S    
C42   H48   S    
C31   C33   A    
O23   P7    S    
Ba1   O15   S    
C28   C40   S    
C4    H28   S    
C56   H20   S    
O16   P3    S    
Ba1   O5    S    
C8    C9    A    
C23   C34   S    
C54   C58   A    
C18   C19   A    
O20   P4    S    
C24   C27   A    
C66   C68   A    
C63   C64   A    
C45   O3    S    
C25   C26   A    
Ba2   O5    S    
C12   H8    S    
C20   C21   A    
C11   C25   A    
O10   P6    S    
C39   H43   S    
C52   H45   S    
C1    H4    S    
C40   H34   S    
C59   H62   S    
C16   H50   S    
O9    P8    S    
O14   P6    S    
