data_mof_unit_47599.cif
_audit_creation_date              2013-03-05T15:55:17-0500
_audit_creation_method            fapswitch 2.2
_symmetry_space_group_name_H-M    P1
_symmetry_Int_Tables_number       1
_space_group_crystal_system       triclinic
_cell_length_a                    14.745367
_cell_length_b                    14.76096
_cell_length_c                    33.300642
_cell_angle_alpha                 96.137948
_cell_angle_beta                  96.379119
_cell_angle_gamma                 61.155765
_cell_volume                      6297.683985

loop_
_atom_site_label
_atom_site_type_symbol
_atom_site_description
_atom_site_fract_x
_atom_site_fract_y
_atom_site_fract_z
_atom_type_partial_charge
O1    O     O_R   0.679450 0.499830 0.463150 -0.524852
O2    O     O_R   0.480650 0.664000 0.464630 -0.502189
C1    C     C_R   0.390817 0.699933 0.446084 0.844491
O3    O     O_R   0.323930 0.675950 0.455370 -0.553262
O4    O     O_R   0.354700 0.475360 0.451930 -0.536602
C2    C     C_R   0.405816 0.386452 0.433942 0.791863
O5    O     O_R   0.494470 0.320860 0.448390 -0.539161
O6    O     O_R   0.662580 0.357570 0.460050 -0.542421
C3    C     C_R   0.700460 0.410047 0.447497 0.778090
O7    O     O_R   0.680900 0.502040 0.551870 -0.538053
O8    O     O_R   0.481990 0.666040 0.546870 -0.532385
C4    C     C_R   0.393808 0.700943 0.561352 0.812592
O9    O     O_R   0.325370 0.678160 0.544080 -0.525522
O10   O     O_R   0.356040 0.477400 0.534170 -0.508040
C5    C     C_R   0.406388 0.388217 0.548844 0.890612
O11   O     O_R   0.495910 0.323070 0.537100 -0.508664
O12   O     O_R   0.663920 0.359620 0.542290 -0.537545
C6    C     C_R   0.701007 0.413847 0.562794 0.774228
Cr1   Cr    Cr6+3 0.576280 0.580550 0.506370 1.053966
Cr2   Cr    Cr6+3 0.346780 0.572400 0.496520 1.036234
Cr3   Cr    Cr6+3 0.576960 0.347070 0.497150 1.009583
O13   O     O_3   0.500010 0.500010 0.500010 -0.364824
H1    H     H_    0.454697 0.184104 0.106075 0.197163
H2    H     H_    0.463284 0.194703 0.311411 0.166175
H3    H     H_    0.497036 0.210247 0.384762 0.168878
C7    C     C_R   0.370433 0.367053 0.392323 -0.059470
C8    C     C_R   0.285614 0.447993 0.372241 -0.145879
C9    C     C_R   0.267166 0.438860 0.330389 -0.113679
C10   C     C_R   0.332600 0.348618 0.308355 0.092937
C11   C     C_R   0.412460 0.264956 0.328360 -0.077851
C12   C     C_R   0.431239 0.273901 0.370190 -0.129848
C13   C     C_R   0.403366 0.261052 0.164240 0.398282
C14   C     C_R   0.389633 0.242327 0.122344 -0.206268
C15   C     C_R   0.208390 0.372086 0.122733 -0.143503
C16   C     C_R   0.220468 0.390244 0.164338 -0.142214
C17   C     C_R   0.316191 0.332972 0.185385 -0.026442
C18   C     C_1   0.319914 0.340848 0.228761 0.090940
C19   C     C_1   0.323980 0.344935 0.265076 0.030164
C20   C     C_R   0.291787 0.295039 0.101633 -0.123676
H4    H     H_    0.237527 0.520819 0.388383 0.148568
H5    H     H_    0.153503 0.445556 0.180442 0.187298
H6    H     H_    0.131964 0.413816 0.107624 0.161575
H7    H     H_    0.205068 0.503905 0.315038 0.139556
N1    N     N_R   0.773826 0.398844 0.223025 -0.210202
N2    N     N_R   0.763236 0.407366 0.262485 -0.240478
C21   C     C_R   0.752233 0.374923 0.409375 -0.067189
C22   C     C_R   0.769130 0.444051 0.389499 -0.116363
C23   C     C_R   0.790621 0.423934 0.348996 -0.096632
C24   C     C_R   0.797326 0.333657 0.327918 0.005824
C25   C     C_R   0.790886 0.259479 0.348668 -0.110769
C26   C     C_R   0.767857 0.280257 0.389218 -0.143776
N3    N     N_R   0.852087 0.226839 0.264357 -0.256732
N4    N     N_R   0.863396 0.218289 0.224775 -0.189758
C27   C     C_R   0.825826 0.304395 0.203645 0.682185
C28   C     C_R   0.804074 0.321789 0.284011 0.515559
C29   C     C_R   0.892528 0.361676 0.151689 0.340666
C30   C     C_R   0.917553 0.355434 0.112184 -0.267666
C31   C     C_R   0.869773 0.219316 0.093128 0.277845
C32   C     C_R   0.842048 0.227083 0.132941 0.565593
C33   C     C_R   0.853995 0.297204 0.162210 -0.307891
C34   C     C_R   0.910881 0.282385 0.083053 -0.301596
H8    H     H_    0.758539 0.517178 0.404289 0.195334
H9    H     H_    0.755880 0.225273 0.403945 0.150243
H10   H     H_    0.950910 0.402798 0.105317 0.202553
H11   H     H_    0.797905 0.481106 0.333721 0.182499
H12   H     H_    0.796965 0.188822 0.332954 0.159312
N5    N     N_R   0.321119 0.754917 0.215583 -0.274224
N6    N     N_R   0.324512 0.746731 0.255155 -0.280137
C35   C     C_R   0.372640 0.750587 0.407840 -0.200086
C36   C     C_R   0.294546 0.750398 0.379736 -0.194837
C37   C     C_R   0.293502 0.766648 0.339450 -0.170011
C38   C     C_R   0.370164 0.783961 0.325912 -0.151874
C39   C     C_R   0.444230 0.793605 0.354462 0.300727
C40   C     C_R   0.444058 0.779120 0.395696 0.287374
N7    N     N_R   0.413027 0.843193 0.267583 -0.186484
N8    N     N_R   0.410199 0.850922 0.228000 -0.252431
C41   C     C_R   0.364062 0.807078 0.201246 0.521345
C42   C     C_R   0.370105 0.791083 0.281984 0.587451
C43   C     C_R   0.272269 0.816772 0.133018 -0.109946
C44   C     C_R   0.246496 0.854075 0.094388 -0.124843
C45   C     C_R   0.385330 0.899518 0.103687 -0.140889
C46   C     C_R   0.410309 0.863296 0.142400 -0.101851
C47   C     C_R   0.351275 0.825586 0.157984 0.006518
C48   C     C_R   0.300133 0.899648 0.080089 -0.063426
H13   H     H_    0.237857 0.730361 0.388168 0.172054
H14   H     H_    0.181086 0.852350 0.076668 0.167428
H15   H     H_    0.233943 0.762087 0.318495 0.176238
H16   H     H_    0.225904 0.787343 0.144207 0.159761
H17   H     H_    0.428744 0.933414 0.093358 0.158867
H18   H     H_    0.472684 0.869427 0.160813 0.171285
N9    N     N_R   0.233216 0.420033 0.768146 -0.172901
N10   N     N_R   0.239049 0.422527 0.728742 -0.189927
C49   C     C_R   0.369832 0.369843 0.585699 -0.324988
C50   C     C_R   0.277579 0.449141 0.602405 0.248781
C51   C     C_R   0.264229 0.453321 0.643978 0.302618
C52   C     C_R   0.339948 0.375347 0.668414 -0.216188
C53   C     C_R   0.423244 0.290429 0.650376 -0.237684
C54   C     C_R   0.437549 0.285126 0.609287 0.350831
N11   N     N_R   0.419877 0.329932 0.737119 -0.275312
N12   N     N_R   0.414028 0.327194 0.776503 -0.284437
C55   C     C_R   0.320539 0.372253 0.792837 0.550415
C56   C     C_R   0.332487 0.377337 0.712415 0.595078
C57   C     C_R   0.220267 0.418338 0.854757 0.670561
C58   C     C_R   0.209074 0.391791 0.892163 -0.222633
C59   C     C_R   0.385994 0.252095 0.893287 -0.129408
C60   C     C_R   0.397622 0.278760 0.856020 -0.188340
C61   C     C_R   0.313516 0.358996 0.835495 -0.115834
C62   C     C_R   0.290252 0.305669 0.910875 -0.143735
H19   H     H_    0.134750 0.435371 0.905327 0.173306
H20   H     H_    0.477439 0.226581 0.668393 0.213709
H21   H     H_    0.450331 0.186003 0.907222 0.172708
H22   H     H_    0.470703 0.232204 0.842220 0.187487
H23   H     H_    0.942287 0.126076 0.875719 0.175550
H24   H     H_    0.889930 0.147875 0.803464 0.143697
H25   H     H_    0.795596 0.201673 0.669492 0.156648
H26   H     H_    0.748243 0.235755 0.597791 0.183519
C63   C     C_R   0.752226 0.381822 0.603340 -0.086713
C64   C     C_R   0.773478 0.450466 0.630297 -0.119445
C65   C     C_R   0.799917 0.430798 0.671202 -0.072202
C66   C     C_R   0.805921 0.342263 0.685552 0.079268
C67   C     C_R   0.790843 0.270560 0.658622 -0.101150
C68   C     C_R   0.764401 0.289994 0.617702 -0.128014
C69   C     C_R   0.882420 0.214226 0.823113 -0.114648
C70   C     C_R   0.911626 0.202226 0.864378 -0.139874
C71   C     C_R   0.869138 0.383307 0.873891 -0.140152
C72   C     C_R   0.839798 0.395101 0.832691 -0.090792
C73   C     C_R   0.849353 0.309912 0.807093 0.100858
C74   C     C_1   0.833151 0.319191 0.764137 -0.004184
C75   C     C_1   0.821303 0.328494 0.728211 -0.000865
C76   C     C_R   0.908750 0.285848 0.889916 -0.066775
H27   H     H_    0.764134 0.522127 0.620309 0.179130
H28   H     H_    0.813980 0.469556 0.820518 0.155898
H29   H     H_    0.865930 0.449165 0.892738 0.157406
H30   H     H_    0.811666 0.486657 0.691892 0.173023
H31   H     H_    0.420583 0.945071 0.891982 0.198963
H32   H     H_    0.537353 0.723253 0.613328 0.189085
C77   C     C_R   0.379084 0.751106 0.602636 -0.129109
C78   C     C_R   0.285417 0.784318 0.620432 -0.094476
C79   C     C_R   0.279190 0.808670 0.661933 -0.150467
C80   C     C_R   0.366265 0.800033 0.686366 -0.040855
C81   C     C_R   0.459924 0.772263 0.668738 0.400502
C82   C     C_R   0.464451 0.749439 0.626733 -0.213024
C83   C     C_R   0.396754 0.884087 0.833067 0.702496
C84   C     C_R   0.375250 0.914260 0.873543 -0.336914
C85   C     C_R   0.234838 0.870639 0.864061 0.661186
C86   C     C_R   0.256810 0.840394 0.823597 -0.293724
C87   C     C_R   0.335572 0.849913 0.807820 -0.131855
C88   C     C_1   0.348426 0.831409 0.765198 0.148986
C89   C     C_1   0.357222 0.817578 0.729307 0.092476
C90   C     C_R   0.291770 0.911451 0.889171 -0.270815
H33   H     H_    0.218289 0.786739 0.602633 0.197813
H34   H     H_    0.209775 0.813138 0.804186 0.199052
H35   H     H_    0.206998 0.830796 0.675257 0.172367
O14   O     O_R   0.170070 0.978950 0.027680 -0.531514
O15   O     O_R   0.001760 0.175230 0.026640 -0.504451
C91   C     C_R   0.963297 0.264499 0.045529 0.898430
O16   O     O_R   0.984760 0.333570 0.037150 -0.554711
O17   O     O_R   0.183410 0.309240 0.041890 -0.541209
C92   C     C_R   0.272780 0.259481 0.060038 0.806780
O18   O     O_R   0.340240 0.172500 0.045430 -0.541208
O19   O     O_R   0.309670 0.000990 0.032050 -0.541301
C93   C     C_R   0.259572 0.959429 0.043706 0.773575
O20   O     O_R   0.168330 0.982130 0.939200 -0.498070
O21   O     O_R   0.000140 0.178170 0.944610 -0.526827
C94   C     C_R   0.962338 0.267715 0.930759 0.787391
O22   O     O_R   0.983010 0.336750 0.948660 -0.548378
O23   O     O_R   0.181800 0.312190 0.959860 -0.538980
C95   C     C_R   0.270804 0.264202 0.945389 0.813910
O24   O     O_R   0.338500 0.175680 0.956950 -0.543466
O25   O     O_R   0.308050 0.003930 0.950020 -0.546514
C96   C     C_R   0.256291 0.964545 0.929043 0.861011
Cr4   Cr    Cr6+3 0.087320 0.083240 0.984860 1.060954
Cr5   Cr    Cr6+3 0.087720 0.316210 0.996740 0.960349
Cr6   Cr    Cr6+3 0.317350 0.090340 0.995890 0.967599
O26   O     O_3   0.164130 0.163270 0.992500 -0.355289
N13   N     N_R   0.914902 0.427845 0.181339 0.122355
O27   O     O_R   0.898888 0.517844 0.171758 -0.348092
O28   O     O_R   0.967641 0.391491 0.215173 -0.363556
N14   N     N_R   0.853973 0.149416 0.063315 0.145969
O29   O     O_R   0.813120 0.179507 0.027301 -0.361705
O30   O     O_R   0.870663 0.059379 0.073132 -0.298647
F1    F     F_    0.800648 0.168525 0.142947 -0.569042
N15   N     N_R   0.518474 0.789962 0.424727 0.146504
O31   O     O_R   0.616724 0.741708 0.418272 -0.319205
O32   O     O_R   0.488058 0.847542 0.458013 -0.334571
N16   N     N_R   0.504357 0.204082 0.184762 0.117984
O33   O     O_R   0.532068 0.243675 0.217521 -0.352948
O34   O     O_R   0.572965 0.116429 0.168661 -0.318564
N17   N     N_R   0.522140 0.813889 0.341801 0.151088
O35   O     O_R   0.526953 0.897378 0.355673 -0.310567
O36   O     O_R   0.595440 0.743353 0.320270 -0.327693
N18   N     N_R   0.198349 0.527011 0.577527 0.160563
O37   O     O_R   0.163316 0.624930 0.588217 -0.325986
O38   O     O_R   0.161412 0.499874 0.543851 -0.339501
N19   N     N_R   0.521026 0.193067 0.592127 0.137207
O39   O     O_R   0.503766 0.148827 0.558380 -0.317836
O40   O     O_R   0.608905 0.144218 0.613146 -0.359234
N20   N     N_R   0.175611 0.538933 0.661309 0.161495
O41   O     O_R   0.187691 0.605167 0.687382 -0.343161
O42   O     O_R   0.082469 0.555609 0.648605 -0.294859
F2    F     F_    0.138364 0.499354 0.836858 -0.628643
F3    F     F_    0.473930 0.892940 0.818105 -0.620039
N21   N     N_R   0.551487 0.763357 0.692583 0.110145
O43   O     O_R   0.623225 0.770220 0.675673 -0.334235
O44   O     O_R   0.568602 0.739394 0.730157 -0.334725
F4    F     F_    0.155002 0.864283 0.877884 -0.631969

loop_
_geom_bond_atom_site_label_1
_geom_bond_atom_site_label_2
_geom_bond_distance
_ccdc_geom_bond_type
H3    C12   1.083014 S    
C77   C82   1.406750 A    
C55   C61   1.476012 S    
C72   C73   1.397925 A    
H25   C67   1.083607 S    
C52   C56   1.477652 S    
C39   C40   1.412530 A    
C15   C20   1.403935 A    
C51   C52   1.411381 A    
C15   H6    1.083068 S    
C63   C68   1.408193 A    
C74   C75   1.202589 T    
C22   H8    1.082994 S    
O19   C93   1.274601 A    
C69   C70   1.397171 A    
C94   O22   1.271261 A    
C60   H22   1.082891 S    
N4    C27   1.357463 A    
N3    N4    1.331981 A    
C83   C87   1.398220 A    
N21   O44   1.301046 A    
O8    Cr1   1.924652 S    
C7    C8    1.407878 A    
C49   C50   1.422174 A    
H26   C68   1.082987 S    
C29   N13   1.438747 S    
C13   C17   1.414130 A    
O21   C94   1.277845 A    
C1    C35   1.478934 S    
C4    C77   1.476118 S    
C35   C36   1.401757 A    
N15   O32   1.301293 A    
H31   C84   1.083094 S    
O4    C2    1.275554 A    
O25   C96   1.277203 A    
C41   C47   1.469600 S    
C83   C84   1.394994 A    
C53   C54   1.395772 A    
C29   C30   1.387250 A    
C15   C16   1.391043 A    
C7    C12   1.406550 A    
N17   O36   1.301182 A    
C64   C65   1.396109 A    
C85   F4    1.357476 S    
C44   H14   1.083092 S    
C64   H27   1.083015 S    
C87   C88   1.432487 S    
Cr6   O26   1.974492 S    
O15   Cr4   1.924666 S    
C16   C17   1.397759 A    
O6    C3    1.274890 A    
H1    C14   1.083028 S    
N5    C41   1.355682 A    
C10   C19   1.430184 S    
H32   C82   1.083074 S    
O24   Cr6   2.045439 S    
N20   O41   1.301378 A    
C23   H11   1.083447 S    
C10   C11   1.397856 A    
O20   C96   1.271970 A    
O7    Cr1   2.037086 S    
C85   C90   1.411048 A    
N3    C28   1.357690 A    
N10   C56   1.356826 A    
O23   Cr5   1.928688 S    
C45   H17   1.083147 S    
C31   C34   1.415311 A    
N13   O28   1.301574 A    
C71   C72   1.395123 A    
C62   C95   1.473412 S    
C77   C78   1.401995 A    
C32   C33   1.405137 A    
O23   C95   1.275507 A    
Cr3   O13   1.974721 S    
N14   O30   1.301244 A    
C50   C51   1.410577 A    
N9    C55   1.357922 A    
N5    N6    1.329360 A    
C71   C76   1.406985 A    
C43   H16   1.082902 S    
C85   C86   1.395987 A    
O15   C91   1.278515 A    
C50   N18   1.437116 S    
N8    C41   1.357304 A    
Cr5   O26   1.974557 S    
C90   C96   1.478883 S    
N6    C42   1.358270 A    
C59   C62   1.403189 A    
O1    Cr1   2.043608 S    
C65   H30   1.083701 S    
O14   Cr4   2.040188 S    
C44   C48   1.403667 A    
C22   C23   1.387909 A    
C95   O24   1.271102 A    
Cr1   O13   1.976428 S    
O1    C3    1.271239 A    
C80   C81   1.415060 A    
C84   C90   1.408543 A    
N9    N10   1.330044 A    
O4    Cr2   1.921608 S    
C27   C33   1.463268 S    
C40   N15   1.436982 S    
C25   C26   1.394860 A    
C31   C32   1.407405 A    
O5    Cr3   2.036307 S    
C21   C26   1.406925 A    
C46   C47   1.402341 A    
C45   C46   1.391194 A    
C1    O3    1.273483 A    
C66   C75   1.434039 S    
C91   O16   1.268578 A    
C32   F1    1.358947 S    
N7    N8    1.329509 A    
C57   F2    1.357524 S    
N15   O31   1.301229 A    
C18   C19   1.200593 T    
O10   Cr2   1.926184 S    
O17   Cr5   1.919283 S    
C69   C73   1.398605 A    
C92   O18   1.271317 A    
C72   H28   1.083707 S    
C8    H4    1.083056 S    
C65   C66   1.398795 A    
C52   C53   1.399299 A    
N11   C56   1.358088 A    
O12   C6    1.276124 A    
C2    C7    1.474329 S    
C70   C76   1.407710 A    
C35   C40   1.417355 A    
C14   C20   1.404705 A    
C88   C89   1.201550 T    
O20   Cr4   2.040704 S    
C25   H12   1.083117 S    
C6    C63   1.477278 S    
C67   C68   1.395992 A    
C31   N14   1.437345 S    
N14   O29   1.301405 A    
C86   H34   1.083831 S    
H24   C69   1.083543 S    
N13   O27   1.301396 A    
Cr2   O13   1.974605 S    
C11   C12   1.394553 A    
O17   C92   1.274881 A    
C37   H15   1.083330 S    
O21   Cr4   1.921801 S    
N16   O34   1.301610 A    
C73   C74   1.434031 S    
C34   C91   1.475024 S    
C58   C62   1.404491 A    
C45   C48   1.405115 A    
C48   C93   1.470621 S    
N1    N2    1.325993 A    
C30   H10   1.083495 S    
O16   Cr5   2.046037 S    
C86   C87   1.397630 A    
O25   Cr6   1.919511 S    
C71   H29   1.083014 S    
C26   H9    1.083070 S    
C21   C22   1.402750 A    
C9    C10   1.397110 A    
O22   Cr5   2.035223 S    
O9    Cr2   2.037636 S    
C20   C92   1.474065 S    
O2    Cr1   1.921563 S    
O10   C5    1.279419 A    
O18   Cr6   2.037068 S    
O14   C93   1.272395 A    
C81   N21   1.443432 S    
O19   Cr6   1.927776 S    
C38   C39   1.416769 A    
O6    Cr3   1.928892 S    
C5    C49   1.493187 S    
C57   C61   1.408206 A    
C79   C80   1.399610 A    
Cr4   O26   1.976270 S    
O11   Cr3   2.046030 S    
C30   C34   1.403879 A    
C2    O5    1.271378 A    
C78   H33   1.082773 S    
N19   O39   1.301526 A    
C59   C60   1.393303 A    
C9    H7    1.083650 S    
C46   H18   1.083151 S    
N11   N12   1.330027 A    
C13   N16   1.442308 S    
N18   O37   1.301200 A    
O2    C1    1.275826 A    
C37   C38   1.401068 A    
C24   C28   1.462601 S    
C81   C82   1.404573 A    
C13   C14   1.404507 A    
C43   C47   1.404707 A    
C53   H20   1.083729 S    
C76   C94   1.476778 S    
C58   H19   1.083178 S    
H23   C70   1.083055 S    
O7    C6    1.272725 A    
C51   N20   1.433838 S    
C23   C24   1.402318 A    
C80   C89   1.435084 S    
N12   C55   1.357645 A    
C54   N19   1.436874 S    
C59   H21   1.083090 S    
N17   O35   1.300981 A    
C16   H5    1.084128 S    
N7    C42   1.355814 A    
H2    C11   1.083758 S    
C36   C37   1.385003 A    
C78   C79   1.392002 A    
C43   C44   1.394071 A    
O3    Cr2   2.043533 S    
N1    C27   1.354328 A    
C3    C21   1.468315 S    
C83   F3    1.357845 S    
C29   C33   1.410141 A    
C4    O9    1.272549 A    
N2    C28   1.354942 A    
C17   C18   1.433736 S    
C24   C25   1.400753 A    
C60   C61   1.405503 A    
C38   C42   1.477629 S    
C57   C58   1.394615 A    
C79   H35   1.084081 S    
C66   C67   1.397711 A    
N20   O42   1.301075 A    
N21   O43   1.301641 A    
N19   O40   1.301485 A    
N16   O33   1.301369 A    
C63   C64   1.407149 A    
C36   H13   1.083282 S    
C49   C54   1.417311 A    
C39   N17   1.433081 S    
C5    O11   1.276599 A    
O8    C4    1.276163 A    
N18   O38   1.301314 A    
C8    C9    1.394821 A    
O12   Cr3   1.918180 S    
