data_mof_unit_44650.cif
_audit_creation_date              2012-12-10T17:05:16-0500
_audit_creation_method            fapswitch 2.2
_symmetry_space_group_name_H-M    P1
_symmetry_Int_Tables_number       1
_space_group_crystal_system       triclinic
_cell_length_a                    10.092592
_cell_length_b                    10.694244
_cell_length_c                    15.3413
_cell_angle_alpha                 90.173376
_cell_angle_beta                  67.382725
_cell_angle_gamma                 89.824578
_cell_volume                      1528.46149727

loop_
_atom_site_label
_atom_site_type_symbol
_atom_type_description
_atom_site_fract_x
_atom_site_fract_y
_atom_site_fract_z
_atom_type_partial_charge
C1    C     C_R   0.500363 0.737376 0.499581 0.970762
C2    C     C_R   0.741730 0.505448 0.022956 0.128388
C3    C     C_R   0.605742 0.452591 0.077906 0.060500
C4    C     C_R   0.409481 0.499025 0.676228 0.977430
C5    C     C_R   0.833733 0.541340 0.068460 -0.194899
C6    C     C_R   0.787840 0.534541 0.166425 -0.199262
C7    C     C_R   0.562378 0.447430 0.176008 -0.241361
C8    C     C_2   0.572448 0.065407 0.554382 -0.001229
C9    C     C_2   0.480110 0.132858 0.529354 -0.414048
C10   C     C_2   0.570589 0.929495 0.547344 -0.178592
C11   C     C_2   0.500646 0.870018 0.501026 -0.343877
C12   C     C_R   0.426070 0.453156 0.908343 0.056303
C13   C     C_2   0.035887 0.445588 0.560876 -0.046919
C14   C     C_2   0.884527 0.471735 0.570589 -0.113753
C15   C     C_R   0.494724 0.263618 0.509120 0.953650
C16   C     C_R   0.590633 0.498434 0.323525 0.857570
C17   C     C_R   0.352301 0.477830 0.777639 -0.112837
C18   C     C_R   0.649715 0.492141 0.220429 -0.054984
C19   C     C_R   0.219920 0.338119 0.905083 -0.197798
C20   C     C_R   0.246369 0.386539 0.815809 -0.229844
C21   C     C_R   0.426574 0.524953 0.831203 -0.124630
C22   C     C_2   0.671961 0.121233 0.594246 0.951240
C23   C     C_R   0.312203 0.368120 0.950644 0.164487
C24   C     C_3   0.133998 0.617266 0.455422 -0.146409
C25   C     C_3   0.070556 0.722136 0.528374 -0.798259
C26   C     C_3   0.923981 0.571752 0.859221 -0.444396
C27   C     C_3   0.927274 0.714293 0.856584 -0.788161
C28   C     C_2   0.478813 0.657435 0.817723 0.875914
C29   C     C_R   0.535991 0.461951 0.943746 0.065695
C30   C     C_R   0.510110 0.417531 0.034960 0.057394
C31   C     C_R   0.389383 0.340330 0.079959 -0.215661
C32   C     C_R   0.294885 0.312376 0.036378 -0.215657
C33   C     C_R   0.673898 0.505907 0.887708 -0.193526
C34   C     C_R   0.778686 0.524524 0.925129 0.135764
H1    H     H_    0.207448 0.248071 0.070239 0.150186
H2    H     H_    0.857682 0.568022 0.200137 0.157353
H3    H     H_    0.134861 0.270448 0.935039 0.147132
H4    H     H_    0.186835 0.350502 0.775641 0.157663
H5    H     H_    0.370991 0.294215 0.146111 0.148414
H6    H     H_    0.701449 0.524787 0.813496 0.135445
H7    H     H_    0.701491 0.247808 0.682879 0.326518
H8    H     H_    0.952090 0.714550 0.562351 0.253422
H9    H     H_    0.115377 0.718711 0.584037 0.269750
H10   H     H_    0.096190 0.814328 0.492782 0.237196
H11   H     H_    0.242252 0.646949 0.407279 0.214596
H12   H     H_    0.938448 0.580823 0.030269 0.156156
H13   H     H_    0.077456 0.610036 0.406982 0.127482
H14   H     H_    0.845704 0.750502 0.830756 0.277090
H15   H     H_    0.905343 0.753253 0.927992 0.257425
H16   H     H_    0.034947 0.745980 0.807871 0.248640
H17   H     H_    0.010599 0.535748 0.879794 0.214246
H18   H     H_    0.949135 0.535953 0.786397 0.203115
H19   H     H_    0.523421 0.813096 0.738403 0.338869
H20   H     H_    0.388188 0.091090 0.521015 0.159495
H21   H     H_    0.630895 0.876457 0.580163 0.197390
H22   H     H_    0.441749 0.915495 0.464140 0.140513
H23   H     H_    0.051105 0.382710 0.611626 0.123219
H24   H     H_    0.799437 0.464550 0.639915 0.152735
H25   H     H_    0.927533 0.471072 0.434562 0.172666
H26   H     H_    0.455714 0.416911 0.219933 0.155140
N1    N     N_2   0.148330 0.498670 0.499030 -0.078699
N2    N     N_2   0.852680 0.498640 0.499000 -0.188430
O1    O     O_R   0.386950 0.680940 0.500010 -0.628579
O2    O     O_R   0.626077 0.221050 0.658174 -0.795682
O3    O     O_2   0.499350 0.712288 0.881495 -0.617779
O4    O     O_R   0.493983 0.723065 0.735853 -0.824476
O5    O     O_R   0.613110 0.680900 0.499990 -0.586952
O6    O     O_R   0.322330 0.500030 0.632270 -0.632563
O7    O     O_R   0.548480 0.499990 0.632240 -0.572335
O8    O     O_R   0.386890 0.319100 0.500010 -0.618397
O9    O     O_R   0.613050 0.319060 0.499990 -0.582140
O10   O     O_R   0.451520 0.500010 0.367760 -0.628075
O11   O     O_R   0.677670 0.499970 0.367730 -0.618790
O12   O     O_2   0.791452 0.075955 0.574634 -0.650318
Zn1   Zn    Zn3+2 0.349000 0.500030 0.500020 0.928560
Zn2   Zn    Zn3+2 0.651000 0.499970 0.499980 0.973804

loop_
_geom_bond_atom_site_label_1
_geom_bond_atom_site_label_2
_ccdc_geom_bond_type
C27   H14   S    
C25   H8    S    
C3    C30   A    
C8    C22   S    
C24   N1    S    
C10   H21   S    
C26   H18   S    
C12   C29   A    
C20   H4    S    
C5    H12   S    
C28   O4    S    
C31   C32   A    
C16   O10   A    
C27   H16   S    
C30   C31   A    
C14   N2    D    
C7    C18   A    
C23   C32   A    
C25   H9    S    
C19   C20   A    
C28   O3    D    
C9    C15   S    
C26   H17   S    
N1    Zn1   S    
O6    Zn1   S    
H19   O4    S    
O5    Zn2   S    
C12   C23   A    
N2    Zn2   S    
C26   C27   S    
C29   C30   A    
O1    Zn1   S    
C15   O9    A    
O10   Zn1   S    
C6    C18   A    
C5    C6    A    
C1    O1    A    
C25   H10   S    
C8    C10   S    
C4    O7    A    
C1    O5    A    
C21   C28   S    
C31   H5    S    
C33   C34   A    
C3    C7    A    
O9    Zn2   S    
C14   H24   S    
O11   Zn2   S    
C1    C11   S    
C33   H6    S    
C13   H23   S    
C10   C11   D    
C24   H11   S    
C22   O2    S    
C16   O11   A    
C2    C5    A    
C32   H1    S    
C29   C33   A    
C7    H26   S    
C17   C20   A    
C13   N1    D    
C24   C25   S    
O7    Zn2   S    
C16   C18   S    
O8    Zn1   S    
C4    O6    A    
C15   O8    A    
C22   O12   D    
C19   C23   A    
H25   N2    S    
C2    C3    A    
C9    H20   S    
C19   H3    S    
H7    O2    S    
C2    C34   A    
C13   C14   S    
C24   H13   S    
C12   C21   A    
C26   C34   S    
C17   C21   A    
C11   H22   S    
C27   H15   S    
C6    H2    S    
C8    C9    D    
C4    C17   S    
