data_mof_unit_66474.cif
_audit_creation_date              2012-12-10T19:46:53-0500
_audit_creation_method            fapswitch 2.2
_symmetry_space_group_name_H-M    P1
_symmetry_Int_Tables_number       1
_space_group_crystal_system       triclinic
_cell_length_a                    28.506593
_cell_length_b                    18.267207
_cell_length_c                    21.696165
_cell_angle_alpha                 89.954085
_cell_angle_beta                  140.153291
_cell_angle_gamma                 89.986184
_cell_volume                      7239.00556903

loop_
_atom_site_label
_atom_site_type_symbol
_atom_type_description
_atom_site_fract_x
_atom_site_fract_y
_atom_site_fract_z
_atom_type_partial_charge
C1    C     C_R   0.858773 0.500011 0.860165 0.945562
C2    C     C_R   0.141226 0.499989 0.139830 0.932744
C3    C     C_R   0.358771 0.000077 0.860115 0.946706
C4    C     C_R   0.641225 0.999994 0.139817 0.932722
C5    C     C_R   0.045811 0.458873 0.827729 0.092524
C6    C     C_R   0.955101 0.541475 0.173277 0.078946
C7    C     C_R   0.547464 0.038957 0.828889 0.064865
C8    C     C_R   0.454179 0.041113 0.172261 0.092556
C9    C     C_R   0.047774 0.462016 0.766088 -0.237651
C10   C     C_R   0.952533 0.538109 0.234154 -0.253580
C11   C     C_R   0.549710 0.035208 0.767939 -0.178102
C12   C     C_R   0.452216 0.037969 0.233902 -0.237963
C13   C     C_R   0.000854 0.508658 0.687052 -0.125602
C14   C     C_R   0.999195 0.491304 0.313009 -0.118165
C15   C     C_R   0.501034 0.990658 0.687160 -0.152310
C16   C     C_R   0.499146 0.991336 0.312948 -0.125223
C17   C     C_1   0.782270 0.500057 0.783628 -0.202718
C18   C     C_1   0.217728 0.499944 0.216363 -0.207176
C19   C     C_1   0.282271 0.000184 0.783619 -0.208288
C20   C     C_1   0.717727 0.999960 0.216353 -0.207168
C21   C     C_1   0.717474 0.500070 0.718448 -0.189833
C22   C     C_1   0.282524 0.499935 0.281546 -0.191370
C23   C     C_1   0.217475 0.000137 0.718453 -0.192159
C24   C     C_1   0.782524 0.999951 0.281541 -0.188455
C25   C     C_R   0.999955 0.641279 0.499999 0.925384
C26   C     C_R   0.000045 0.358722 0.500000 0.926420
C27   C     C_R   0.499959 0.141278 0.499973 0.944281
C28   C     C_R   0.500041 0.858721 0.500026 0.907687
C29   C     C_R   0.000398 0.503404 0.620589 0.883228
C30   C     C_R   0.999603 0.496597 0.379413 0.881241
C31   C     C_R   0.500433 0.996393 0.620598 0.881894
C32   C     C_R   0.499602 0.996590 0.379411 0.882813
C33   C     C_R   0.500032 0.640963 0.500011 0.924684
C34   C     C_R   0.499968 0.359040 0.499988 0.926310
C35   C     C_R   0.000043 0.140962 0.500018 0.926676
C36   C     C_R   0.999957 0.859038 0.499982 0.923921
C37   C     C_R   0.640972 0.500039 0.641281 0.926922
C38   C     C_R   0.359028 0.499967 0.358718 0.926459
C39   C     C_R   0.140972 0.000032 0.641282 0.926553
C40   C     C_R   0.859028 0.999973 0.358717 0.926677
C41   C     C_1   0.999870 0.717758 0.499963 -0.196924
C42   C     C_1   0.000130 0.282242 0.500037 -0.193708
C43   C     C_1   0.499887 0.217762 0.499934 -0.193545
C44   C     C_1   0.500112 0.782245 0.500064 -0.195780
C45   C     C_R   0.996677 0.500043 0.876344 0.920127
C46   C     C_R   0.003293 0.499974 0.123636 0.941520
C47   C     C_R   0.496648 0.000017 0.876294 0.918637
C48   C     C_R   0.503322 0.999957 0.123655 0.924098
C49   C     C_1   0.499905 0.282553 0.499960 -0.182729
C50   C     C_1   0.500095 0.717455 0.500038 -0.186444
C51   C     C_1   0.999883 0.782549 0.499967 -0.186740
C52   C     C_1   0.000117 0.217451 0.500033 -0.182960
C53   C     C_R   0.882124 0.582976 0.691429 0.127473
C54   C     C_R   0.117878 0.416711 0.308574 0.122424
C55   C     C_R   0.380482 0.919419 0.689536 0.105032
C56   C     C_R   0.617888 0.917042 0.308582 0.126818
C57   C     C_R   0.842121 0.635855 0.618140 -0.163805
C58   C     C_R   0.157779 0.363807 0.381802 -0.160458
C59   C     C_R   0.337989 0.869199 0.613428 -0.180316
C60   C     C_R   0.657901 0.864169 0.381879 -0.164045
C61   C     C_R   0.858022 0.650303 0.572880 -0.170427
C62   C     C_R   0.141872 0.349469 0.427080 -0.167495
C63   C     C_R   0.353241 0.854551 0.567513 -0.162432
C64   C     C_R   0.642002 0.849716 0.427142 -0.170331
C65   C     C_R   0.911136 0.609479 0.596192 -0.155866
C66   C     C_R   0.088829 0.390395 0.403824 -0.158737
C67   C     C_R   0.408214 0.893040 0.593055 -0.154720
C68   C     C_R   0.588881 0.890531 0.403823 -0.155479
C69   C     C_R   0.951358 0.554875 0.668272 0.066198
C70   C     C_R   0.048714 0.445037 0.331827 0.068550
C71   C     C_R   0.450162 0.946123 0.667010 0.063055
C72   C     C_R   0.548650 0.945128 0.331735 0.066396
C73   C     C_R   0.942162 0.546216 0.723096 0.040894
C74   C     C_R   0.057988 0.453651 0.277051 0.035112
C75   C     C_R   0.441322 0.954900 0.722264 0.077133
C76   C     C_R   0.557845 0.953790 0.276909 0.040893
C77   C     C_R   0.992817 0.500303 0.806092 -0.132148
C78   C     C_R   0.007599 0.499808 0.194320 -0.122089
C79   C     C_R   0.493008 0.999705 0.806258 -0.151496
C80   C     C_R   0.507182 0.999695 0.193906 -0.133742
H1    H     H_    0.797443 0.665208 0.594707 0.128980
H2    H     H_    0.202386 0.334350 0.405172 0.135496
H3    H     H_    0.292461 0.841649 0.589503 0.139631
H4    H     H_    0.702584 0.834824 0.405316 0.128932
H5    H     H_    0.827359 0.691692 0.517179 0.143026
H6    H     H_    0.172459 0.308061 0.482739 0.149664
H7    H     H_    0.321021 0.814652 0.510076 0.148716
H8    H     H_    0.672672 0.808332 0.482849 0.143228
H9    H     H_    0.921030 0.621862 0.558131 0.148680
H10   H     H_    0.078907 0.378062 0.441863 0.149471
H11   H     H_    0.418013 0.880108 0.555005 0.152192
H12   H     H_    0.578988 0.878143 0.441885 0.149734
H13   H     H_    0.086017 0.427721 0.779560 0.157239
H14   H     H_    0.914123 0.572725 0.220036 0.160624
H15   H     H_    0.589426 0.068189 0.783296 0.173678
H16   H     H_    0.413967 0.072257 0.220423 0.156931
O1    O     O_R   0.892670 0.439420 0.892670 -0.622619
O2    O     O_R   0.107330 0.560580 0.107330 -0.624613
O3    O     O_R   0.107330 0.439420 0.107330 -0.610529
O4    O     O_R   0.892670 0.560580 0.892670 -0.609807
O5    O     O_R   0.392670 0.939420 0.892670 -0.628276
O6    O     O_R   0.607330 0.060580 0.107330 -0.624282
O7    O     O_R   0.607330 0.939420 0.107330 -0.611217
O8    O     O_R   0.392670 0.060580 0.892670 -0.613640
O9    O     O_R   0.999990 0.439420 0.908380 -0.605878
O10   O     O_R   0.000010 0.560580 0.091620 -0.611131
O11   O     O_R   0.000010 0.439420 0.091620 -0.609417
O12   O     O_R   0.999990 0.560580 0.908380 -0.610440
O13   O     O_R   0.499990 0.939420 0.908380 -0.613027
O14   O     O_R   0.500010 0.060580 0.091620 -0.603975
O15   O     O_R   0.500010 0.939420 0.091620 -0.608976
O16   O     O_R   0.499990 0.060580 0.908380 -0.637579
O17   O     O_R   0.060590 0.607350 0.560620 -0.614588
O18   O     O_R   0.939410 0.392650 0.439380 -0.612925
O19   O     O_R   0.939410 0.607350 0.439380 -0.629960
O20   O     O_R   0.060590 0.392650 0.560620 -0.629719
O21   O     O_R   0.560590 0.107350 0.560620 -0.615229
O22   O     O_R   0.439410 0.892650 0.439380 -0.626461
O23   O     O_R   0.439410 0.107350 0.439380 -0.618236
O24   O     O_R   0.560590 0.892650 0.560620 -0.626852
O25   O     O_R   0.060610 0.500000 0.652240 -0.623425
O26   O     O_R   0.939390 0.500000 0.347760 -0.622316
O27   O     O_R   0.560610 0.000000 0.652240 -0.623320
O28   O     O_R   0.439390 0.000000 0.347760 -0.623405
O29   O     O_R   0.939430 0.500000 0.531050 -0.622432
O30   O     O_R   0.060570 0.500000 0.468950 -0.624348
O31   O     O_R   0.439430 0.000000 0.531050 -0.622979
O32   O     O_R   0.560570 0.000000 0.468950 -0.622768
O33   O     O_R   0.500010 0.607330 0.448300 -0.620765
O34   O     O_R   0.499990 0.392670 0.551700 -0.620176
O35   O     O_R   0.499990 0.607330 0.551700 -0.619850
O36   O     O_R   0.500010 0.392670 0.448300 -0.618598
O37   O     O_R   0.000010 0.107330 0.448300 -0.619722
O38   O     O_R   0.999990 0.892670 0.551700 -0.621087
O39   O     O_R   0.999990 0.107330 0.551700 -0.618197
O40   O     O_R   0.000010 0.892670 0.448300 -0.620292
O41   O     O_R   0.607330 0.500000 0.555630 -0.622887
O42   O     O_R   0.392670 0.500000 0.444370 -0.623352
O43   O     O_R   0.107330 0.000000 0.555630 -0.623434
O44   O     O_R   0.892670 0.000000 0.444370 -0.622779
O45   O     O_R   0.607340 0.500000 0.659080 -0.618045
O46   O     O_R   0.392660 0.500000 0.340920 -0.618981
O47   O     O_R   0.107340 0.000000 0.659080 -0.619094
O48   O     O_R   0.892660 0.000000 0.340920 -0.617579
Zn1   Zn    Zn3+2 0.000000 0.419100 0.000000 0.985177
Zn2   Zn    Zn3+2 0.000000 0.580900 0.000000 0.976825
Zn3   Zn    Zn3+2 0.500000 0.919100 0.000000 0.966124
Zn4   Zn    Zn3+2 0.500000 0.080900 0.000000 0.968596
Zn5   Zn    Zn3+2 0.080920 0.500000 0.580940 0.959751
Zn6   Zn    Zn3+2 0.919080 0.500000 0.419060 0.962391
Zn7   Zn    Zn3+2 0.580920 0.000000 0.580940 0.964413
Zn8   Zn    Zn3+2 0.419080 0.000000 0.419060 0.960418
Zn9   Zn    Zn3+2 0.500000 0.500000 0.430940 0.966471
Zn10  Zn    Zn3+2 0.500000 0.500000 0.569060 0.965444
Zn11  Zn    Zn3+2 0.000000 0.000000 0.430940 0.966714
Zn12  Zn    Zn3+2 0.000000 0.000000 0.569060 0.966637
N1    N     N_3   0.097924 0.414174 0.913066 -0.424062
H17   H     H_    0.134154 0.449389 0.972205 0.175078
H18   H     H_    0.129414 0.383100 0.914227 0.181391
N2    N     N_3   0.903450 0.586690 0.088900 -0.439061
H19   H     H_    0.909548 0.640508 0.110596 0.191383
H20   H     H_    0.850703 0.569255 0.047279 0.184737
N3    N     N_3   0.602140 0.082383 0.914299 -0.451359
H21   H     H_    0.629451 0.050072 0.974365 0.186124
H22   H     H_    0.576698 0.126325 0.910804 0.214693
N4    N     N_3   0.402056 0.085801 0.086915 -0.424087
H23   H     H_    0.365833 0.050578 0.027785 0.174930
H24   H     H_    0.370562 0.116871 0.085750 0.181442
N5    N     N_3   0.857413 0.562346 0.726770 -0.434033
H25   H     H_    0.815305 0.596802 0.699383 0.182323
H26   H     H_    0.834995 0.509893 0.700500 0.163497
N6    N     N_3   0.142566 0.437202 0.273167 -0.434360
H27   H     H_    0.184579 0.402631 0.300459 0.185012
H28   H     H_    0.165105 0.489611 0.299490 0.161052
N7    N     N_3   0.357464 0.937462 0.727315 -0.451686
H29   H     H_    0.304931 0.960067 0.671608 0.176462
H30   H     H_    0.353510 0.888624 0.748280 0.205842
N8    N     N_3   0.642594 0.937675 0.273234 -0.432429
H31   H     H_    0.684710 0.903230 0.300631 0.182632
H32   H     H_    0.664998 0.990135 0.299488 0.164548

loop_
_geom_bond_atom_site_label_1
_geom_bond_atom_site_label_2
_ccdc_geom_bond_type
C3    O8    A    
C58   C62   A    
C48   O14   A    
C30   O30   A    
N1    H17   S    
C56   C76   A    
C29   O29   A    
C2    C18   S    
N5    H26   S    
N5    H25   S    
C32   O28   A    
N3    H21   S    
C16   C72   A    
C31   O31   A    
C72   C76   A    
C35   O37   A    
N8    H31   S    
O7    Zn3   S    
N7    H30   S    
C56   N8    S    
C65   H9    S    
C62   H6    S    
C68   H12   S    
C37   O45   A    
O21   Zn7   S    
C64   C68   A    
C13   C29   S    
N3    H22   S    
C59   H3    S    
C55   C59   A    
C58   H2    S    
C32   O32   A    
O11   Zn1   S    
O30   Zn5   S    
C23   C39   S    
O45   Zn10  S    
C6    C78   A    
C25   O19   A    
C10   H14   S    
C33   O33   A    
C47   O16   A    
C22   C38   S    
C4    O7    A    
C40   O44   A    
C21   C37   S    
O8    Zn4   S    
C9    C13   A    
O6    Zn4   S    
C54   C74   A    
C11   C15   A    
O38   Zn12  S    
O46   Zn9   S    
C12   C16   A    
N6    H28   S    
C34   C49   S    
C4    O6    A    
C70   C74   A    
C69   C73   A    
C47   C79   S    
C8    C12   A    
C45   O12   A    
C53   N5    S    
C55   C75   A    
C33   O35   A    
O3    Zn1   S    
C34   O36   A    
N1    H18   S    
C37   O41   A    
N4    H24   S    
C14   C70   A    
O13   Zn3   S    
C14   C30   S    
O14   Zn4   S    
C36   O40   A    
C1    O4    A    
O20   Zn5   S    
C45   O9    A    
C7    C11   A    
O12   Zn2   S    
C27   O21   A    
O27   Zn7   S    
C71   C75   A    
C62   C66   A    
C54   N6    S    
C66   H10   S    
C28   O24   A    
C1    O1    A    
C46   C78   S    
O40   Zn11  S    
C53   C57   A    
C43   C49   T    
C34   O34   A    
O2    Zn2   S    
C33   C50   S    
C47   O13   A    
C9    H13   S    
C7    N3    S    
C15   C31   S    
C28   C44   S    
C17   C21   T    
O15   Zn3   S    
O16   Zn4   S    
C29   O25   A    
N2    H20   S    
C30   O26   A    
C19   C23   T    
C26   O18   A    
C63   C67   A    
C5    C9    A    
O17   Zn5   S    
O31   Zn8   S    
O32   Zn7   S    
C6    N2    S    
N7    H29   S    
O43   Zn11  S    
C68   C72   A    
O9    Zn1   S    
C46   O11   A    
C67   H11   S    
O36   Zn9   S    
C38   O42   A    
O41   Zn9   S    
O34   Zn10  S    
C3    C19   S    
C55   N7    S    
C36   C51   S    
C8    N4    S    
O44   Zn12  S    
C25   O17   A    
C41   C51   T    
C39   O47   A    
C2    O3    A    
C5    N1    S    
C40   O48   A    
C10   C14   A    
N4    H23   S    
C57   H1    S    
C75   C79   A    
O18   Zn6   S    
C35   O39   A    
O26   Zn6   S    
N6    H27   S    
C26   C42   S    
C7    C79   A    
C54   C58   A    
C44   C50   T    
O23   Zn8   S    
C27   C43   S    
O5    Zn3   S    
O24   Zn7   S    
C64   H8    S    
C63   H7    S    
O37   Zn11  S    
O1    Zn1   S    
O35   Zn10  S    
C53   C73   A    
C76   C80   A    
C36   O38   A    
C6    C10   A    
N8    H32   S    
C57   C61   A    
C27   O23   A    
C16   C32   S    
C15   C71   A    
C59   C63   A    
O10   Zn2   S    
C60   C64   A    
N2    H19   S    
C48   C80   S    
O48   Zn11  S    
C18   C22   T    
C61   H5    S    
C31   O27   A    
C28   O22   A    
O22   Zn8   S    
O33   Zn9   S    
C60   H4    S    
C3    O5    A    
O47   Zn12  S    
C66   C70   A    
C13   C69   A    
C65   C69   A    
C46   O10   A    
O19   Zn6   S    
C24   C40   S    
O25   Zn5   S    
C38   O46   A    
C67   C71   A    
C61   C65   A    
O28   Zn8   S    
C26   O20   A    
O29   Zn6   S    
O39   Zn12  S    
C4    C20   S    
C56   C60   A    
C48   O15   A    
C11   H15   S    
C1    C17   S    
C2    O2    A    
C25   C41   S    
C74   C78   A    
O4    Zn2   S    
C35   C52   S    
C8    C80   A    
C73   C77   A    
C12   H16   S    
C45   C77   S    
O42   Zn10  S    
C5    C77   A    
C20   C24   T    
C39   O43   A    
C42   C52   T    
