data_mof_unit_46849.cif
_audit_creation_date              2012-12-10T19:01:55-0500
_audit_creation_method            fapswitch 2.2
_symmetry_space_group_name_H-M    P1
_symmetry_Int_Tables_number       1
_space_group_crystal_system       triclinic
_cell_length_a                    24.53555
_cell_length_b                    24.549992
_cell_length_c                    26.936564
_cell_angle_alpha                 90.069519
_cell_angle_beta                  89.992745
_cell_angle_gamma                 89.921206
_cell_volume                      16225.1460789

loop_
_atom_site_label
_atom_site_type_symbol
_atom_type_description
_atom_site_fract_x
_atom_site_fract_y
_atom_site_fract_z
_atom_type_partial_charge
C1    C     C_R   0.228376 0.271889 0.247511 -0.244843
C2    C     C_R   0.227706 0.729835 0.250468 -0.218082
C3    C     C_R   0.395620 0.105139 0.750551 0.893085
C4    C     C_R   0.895420 0.394667 0.250398 0.897153
C5    C     C_R   0.105157 0.604417 0.750455 0.897253
C6    C     C_R   0.394967 0.104813 0.249984 0.897544
C7    C     C_R   0.604903 0.895369 0.749823 0.897327
C8    C     C_R   0.894935 0.604880 0.750221 0.892802
C9    C     C_R   0.104671 0.395104 0.250014 0.895787
C10   C     C_R   0.394944 0.895020 0.749920 0.898758
C11   C     C_R   0.605215 0.104227 0.250532 0.897167
C12   C     C_R   0.104870 0.394997 0.749893 0.907582
C13   C     C_R   0.732243 0.775982 0.744985 -0.239910
C14   C     C_R   0.894930 0.604478 0.249677 0.895637
C15   C     C_R   0.604928 0.104895 0.749931 0.895417
C16   C     C_R   0.394705 0.895836 0.250645 0.891540
C17   C     C_R   0.189463 0.276240 0.208631 0.390345
C18   C     C_R   0.827894 0.742899 0.762497 0.350540
C19   C     C_R   0.275421 0.810919 0.211868 0.385551
C20   C     C_R   0.740398 0.176423 0.765310 0.334878
C21   C     C_R   0.805718 0.719089 0.205965 0.388927
C22   C     C_R   0.174833 0.258447 0.764433 0.351336
C23   C     C_R   0.725371 0.187940 0.211416 0.400225
C24   C     C_R   0.271531 0.229057 0.247003 -0.213677
C25   C     C_R   0.261936 0.819652 0.771109 0.334338
C26   C     C_R   0.808151 0.277688 0.789760 0.392076
C27   C     C_R   0.173331 0.742453 0.235713 0.331792
C28   C     C_R   0.727517 0.813061 0.785376 0.396552
C29   C     C_R   0.259008 0.174925 0.232750 0.329764
C30   C     C_R   0.196950 0.716564 0.796147 0.393695
C31   C     C_R   0.826901 0.257364 0.235315 0.316423
C32   C     C_R   0.276907 0.191382 0.790758 0.380674
C33   C     C_R   0.738977 0.821563 0.230122 0.346948
C34   C     C_R   0.693994 0.780730 0.705422 0.398698
C35   C     C_R   0.234315 0.721759 0.756106 -0.236215
C36   C     C_R   0.325511 0.241431 0.262026 0.347873
C37   C     C_R   0.774136 0.312690 0.711129 0.399221
C38   C     C_R   0.240071 0.675793 0.265097 0.339542
C39   C     C_R   0.310115 0.223627 0.710662 0.389572
C40   C     C_R   0.671780 0.756984 0.261008 0.329328
C41   C     C_R   0.229277 0.684746 0.715954 0.381874
C42   C     C_R   0.760882 0.322561 0.267186 0.356385
C43   C     C_R   0.308909 0.777270 0.291803 0.383965
C44   C     C_R   0.674275 0.241026 0.732605 0.336810
C45   C     C_R   0.224586 0.309437 0.287670 0.382919
C46   C     C_R   0.773131 0.269073 0.251225 -0.205026
C47   C     C_R   0.760810 0.678280 0.731221 0.317012
C48   C     C_R   0.691510 0.222613 0.290269 0.393597
C49   C     C_R   0.328964 0.756619 0.737038 0.355230
C50   C     C_R   0.772193 0.686901 0.285755 0.395272
C51   C     C_R   0.241203 0.325027 0.735075 0.330348
C52   C     C_R   0.144440 0.309776 0.214942 0.371570
C53   C     C_R   0.863918 0.699599 0.770518 0.320565
C54   C     C_R   0.307916 0.856633 0.218147 0.372674
C55   C     C_R   0.698788 0.137977 0.771020 0.330911
C56   C     C_R   0.851549 0.686570 0.211983 0.368338
C57   C     C_R   0.272016 0.228280 0.750336 -0.252372
C58   C     C_R   0.136105 0.300073 0.768522 0.330555
C59   C     C_R   0.691468 0.143176 0.216963 0.370002
C60   C     C_R   0.302396 0.859960 0.774125 0.334955
C61   C     C_R   0.852784 0.312109 0.785807 0.361930
C62   C     C_R   0.134910 0.700512 0.231255 0.340660
C63   C     C_R   0.691650 0.856609 0.782353 0.361221
C64   C     C_R   0.300744 0.136319 0.228596 0.333085
C65   C     C_R   0.150204 0.685144 0.789665 0.365923
C66   C     C_R   0.864488 0.299892 0.229537 0.336732
C67   C     C_R   0.311716 0.146917 0.786748 0.365247
C68   C     C_R   0.725691 0.768007 0.245505 -0.210988
C69   C     C_R   0.697795 0.860878 0.226052 0.329590
C70   C     C_R   0.647908 0.812829 0.712323 0.374285
C71   C     C_R   0.363220 0.199396 0.268481 0.334041
C72   C     C_R   0.809713 0.356285 0.715508 0.358633
C73   C     C_R   0.198312 0.637670 0.270101 0.331478
C74   C     C_R   0.355732 0.191010 0.717132 0.374814
C75   C     C_R   0.635165 0.799887 0.268117 0.332553
C76   C     C_R   0.192676 0.641909 0.718649 0.358710
C77   C     C_R   0.802985 0.360361 0.273941 0.325604
C78   C     C_R   0.352937 0.812540 0.287143 0.367212
C79   C     C_R   0.146780 0.352623 0.249639 -0.413382
C80   C     C_R   0.636615 0.198550 0.727359 0.332404
C81   C     C_R   0.190209 0.354222 0.283514 0.363235
C82   C     C_R   0.801611 0.638461 0.728210 0.332569
C83   C     C_R   0.647443 0.187361 0.286807 0.354164
C84   C     C_R   0.364360 0.800366 0.729016 0.331261
C85   C     C_R   0.807807 0.643111 0.282087 0.367332
C86   C     C_R   0.199439 0.363480 0.730540 0.337819
C87   C     C_3   0.795928 0.534751 0.418423 -0.164380
C88   C     C_3   0.208554 0.528418 0.574474 -0.220835
C89   C     C_3   0.517583 0.217924 0.434444 -0.246945
C90   C     C_R   0.852920 0.648025 0.749861 -0.368071
C91   C     C_3   0.533857 0.795453 0.581772 -0.150581
C92   C     C_3   0.209424 0.461676 0.422695 -0.162865
C93   C     C_3   0.788080 0.471357 0.571344 -0.224349
C94   C     C_3   0.471867 0.787050 0.428759 -0.221987
C95   C     C_3   0.456427 0.201323 0.586933 -0.134774
C96   C     C_3   0.282388 0.026781 0.933220 -0.200334
C97   C     C_3   0.702709 0.039266 0.082398 -0.163142
C98   C     C_3   0.034047 0.709437 0.925663 -0.188837
C99   C     C_3   0.039041 0.294349 0.079017 -0.166692
C100  C     C_3   0.711875 0.969385 0.928263 -0.207332
C101  C     C_R   0.351172 0.854953 0.252281 -0.410060
C102  C     C_3   0.299953 0.954057 0.083535 -0.163542
C103  C     C_3   0.973529 0.287397 0.927830 -0.229973
C104  C     C_3   0.967251 0.711012 0.073446 -0.210566
C105  C     C_3   0.240326 0.255694 0.139146 0.162175
C106  C     C_3   0.227753 0.255726 0.083266 -0.308216
C107  C     C_3   0.277229 0.236772 0.052463 -0.966008
C108  C     C_3   0.864570 0.825971 0.741488 0.128750
C109  C     C_3   0.927462 0.822870 0.742612 -0.316599
C110  C     C_3   0.952646 0.867526 0.709944 -0.993718
C111  C     C_3   0.252808 0.756389 0.144318 0.163635
C112  C     C_R   0.774364 0.732066 0.745615 -0.205407
C113  C     C_R   0.647255 0.147653 0.749598 -0.368257
C114  C     C_3   0.265315 0.763963 0.088880 -0.327740
C115  C     C_3   0.248744 0.713081 0.058770 -0.971488
C116  C     C_3   0.825285 0.145204 0.742435 0.141261
C117  C     C_3   0.857890 0.095394 0.760037 -0.306997
C118  C     C_3   0.901208 0.078601 0.722128 -1.000453
C119  C     C_3   0.752355 0.734655 0.137383 0.166163
C120  C     C_3   0.761799 0.739331 0.081110 -0.306324
C121  C     C_3   0.713059 0.765143 0.053497 -0.960705
C122  C     C_3   0.149126 0.170160 0.746147 0.141388
C123  C     C_3   0.089464 0.152592 0.751312 -0.311889
C124  C     C_R   0.851252 0.645324 0.248172 -0.414846
C125  C     C_3   0.078508 0.099292 0.723667 -0.991730
C126  C     C_3   0.747861 0.242418 0.144829 0.147834
C127  C     C_3   0.727741 0.235529 0.091588 -0.333231
C128  C     C_3   0.740661 0.287096 0.061739 -0.988752
C129  C     C_3   0.173537 0.846326 0.754640 0.144320
C130  C     C_3   0.153794 0.904659 0.765427 -0.315714
C131  C     C_3   0.097730 0.915274 0.742695 -0.995449
C132  C     C_3   0.756831 0.258843 0.858558 0.143963
C133  C     C_3   0.771032 0.260601 0.913531 -0.301094
C134  C     C_3   0.720087 0.252333 0.945363 -0.998411
C135  C     C_R   0.147255 0.352263 0.749535 -0.375638
C136  C     C_3   0.151769 0.833220 0.251177 0.155282
C137  C     C_3   0.091233 0.848872 0.253217 -0.326281
C138  C     C_3   0.083408 0.906955 0.272466 -0.996405
C139  C     C_3   0.743142 0.760132 0.853847 0.147375
C140  C     C_3   0.740922 0.772052 0.909406 -0.307036
C141  C     C_3   0.748157 0.719549 0.939880 -0.997581
C142  C     C_3   0.172607 0.144086 0.251735 0.157490
C143  C     C_3   0.149559 0.088172 0.237283 -0.313095
C144  C     C_3   0.093719 0.078359 0.260522 -0.997305
C145  C     C_3   0.253383 0.732096 0.863001 0.149878
C146  C     C_R   0.648514 0.145228 0.251560 -0.412792
C147  C     C_3   0.246299 0.733315 0.919519 -0.302253
C148  C     C_3   0.299538 0.748420 0.946292 -0.989622
C149  C     C_3   0.858639 0.171639 0.254927 0.152255
C150  C     C_3   0.912879 0.146009 0.238174 -0.300083
C151  C     C_3   0.930564 0.099558 0.272464 -0.996645
C152  C     C_3   0.258710 0.243738 0.859423 0.163645
C153  C     C_3   0.252966 0.233389 0.915136 -0.310447
C154  C     C_3   0.232247 0.284254 0.942251 -0.996031
C155  C     C_3   0.826626 0.849176 0.247789 0.136085
C156  C     C_3   0.835882 0.910899 0.245367 -0.319187
C157  C     C_R   0.353226 0.851443 0.750797 -0.372766
C158  C     C_3   0.889677 0.926585 0.269920 -1.000012
C159  C     C_3   0.748466 0.757258 0.638425 0.155430
C160  C     C_3   0.741459 0.766591 0.582740 -0.318095
C161  C     C_3   0.790579 0.743107 0.553533 -0.969924
C162  C     C_3   0.350193 0.328964 0.240231 0.147443
C163  C     C_3   0.408394 0.351289 0.245907 -0.303846
C164  C     C_3   0.412738 0.409398 0.226150 -1.003831
C165  C     C_3   0.755247 0.261385 0.642160 0.151203
C166  C     C_3   0.782785 0.274034 0.592712 -0.330994
C167  C     C_3   0.780923 0.223027 0.559967 -1.016737
C168  C     C_R   0.852240 0.354120 0.750503 -0.411535
C169  C     C_3   0.326470 0.645110 0.246028 0.146470
C170  C     C_3   0.333384 0.583138 0.248480 -0.317220
C171  C     C_3   0.382732 0.564506 0.218388 -1.004870
C172  C     C_3   0.256049 0.245312 0.643012 0.161128
C173  C     C_3   0.265180 0.233580 0.587394 -0.313250
C174  C     C_3   0.214639 0.250409 0.556633 -0.974354
C175  C     C_3   0.640158 0.672651 0.237919 0.144923
C176  C     C_3   0.591685 0.638644 0.256075 -0.291338
C177  C     C_3   0.578036 0.592716 0.219658 -1.001289
C178  C     C_3   0.240859 0.734779 0.645859 0.154332
C179  C     C_R   0.146370 0.648406 0.250549 -0.372254
C180  C     C_3   0.249907 0.722963 0.590672 -0.294092
C181  C     C_3   0.256768 0.775877 0.561323 -0.997503
C182  C     C_3   0.682308 0.365846 0.242699 0.127246
C183  C     C_3   0.667927 0.423027 0.261795 -0.303853
C184  C     C_3   0.632818 0.454101 0.224431 -0.984709
C185  C     C_3   0.262117 0.743178 0.360147 0.165730
C186  C     C_3   0.268054 0.776165 0.407500 -0.364622
C187  C     C_3   0.222430 0.760405 0.443297 -1.006635
C188  C     C_3   0.637730 0.323771 0.755043 0.144698
C189  C     C_3   0.579303 0.340310 0.741336 -0.307643
C190  C     C_R   0.648415 0.854415 0.748323 -0.415407
C191  C     C_3   0.556506 0.382789 0.777462 -1.000700
C192  C     C_3   0.243377 0.256734 0.356161 0.156813
C193  C     C_3   0.245588 0.268811 0.412291 -0.304271
C194  C     C_3   0.264407 0.218826 0.442312 -0.956455
C195  C     C_3   0.674879 0.644879 0.747751 0.151870
C196  C     C_3   0.651853 0.590021 0.728688 -0.289558
C197  C     C_3   0.598193 0.574762 0.754797 -0.987652
C198  C     C_3   0.739995 0.237452 0.360901 0.150257
C199  C     C_3   0.727141 0.249349 0.415211 -0.294058
C200  C     C_3   0.779370 0.259527 0.444259 -1.025122
C201  C     C_R   0.352378 0.147244 0.249236 -0.376027
C202  C     C_3   0.363916 0.672963 0.758970 0.138724
C203  C     C_3   0.425802 0.663409 0.752282 -0.313289
C204  C     C_3   0.445561 0.615673 0.784159 -0.987886
C205  C     C_3   0.750843 0.739293 0.353751 0.138939
C206  C     C_3   0.758561 0.727353 0.408686 -0.308606
C207  C     C_3   0.749477 0.779359 0.439762 -0.985163
C208  C     C_3   0.329303 0.348119 0.756264 0.162007
C209  C     C_3   0.360778 0.400790 0.745692 -0.305623
C210  C     C_3   0.416977 0.399739 0.769923 -1.011724
C211  C     C_3   0.061884 0.267731 0.207721 -0.247312
C212  C     C_R   0.149415 0.644578 0.752718 -0.411652
C213  C     C_3   0.894144 0.713165 0.849337 -0.138042
C214  C     C_3   0.269443 0.941315 0.212876 -0.259128
C215  C     C_3   0.718117 0.099036 0.846087 -0.136716
C216  C     C_3   0.932571 0.730142 0.200183 -0.236187
C217  C     C_3   0.095481 0.283113 0.843080 -0.109232
C218  C     C_3   0.731646 0.059454 0.210045 -0.244525
C219  C     C_3   0.279160 0.901651 0.847648 -0.129030
C220  C     C_3   0.932971 0.267952 0.801496 -0.215112
C221  C     C_3   0.090076 0.718275 0.158459 -0.118860
C222  C     C_3   0.732768 0.937919 0.799109 -0.224950
C223  C     C_R   0.270899 0.772704 0.251510 -0.246308
C224  C     C_R   0.853889 0.351126 0.251364 -0.368010
C225  C     C_3   0.281917 0.094167 0.154750 -0.118804
C226  C     C_3   0.069980 0.730203 0.801311 -0.248865
C227  C     C_3   0.901504 0.284661 0.153023 -0.150091
C228  C     C_3   0.269532 0.065688 0.801181 -0.228558
C229  C     C_3   0.716978 0.898764 0.150490 -0.120080
C230  C     C_3   0.567114 0.767662 0.705696 -0.251269
C231  C     C_3   0.401299 0.216729 0.343934 -0.115932
C232  C     C_3   0.768398 0.438005 0.700816 -0.225042
C233  C     C_3   0.210370 0.599647 0.346095 -0.154620
C234  C     C_3   0.439381 0.231554 0.713871 -0.272269
C235  C     C_R   0.354069 0.148107 0.751601 -0.413653
C236  C     C_3   0.598398 0.785055 0.344371 -0.132417
C237  C     C_3   0.233812 0.560461 0.703296 -0.226515
C238  C     C_3   0.781527 0.393896 0.350820 -0.160706
C239  C     C_3   0.432681 0.766961 0.300198 -0.221150
C240  C     C_3   0.596378 0.219926 0.652895 -0.148440
C241  C     C_3   0.233599 0.435314 0.292908 -0.251658
C242  C     C_3   0.784660 0.596731 0.654009 -0.127749
C243  C     C_3   0.568321 0.231325 0.307268 -0.194282
C244  C     C_3   0.395988 0.781728 0.650934 -0.143113
C245  C     C_3   0.767129 0.560403 0.292158 -0.247203
C246  C     C_R   0.646645 0.851648 0.248289 -0.373371
C247  C     C_3   0.219237 0.408142 0.658260 -0.119228
C248  C     C_3   0.085478 0.601175 0.423757 -0.316462
C249  C     C_3   0.912851 0.607845 0.583606 -0.310815
C250  C     C_3   0.607469 0.913824 0.415992 -0.307221
C251  C     C_3   0.601571 0.093456 0.576770 -0.305883
C252  C     C_3   0.901590 0.390979 0.422568 -0.337592
C253  C     C_3   0.100170 0.384890 0.582446 -0.328691
C254  C     C_3   0.389499 0.085936 0.412635 -0.309623
C255  C     C_3   0.391284 0.899612 0.576678 -0.343827
C256  C     C_3   0.591352 0.105250 0.914221 -0.312680
C257  C     C_R   0.102273 0.515738 0.453877 0.382371
C258  C     C_3   0.403964 0.104208 0.081304 -0.330793
C259  C     C_3   0.111020 0.410165 0.916268 -0.323227
C260  C     C_3   0.109842 0.599704 0.080304 -0.333765
C261  C     C_3   0.396348 0.891719 0.918084 -0.340436
C262  C     C_3   0.592120 0.894094 0.081603 -0.328461
C263  C     C_3   0.894443 0.587893 0.917509 -0.318276
C264  C     C_3   0.896572 0.407683 0.080070 -0.320533
C265  C     C_R   0.899121 0.524813 0.546722 0.370729
C266  C     C_R   0.524903 0.899034 0.452927 0.373967
C267  C     C_R   0.514541 0.102562 0.547871 0.375852
C268  C     C_R   0.898765 0.477755 0.452631 0.375191
C269  C     C_R   0.100332 0.470084 0.548324 0.369268
C270  C     C_R   0.470071 0.100884 0.452789 0.370778
C271  C     C_R   0.727827 0.229959 0.749441 -0.203833
C272  C     C_R   0.478292 0.898796 0.547308 0.379009
C273  C     C_R   0.602030 0.023138 0.952946 0.366784
C274  C     C_R   0.397425 0.018619 0.048801 0.372017
C275  C     C_R   0.027435 0.399308 0.952155 0.374873
C276  C     C_R   0.024235 0.601360 0.047594 0.379262
C277  C     C_R   0.397508 0.976369 0.952899 0.377896
C278  C     C_R   0.601650 0.979157 0.048132 0.370495
C279  C     C_R   0.977858 0.601596 0.953173 0.377568
C280  C     C_R   0.981646 0.397847 0.046759 0.373619
C281  C     C_R   0.150727 0.500771 0.477132 0.305182
C282  C     C_R   0.767821 0.724133 0.245499 -0.244618
C283  C     C_R   0.850183 0.513269 0.522941 0.326855
C284  C     C_R   0.513146 0.850095 0.476770 0.326992
C285  C     C_R   0.495705 0.150371 0.526295 0.291873
C286  C     C_R   0.850090 0.493549 0.474904 0.294689
C287  C     C_R   0.149827 0.482094 0.525564 0.313136
C288  C     C_R   0.477671 0.150094 0.477887 0.333777
C289  C     C_R   0.493739 0.850052 0.524728 0.289081
C290  C     C_R   0.650760 0.012247 0.977598 0.326052
C291  C     C_R   0.349096 0.001109 0.026980 0.308467
C292  C     C_R   0.015978 0.350079 0.975481 0.321485
C293  C     C_R   0.228848 0.270999 0.749766 -0.218617
C294  C     C_R   0.010817 0.650279 0.024518 0.305816
C295  C     C_R   0.348617 0.985202 0.978319 0.312425
C296  C     C_R   0.650337 0.995219 0.026092 0.306294
C297  C     C_R   0.991426 0.650346 0.976511 0.304692
C298  C     C_R   0.997147 0.349510 0.023696 0.301822
C299  C     C_R   0.549937 0.993782 0.025914 -0.179673
C300  C     C_R   0.449348 0.992869 0.974354 -0.173632
C301  C     C_R   0.996288 0.449781 0.025588 -0.184108
C302  C     C_R   0.994397 0.550101 0.974302 -0.185107
C303  C     C_R   0.449410 0.005463 0.026062 -0.187227
C304  C     C_R   0.729793 0.226248 0.250893 -0.235419
C305  C     C_R   0.550020 0.007039 0.974275 -0.183073
C306  C     C_R   0.008133 0.550007 0.026011 -0.176321
C307  C     C_R   0.009929 0.450270 0.973834 -0.178061
C308  C     C_R   0.049650 0.487718 0.526625 -0.173175
C309  C     C_R   0.950175 0.492330 0.474270 -0.176471
C310  C     C_R   0.493375 0.950174 0.525653 -0.175701
C311  C     C_R   0.488934 0.050063 0.473965 -0.176871
C312  C     C_R   0.950288 0.506578 0.526027 -0.185110
C313  C     C_R   0.050433 0.500883 0.474702 -0.187534
C314  C     C_R   0.502123 0.050466 0.525807 -0.183787
C315  C     C_R   0.275725 0.766362 0.755192 -0.213524
C316  C     C_R   0.507236 0.950383 0.474058 -0.185347
C317  C     C_R   0.000461 0.499953 0.109729 0.833189
C318  C     C_R   0.000427 0.500062 0.890242 0.829465
C319  C     C_R   0.499962 0.999937 0.109662 0.829018
C320  C     C_R   0.499934 0.999914 0.890338 0.831603
C321  C     C_R   0.499493 0.000012 0.609636 0.829291
C322  C     C_R   0.499669 0.000070 0.390139 0.824034
C323  C     C_R   0.999978 0.499477 0.609896 0.839298
C324  C     C_R   0.000069 0.499065 0.390356 0.830177
C325  C     C_R   0.499765 0.999783 0.053590 -0.038893
C326  C     C_R   0.769981 0.274027 0.750327 -0.240446
C327  C     C_R   0.499729 0.999960 0.946609 -0.028522
C328  C     C_R   0.001628 0.499878 0.053392 -0.032965
C329  C     C_R   0.001560 0.500186 0.946509 -0.035388
C330  C     C_R   0.999908 0.497877 0.553682 -0.029581
C331  C     C_R   0.000324 0.497058 0.446906 -0.036792
C332  C     C_R   0.498373 0.000257 0.553383 -0.034781
C333  C     C_R   0.498789 0.000190 0.446450 -0.032905
C334  C     C_R   0.104554 0.605239 0.250281 0.902045
C335  C     C_R   0.895139 0.395479 0.750122 0.899893
C336  C     C_R   0.604885 0.894994 0.249779 0.894890
H1    H     H_    0.818881 0.527106 0.383542 0.222231
H2    H     H_    0.524889 0.816807 0.617206 0.219466
H3    H     H_    0.150648 0.911440 0.806281 0.232995
H4    H     H_    0.183915 0.934382 0.750301 0.216683
H5    H     H_    0.097045 0.902547 0.703003 0.261752
H6    H     H_    0.087800 0.959486 0.745187 0.269967
H7    H     H_    0.066205 0.892015 0.763711 0.270037
H8    H     H_    0.727360 0.225333 0.851648 0.141259
H9    H     H_    0.736726 0.298287 0.848028 0.076033
H10   H     H_    0.801436 0.227807 0.921829 0.239756
H11   H     H_    0.790516 0.300765 0.922271 0.201202
H12   H     H_    0.688210 0.227707 0.926407 0.247433
H13   H     H_    0.573088 0.811170 0.566034 0.143569
H14   H     H_    0.702411 0.292814 0.955128 0.264912
H15   H     H_    0.731596 0.228932 0.979080 0.284685
H16   H     H_    0.175435 0.869205 0.238459 0.172101
H17   H     H_    0.167101 0.822521 0.288912 0.073662
H18   H     H_    0.072841 0.846235 0.215451 0.242462
H19   H     H_    0.069222 0.819799 0.277721 0.208919
H20   H     H_    0.102868 0.911752 0.309471 0.264375
H21   H     H_    0.039167 0.916178 0.275692 0.271342
H22   H     H_    0.101891 0.936558 0.246081 0.266266
H23   H     H_    0.775910 0.729945 0.846361 0.140228
H24   H     H_    0.540267 0.751541 0.589812 0.177095
H25   H     H_    0.703326 0.741548 0.842129 0.074356
H26   H     H_    0.773933 0.801383 0.919185 0.238161
H27   H     H_    0.700865 0.791770 0.918451 0.201752
H28   H     H_    0.775223 0.689162 0.921187 0.245993
H29   H     H_    0.707515 0.700541 0.947385 0.265040
H30   H     H_    0.768877 0.729429 0.975128 0.280674
H31   H     H_    0.138914 0.174434 0.253469 0.149274
H32   H     H_    0.191181 0.141705 0.289552 0.070266
H33   H     H_    0.145428 0.085131 0.196159 0.239925
H34   H     H_    0.178379 0.055713 0.249497 0.209857
H35   H     H_    0.191483 0.470477 0.385333 0.209107
H36   H     H_    0.096372 0.080903 0.301606 0.265295
H37   H     H_    0.078747 0.037336 0.249788 0.272073
H38   H     H_    0.064081 0.109208 0.246613 0.269266
H39   H     H_    0.282698 0.764319 0.851755 0.140900
H40   H     H_    0.270808 0.691512 0.851920 0.070449
H41   H     H_    0.214152 0.763759 0.929630 0.243281
H42   H     H_    0.231842 0.692367 0.932171 0.193024
H43   H     H_    0.325872 0.776532 0.924021 0.243325
H44   H     H_    0.323149 0.710553 0.954952 0.260750
H45   H     H_    0.289087 0.770699 0.981273 0.280233
H46   H     H_    0.191717 0.422452 0.437300 0.133260
H47   H     H_    0.827032 0.139080 0.259088 0.134960
H48   H     H_    0.864390 0.191476 0.292266 0.084356
H49   H     H_    0.908285 0.129974 0.199509 0.231969
H50   H     H_    0.945526 0.177772 0.237517 0.219615
H51   H     H_    0.894816 0.074369 0.283643 0.257340
H52   H     H_    0.950750 0.116161 0.306368 0.265382
H53   H     H_    0.960148 0.072910 0.252478 0.273606
H54   H     H_    0.229093 0.275297 0.847750 0.142502
H55   H     H_    0.300543 0.259673 0.851940 0.062276
H56   H     H_    0.223955 0.199261 0.921744 0.247334
H57   H     H_    0.254506 0.454844 0.418346 0.176953
H58   H     H_    0.293342 0.220816 0.930388 0.192407
H59   H     H_    0.198404 0.304133 0.921815 0.254051
H60   H     H_    0.266180 0.313738 0.947543 0.261722
H61   H     H_    0.214851 0.272828 0.978594 0.283493
H62   H     H_    0.865652 0.827857 0.239513 0.159717
H63   H     H_    0.814385 0.836924 0.286122 0.072896
H64   H     H_    0.836881 0.924714 0.205990 0.240905
H65   H     H_    0.801608 0.932199 0.264323 0.213975
H66   H     H_    0.892039 0.909182 0.307955 0.262515
H67   H     H_    0.892813 0.971642 0.272260 0.271175
H68   H     H_    0.814024 0.466473 0.604875 0.208474
H69   H     H_    0.924450 0.910955 0.247433 0.268182
H70   H     H_    0.770396 0.718373 0.644046 0.162262
H71   H     H_    0.774029 0.791066 0.653552 0.067958
H72   H     H_    0.702658 0.746964 0.569295 0.239731
H73   H     H_    0.737435 0.811685 0.576195 0.186273
H74   H     H_    0.823505 0.727017 0.577908 0.239551
H75   H     H_    0.809341 0.775432 0.530271 0.265236
H76   H     H_    0.776496 0.708781 0.529242 0.275659
H77   H     H_    0.320175 0.362815 0.243797 0.151568
H78   H     H_    0.345220 0.311206 0.202236 0.065426
H79   H     H_    0.792809 0.434736 0.547014 0.157057
H80   H     H_    0.420768 0.351677 0.285772 0.242748
H81   H     H_    0.437384 0.324257 0.225620 0.200743
H82   H     H_    0.393427 0.412547 0.188851 0.259049
H83   H     H_    0.456369 0.421337 0.223330 0.272739
H84   H     H_    0.391859 0.437818 0.252280 0.269593
H85   H     H_    0.715410 0.241459 0.634937 0.158938
H86   H     H_    0.781877 0.231260 0.662485 0.075832
H87   H     H_    0.761463 0.308642 0.573596 0.232584
H88   H     H_    0.826304 0.285984 0.599413 0.207111
H89   H     H_    0.784027 0.184709 0.582056 0.253956
H90   H     H_    0.744827 0.472719 0.583320 0.175453
H91   H     H_    0.816228 0.223725 0.534139 0.277353
H92   H     H_    0.741136 0.222324 0.539613 0.277679
H93   H     H_    0.366462 0.664939 0.253758 0.157450
H94   H     H_    0.313796 0.657546 0.207847 0.075256
H95   H     H_    0.338753 0.569967 0.287849 0.238145
H96   H     H_    0.295903 0.563408 0.233640 0.223476
H97   H     H_    0.386352 0.588351 0.183445 0.262441
H98   H     H_    0.378049 0.520833 0.208510 0.272603
H99   H     H_    0.420600 0.569674 0.240767 0.273288
H100  H     H_    0.232597 0.284347 0.646720 0.152312
H101  H     H_    0.466195 0.813029 0.395370 0.208424
H102  H     H_    0.230485 0.211311 0.659161 0.065614
H103  H     H_    0.301674 0.256346 0.573425 0.237541
H104  H     H_    0.273899 0.188716 0.582731 0.187230
H105  H     H_    0.179304 0.263298 0.580284 0.240225
H106  H     H_    0.200784 0.215283 0.533558 0.265674
H107  H     H_    0.225210 0.285497 0.531899 0.271383
H108  H     H_    0.674998 0.645157 0.228562 0.129198
H109  H     H_    0.627803 0.695430 0.203637 0.090142
H110  H     H_    0.601683 0.620504 0.293177 0.231831
H111  H     H_    0.555149 0.665683 0.260855 0.215572
H112  H     H_    0.810195 0.573832 0.435548 0.138083
H113  H     H_    0.435360 0.790874 0.453383 0.158404
H114  H     H_    0.615966 0.572475 0.206341 0.263979
H115  H     H_    0.554971 0.608940 0.187224 0.266600
H116  H     H_    0.552376 0.561793 0.238816 0.265762
H117  H     H_    0.265818 0.770436 0.657755 0.130226
H118  H     H_    0.196561 0.745212 0.651943 0.072259
H119  H     H_    0.287235 0.697328 0.585651 0.239930
H120  H     H_    0.214328 0.699327 0.575839 0.197855
H121  H     H_    0.279367 0.808076 0.582739 0.244525
H122  H     H_    0.215291 0.791994 0.551293 0.265970
H123  H     H_    0.281962 0.766810 0.527650 0.279608
H124  H     H_    0.474050 0.743888 0.416511 0.175035
H125  H     H_    0.643722 0.343554 0.234181 0.138106
H126  H     H_    0.706061 0.368954 0.207109 0.087334
H127  H     H_    0.645490 0.419380 0.297798 0.221094
H128  H     H_    0.705882 0.446858 0.268986 0.236620
H129  H     H_    0.609074 0.425718 0.199859 0.258960
H130  H     H_    0.659440 0.480623 0.200666 0.256468
H131  H     H_    0.603070 0.480206 0.245237 0.270190
H132  H     H_    0.254540 0.700271 0.370693 0.175984
H133  H     H_    0.225597 0.758323 0.340000 0.086531
H134  H     H_    0.308429 0.768313 0.425060 0.239967
H135  H     H_    0.471129 0.182415 0.621941 0.224315
H136  H     H_    0.265380 0.820251 0.398310 0.202141
H137  H     H_    0.185030 0.747189 0.423410 0.251528
H138  H     H_    0.211582 0.795879 0.466606 0.276768
H139  H     H_    0.236004 0.725448 0.466454 0.279138
H140  H     H_    0.663418 0.361138 0.757989 0.140909
H141  H     H_    0.638065 0.303370 0.792436 0.083876
H142  H     H_    0.578918 0.357187 0.702856 0.225581
H143  H     H_    0.552616 0.303384 0.741286 0.226212
H144  H     H_    0.588993 0.402162 0.800003 0.258223
H145  H     H_    0.526894 0.363339 0.803091 0.269369
H146  H     H_    0.417753 0.180768 0.574913 0.134141
H147  H     H_    0.535420 0.415398 0.756275 0.273474
H148  H     H_    0.275235 0.226065 0.346191 0.137445
H149  H     H_    0.202476 0.238575 0.346586 0.063640
H150  H     H_    0.274534 0.303122 0.419609 0.244665
H151  H     H_    0.204070 0.282307 0.425072 0.187790
H152  H     H_    0.296702 0.194203 0.422463 0.247169
H153  H     H_    0.228412 0.191781 0.450054 0.253630
H154  H     H_    0.283331 0.233172 0.477992 0.280477
H155  H     H_    0.640780 0.675068 0.752622 0.138251
H156  H     H_    0.694296 0.638210 0.785061 0.078042
H157  H     H_    0.445992 0.244671 0.594503 0.187898
H158  H     H_    0.643941 0.592481 0.687866 0.229340
H159  H     H_    0.682999 0.557019 0.734675 0.213612
H160  H     H_    0.594201 0.595434 0.791526 0.252426
H161  H     H_    0.596320 0.529710 0.760790 0.267262
H162  H     H_    0.563030 0.586974 0.731071 0.268819
H163  H     H_    0.776105 0.261452 0.348861 0.130471
H164  H     H_    0.750390 0.193139 0.356848 0.074978
H165  H     H_    0.700527 0.286074 0.418271 0.241814
H166  H     H_    0.704297 0.214203 0.431374 0.199551
H167  H     H_    0.808639 0.285451 0.423567 0.249339
H168  H     H_    0.299141 0.028988 0.894496 0.198002
H169  H     H_    0.799352 0.219774 0.452202 0.271207
H170  H     H_    0.768803 0.282089 0.478666 0.287017
H171  H     H_    0.341931 0.633040 0.756029 0.152674
H172  H     H_    0.355727 0.689689 0.797266 0.070654
H173  H     H_    0.435212 0.654287 0.712417 0.231746
H174  H     H_    0.448492 0.701274 0.763049 0.214501
H175  H     H_    0.426269 0.617173 0.821793 0.259332
H176  H     H_    0.490910 0.617876 0.788910 0.266485
H177  H     H_    0.434772 0.576164 0.765556 0.267005
H178  H     H_    0.714214 0.765056 0.349210 0.149739
H179  H     H_    0.295352 0.064198 0.954520 0.144682
H180  H     H_    0.786800 0.762889 0.340277 0.077196
H181  H     H_    0.728761 0.695241 0.420396 0.239312
H182  H     H_    0.800788 0.711010 0.414803 0.199679
H183  H     H_    0.721201 0.808682 0.421673 0.246662
H184  H     H_    0.789294 0.800264 0.446445 0.259999
H185  H     H_    0.729853 0.768336 0.475531 0.284537
H186  H     H_    0.358081 0.313121 0.756800 0.149023
H187  H     H_    0.310159 0.351248 0.793820 0.069440
H188  H     H_    0.366318 0.406421 0.704910 0.240738
H189  H     H_    0.336959 0.436190 0.759829 0.204440
H190  H     H_    0.236506 0.027983 0.931022 0.171924
H191  H     H_    0.414047 0.386490 0.809326 0.261753
H192  H     H_    0.435502 0.441011 0.768452 0.272605
H193  H     H_    0.443697 0.370828 0.749329 0.275302
H194  H     H_    0.021238 0.287590 0.206908 0.229536
H195  H     H_    0.070839 0.257652 0.247378 0.104300
H196  H     H_    0.058898 0.229091 0.186471 0.171461
H197  H     H_    0.858564 0.686462 0.859928 0.101405
H198  H     H_    0.884738 0.756754 0.858503 0.193134
H199  H     H_    0.929067 0.700326 0.872697 0.248046
H200  H     H_    0.295332 0.977902 0.217949 0.235510
H201  H     H_    0.678550 0.032613 0.116783 0.226447
H202  H     H_    0.253543 0.929179 0.250121 0.098194
H203  H     H_    0.234094 0.953539 0.189761 0.170999
H204  H     H_    0.692737 0.132995 0.861346 0.119549
H205  H     H_    0.761910 0.106968 0.853718 0.191034
H206  H     H_    0.706891 0.061884 0.866746 0.227864
H207  H     H_    0.974349 0.712134 0.196881 0.219728
H208  H     H_    0.926073 0.740146 0.240624 0.107774
H209  H     H_    0.931727 0.768805 0.178180 0.165110
H210  H     H_    0.134224 0.301602 0.857102 0.113497
H211  H     H_    0.094389 0.239209 0.853198 0.184411
H212  H     H_    0.688784 0.077696 0.063832 0.135510
H213  H     H_    0.061818 0.303877 0.862622 0.237918
H214  H     H_    0.708881 0.020417 0.211342 0.227314
H215  H     H_    0.744153 0.069606 0.248951 0.101206
H216  H     H_    0.769225 0.052471 0.187944 0.173100
H217  H     H_    0.295812 0.863021 0.863690 0.124038
H218  H     H_    0.234414 0.903390 0.853994 0.180383
H219  H     H_    0.297421 0.935678 0.868547 0.232794
H220  H     H_    0.974338 0.286177 0.803037 0.213563
H221  H     H_    0.926260 0.253955 0.762422 0.108926
H222  H     H_    0.932737 0.231733 0.826139 0.168326
H223  H     H_    0.752224 0.540498 0.409053 0.179195
H224  H     H_    0.746096 0.045637 0.092923 0.186267
H225  H     H_    0.127667 0.699909 0.142158 0.114753
H226  H     H_    0.088242 0.762252 0.148847 0.182628
H227  H     H_    0.055356 0.697795 0.140232 0.229774
H228  H     H_    0.713430 0.978699 0.802992 0.220386
H229  H     H_    0.745045 0.933434 0.759257 0.109732
H230  H     H_    0.770116 0.937475 0.822514 0.167220
H231  H     H_    0.303067 0.130558 0.139051 0.110672
H232  H     H_    0.237696 0.096643 0.146309 0.183276
H233  H     H_    0.298141 0.058158 0.135071 0.236572
H234  H     H_    0.027714 0.717627 0.810818 0.213290
H235  H     H_    0.036377 0.681625 0.892949 0.216226
H236  H     H_    0.071458 0.733274 0.759883 0.113315
H237  H     H_    0.077167 0.771046 0.817955 0.170056
H238  H     H_    0.866704 0.310150 0.139969 0.108193
H239  H     H_    0.894255 0.241285 0.143526 0.189274
H240  H     H_    0.937511 0.298043 0.131843 0.236675
H241  H     H_    0.287411 0.024325 0.806555 0.216414
H242  H     H_    0.260300 0.069698 0.760515 0.105555
H243  H     H_    0.230710 0.067924 0.822670 0.167103
H244  H     H_    0.698091 0.860279 0.136690 0.110619
H245  H     H_    0.761246 0.898352 0.142173 0.188172
H246  H     H_    0.071630 0.704325 0.949015 0.155175
H247  H     H_    0.698877 0.932324 0.128994 0.241614
H248  H     H_    0.524810 0.783911 0.702411 0.217759
H249  H     H_    0.574814 0.760968 0.746364 0.106866
H250  H     H_    0.568731 0.727588 0.686262 0.175788
H251  H     H_    0.365550 0.192955 0.357866 0.113353
H252  H     H_    0.395781 0.260621 0.352982 0.189762
H253  H     H_    0.437212 0.201733 0.364425 0.232435
H254  H     H_    0.787296 0.478822 0.697037 0.218765
H255  H     H_    0.757169 0.433119 0.740809 0.107768
H256  H     H_    0.730546 0.437608 0.678268 0.169830
H257  H     H_    0.033652 0.752245 0.912200 0.175849
H258  H     H_    0.184121 0.634509 0.358247 0.109090
H259  H     H_    0.253032 0.606441 0.358062 0.177192
H260  H     H_    0.195390 0.563339 0.365667 0.238859
H261  H     H_    0.479067 0.209789 0.713503 0.231192
H262  H     H_    0.429171 0.240106 0.753625 0.106285
H263  H     H_    0.445150 0.271120 0.694635 0.174075
H264  H     H_    0.632404 0.811595 0.357379 0.111735
H265  H     H_    0.607317 0.741967 0.353828 0.189017
H266  H     H_    0.561897 0.797514 0.365339 0.235941
H267  H     H_    0.216056 0.519476 0.696585 0.219997
H268  H     H_    0.031823 0.316583 0.114352 0.222461
H269  H     H_    0.242235 0.563233 0.744198 0.111653
H270  H     H_    0.273089 0.563059 0.682641 0.168753
H271  H     H_    0.799110 0.354210 0.363186 0.114463
H272  H     H_    0.736742 0.393925 0.356810 0.189758
H273  H     H_    0.799162 0.425461 0.375130 0.243779
H274  H     H_    0.475181 0.779877 0.308323 0.210836
H275  H     H_    0.430123 0.760925 0.259029 0.111119
H276  H     H_    0.425391 0.727457 0.319269 0.174854
H277  H     H_    0.634933 0.202713 0.637713 0.105127
H278  H     H_    0.594512 0.264621 0.646510 0.184443
H279  H     H_    0.077900 0.309053 0.061784 0.137589
H280  H     H_    0.563551 0.201147 0.630900 0.233630
H281  H     H_    0.221966 0.477259 0.304589 0.211843
H282  H     H_    0.232393 0.435281 0.251314 0.117225
H283  H     H_    0.275959 0.427358 0.306008 0.173803
H284  H     H_    0.806934 0.632838 0.639116 0.118208
H285  H     H_    0.740872 0.599514 0.643894 0.183253
H286  H     H_    0.801872 0.560744 0.635167 0.237962
H287  H     H_    0.526824 0.213387 0.308514 0.207230
H288  H     H_    0.574205 0.248152 0.269095 0.111718
H289  H     H_    0.569576 0.265544 0.334201 0.165930
H290  H     H_    0.044928 0.250474 0.087579 0.180641
H291  H     H_    0.355210 0.798202 0.639995 0.106432
H292  H     H_    0.397416 0.737205 0.643575 0.193078
H293  H     H_    0.426056 0.801230 0.626313 0.238439
H294  H     H_    0.786261 0.519695 0.296547 0.218717
H295  H     H_    0.759372 0.566022 0.251563 0.109703
H296  H     H_    0.727374 0.559803 0.311816 0.175589
H297  H     H_    0.202134 0.370117 0.641635 0.115415
H298  H     H_    0.263562 0.410890 0.649571 0.182718
H299  H     H_    0.198084 0.442186 0.639674 0.232679
H300  H     H_    0.107961 0.621700 0.454286 0.152457
H301  H     H_    0.689647 0.969042 0.892344 0.211195
H302  H     H_    0.041330 0.598510 0.432528 0.146485
H303  H     H_    0.089133 0.626490 0.389869 0.173263
H304  H     H_    0.891586 0.628760 0.552039 0.149642
H305  H     H_    0.958205 0.608573 0.579158 0.144202
H306  H     H_    0.902909 0.630930 0.618006 0.172415
H307  H     H_    0.628488 0.893734 0.447643 0.148191
H308  H     H_    0.607015 0.958767 0.420103 0.146392
H309  H     H_    0.630958 0.904264 0.381851 0.170682
H310  H     H_    0.616621 0.113397 0.542175 0.143763
H311  H     H_    0.604404 0.048301 0.574311 0.151187
H312  H     H_    0.701345 0.931814 0.949686 0.145230
H313  H     H_    0.628381 0.106793 0.607677 0.175524
H314  H     H_    0.870928 0.376909 0.450368 0.158141
H315  H     H_    0.944033 0.383491 0.435513 0.155564
H316  H     H_    0.895324 0.366734 0.388232 0.181344
H317  H     H_    0.130699 0.371163 0.553910 0.158697
H318  H     H_    0.057541 0.373813 0.571546 0.152995
H319  H     H_    0.109862 0.363035 0.617508 0.175800
H320  H     H_    0.367264 0.106226 0.443588 0.148605
H321  H     H_    0.389483 0.040977 0.416779 0.145157
H322  H     H_    0.367516 0.095762 0.377724 0.172571
H323  H     H_    0.756361 0.967360 0.920383 0.173940
H324  H     H_    0.378305 0.867511 0.549733 0.161205
H325  H     H_    0.382555 0.941308 0.562477 0.155835
H326  H     H_    0.367062 0.893811 0.611063 0.181560
H327  H     H_    0.619235 0.127904 0.939543 0.153788
H328  H     H_    0.548189 0.107994 0.926684 0.141620
H329  H     H_    0.593720 0.124674 0.877049 0.177888
H330  H     H_    0.374997 0.122184 0.053939 0.153848
H331  H     H_    0.447061 0.108428 0.069021 0.152012
H332  H     H_    0.399565 0.127036 0.116632 0.179537
H333  H     H_    0.129998 0.386648 0.947102 0.153612
H334  H     H_    0.181618 0.533489 0.607383 0.207310
H335  H     H_    0.324688 0.961328 0.117423 0.229050
H336  H     H_    0.114062 0.454768 0.922556 0.151935
H337  H     H_    0.134133 0.400402 0.881922 0.175780
H338  H     H_    0.124271 0.630711 0.053145 0.163726
H339  H     H_    0.118667 0.557593 0.067440 0.152476
H340  H     H_    0.132572 0.606297 0.115440 0.176219
H341  H     H_    0.359688 0.876929 0.939248 0.170626
H342  H     H_    0.435267 0.880941 0.937585 0.145997
H343  H     H_    0.396671 0.870855 0.881497 0.181858
H344  H     H_    0.618406 0.875031 0.052457 0.153342
H345  H     H_    0.547977 0.891223 0.072138 0.151276
H346  H     H_    0.315076 0.916587 0.064196 0.129687
H347  H     H_    0.598523 0.871146 0.116618 0.179701
H348  H     H_    0.873047 0.611687 0.946856 0.150054
H349  H     H_    0.894327 0.543560 0.925684 0.147133
H350  H     H_    0.871740 0.593735 0.882254 0.176558
H351  H     H_    0.877195 0.381250 0.051502 0.154384
H352  H     H_    0.894284 0.451410 0.069890 0.148338
H353  H     H_    0.873480 0.402588 0.115192 0.176071
H354  H     H_    0.257200 0.945602 0.094883 0.194329
H355  H     H_    0.966811 0.313578 0.894710 0.205908
H356  H     H_    0.937631 0.290924 0.953249 0.162615
H357  H     H_    0.975502 0.244311 0.915370 0.172077
H358  H     H_    0.963312 0.684963 0.107041 0.210028
H359  H     H_    0.930558 0.705174 0.049226 0.159440
H360  H     H_    0.967349 0.754416 0.085277 0.174626
H361  H     H_    0.268493 0.221371 0.147745 0.148114
H362  H     H_    0.202890 0.563966 0.549041 0.158048
H363  H     H_    0.261287 0.295012 0.149104 0.063324
H364  H     H_    0.192238 0.228150 0.075444 0.241176
H365  H     H_    0.215227 0.298078 0.071925 0.186114
H366  H     H_    0.306364 0.210343 0.074093 0.239687
H367  H     H_    0.300084 0.273324 0.038066 0.264628
H368  H     H_    0.262540 0.210984 0.020571 0.268865
H369  H     H_    0.851685 0.869193 0.748666 0.157778
H370  H     H_    0.848791 0.814844 0.703846 0.078020
H371  H     H_    0.942429 0.828199 0.781472 0.237997
H372  H     H_    0.941035 0.781764 0.729020 0.218822
H373  H     H_    0.251562 0.529437 0.587339 0.176497
H374  H     H_    0.931517 0.869185 0.673312 0.261718
H375  H     H_    0.996725 0.858234 0.703353 0.265827
H376  H     H_    0.948890 0.908295 0.728692 0.270432
H377  H     H_    0.213004 0.734809 0.147634 0.159492
H378  H     H_    0.285649 0.730010 0.160877 0.071395
H379  H     H_    0.242904 0.800291 0.074212 0.239580
H380  H     H_    0.310103 0.772053 0.084476 0.189541
H381  H     H_    0.232143 0.679527 0.082730 0.239736
H382  H     H_    0.285202 0.696423 0.038866 0.268370
H383  H     H_    0.216417 0.724450 0.031081 0.271240
H384  H     H_    0.527944 0.194073 0.400586 0.193579
H385  H     H_    0.854030 0.179028 0.733234 0.129834
H386  H     H_    0.802461 0.133918 0.708039 0.092814
H387  H     H_    0.878270 0.105025 0.795877 0.229240
H388  H     H_    0.829405 0.060699 0.766563 0.222743
H389  H     H_    0.927544 0.114008 0.712483 0.260794
H390  H     H_    0.881345 0.062958 0.687901 0.264914
H391  H     H_    0.927306 0.045818 0.738019 0.269384
H392  H     H_    0.721030 0.764609 0.149647 0.139346
H393  H     H_    0.736560 0.692740 0.146006 0.056939
H394  H     H_    0.798861 0.764435 0.074054 0.245757
H395  H     H_    0.552376 0.215705 0.461221 0.169279
H396  H     H_    0.770222 0.697648 0.065818 0.180060
H397  H     H_    0.686974 0.792711 0.077235 0.238567
H398  H     H_    0.686441 0.732022 0.037797 0.261726
H399  H     H_    0.729064 0.791637 0.023086 0.270135
H400  H     H_    0.176026 0.134134 0.752010 0.154553
H401  H     H_    0.156345 0.185236 0.707597 0.073386
H402  H     H_    0.078937 0.146859 0.791228 0.234390
H403  H     H_    0.062760 0.185468 0.736336 0.216480
H404  H     H_    0.103238 0.096776 0.689081 0.259622
H405  H     H_    0.034592 0.096726 0.713673 0.270216
H406  H     H_    0.512921 0.261388 0.423753 0.170700
H407  H     H_    0.088953 0.064054 0.747903 0.264639
H408  H     H_    0.788772 0.261823 0.143928 0.163351
H409  H     H_    0.718837 0.271118 0.164093 0.079104
H410  H     H_    0.747570 0.199212 0.073927 0.236737
H411  H     H_    0.682655 0.228171 0.092215 0.196775
H412  H     H_    0.750489 0.322943 0.086098 0.242996
H413  H     H_    0.704443 0.298668 0.038924 0.270250
H414  H     H_    0.777088 0.279292 0.037516 0.275383
H415  H     H_    0.138449 0.817767 0.757460 0.148171
H416  H     H_    0.189152 0.843582 0.715663 0.071808
O1    O     O_3   1.000000 0.500000 0.250000 -0.544020
O2    O     O_R   1.000000 0.454520 0.865790 -0.588145
O3    O     O_3   0.292025 0.339480 0.717232 -0.581952
O4    O     O_3   0.100046 0.302544 0.184210 -0.573703
O5    O     O_3   0.910022 0.707938 0.798963 -0.597058
O6    O     O_3   0.299530 0.900671 0.187260 -0.579002
O7    O     O_3   0.709573 0.089164 0.794887 -0.601244
O8    O     O_3   0.894631 0.692891 0.179590 -0.569386
O9    O     O_3   0.086849 0.289345 0.791428 -0.610180
O10   O     O_3   0.698997 0.099104 0.185793 -0.575802
O11   O     O_3   0.290940 0.909429 0.796670 -0.605126
O12   O     O_3   0.894919 0.306718 0.819542 -0.569492
O13   O     O_R   0.545480 0.000000 0.134210 -0.588479
O14   O     O_3   0.084535 0.711565 0.210444 -0.608394
O15   O     O_3   0.695797 0.898113 0.816830 -0.567356
O16   O     O_3   0.290115 0.086594 0.206321 -0.609414
O17   O     O_3   0.107005 0.692059 0.822004 -0.566799
O18   O     O_3   0.912759 0.290469 0.204284 -0.601311
O19   O     O_3   0.306720 0.104656 0.820251 -0.561585
O20   O     O_3   0.708228 0.909275 0.201578 -0.609865
O21   O     O_3   0.603302 0.804452 0.682040 -0.569764
O22   O     O_3   0.411771 0.210050 0.292619 -0.600606
O23   O     O_3   0.805219 0.398571 0.681944 -0.567774
O24   O     O_R   0.454520 0.000000 0.865790 -0.582128
O25   O     O_3   0.208699 0.589251 0.294496 -0.601700
O26   O     O_3   0.400586 0.200051 0.687369 -0.576734
O27   O     O_3   0.586939 0.790312 0.293146 -0.595286
O28   O     O_3   0.197014 0.600000 0.684682 -0.570564
O29   O     O_3   0.793675 0.407449 0.300955 -0.606912
O30   O     O_3   0.396571 0.806916 0.319264 -0.566680
O31   O     O_3   0.587311 0.208199 0.703645 -0.608428
O32   O     O_3   0.197319 0.397817 0.315341 -0.568172
O33   O     O_3   0.790285 0.589028 0.705793 -0.612683
O34   O     O_3   0.606404 0.190973 0.321873 -0.565833
O35   O     O_R   0.500000 0.954520 0.634210 -0.587615
O36   O     O_3   0.410909 0.792546 0.700807 -0.596387
O37   O     O_3   0.801517 0.599905 0.314375 -0.572486
O38   O     O_3   0.210877 0.413803 0.710030 -0.607780
O39   O     O_3   0.108427 0.549878 0.413403 -0.551665
O40   O     O_3   0.893597 0.554265 0.590321 -0.544301
O41   O     O_3   0.554566 0.893383 0.409561 -0.541325
O42   O     O_3   0.548251 0.109974 0.588370 -0.550368
O43   O     O_3   0.893562 0.446102 0.410371 -0.542145
O44   O     O_3   0.104033 0.441227 0.592413 -0.541359
O45   O     O_3   0.442864 0.105789 0.408035 -0.540052
O46   O     O_R   0.500000 0.045480 0.365790 -0.585977
O47   O     O_3   0.446603 0.893773 0.589322 -0.544603
O48   O     O_3   0.608697 0.051057 0.908851 -0.538026
O49   O     O_3   0.390433 0.049713 0.090945 -0.545577
O50   O     O_3   0.056674 0.394645 0.908466 -0.545622
O51   O     O_3   0.054231 0.606323 0.090764 -0.543520
O52   O     O_3   0.392347 0.948383 0.908856 -0.534865
O53   O     O_3   0.607989 0.948223 0.090537 -0.547378
O54   O     O_3   0.947561 0.607586 0.910275 -0.542904
O55   O     O_3   0.950391 0.391035 0.089001 -0.545851
O56   O     O_R   0.954520 0.500000 0.634210 -0.588589
O57   O     O_R   0.045480 0.500000 0.365790 -0.590477
O58   O     O_R   0.500000 0.045480 0.634210 -0.592370
O59   O     O_R   0.500000 0.954520 0.365790 -0.588488
O60   O     O_R   0.045480 0.500000 0.634210 -0.591841
O61   O     O_3   1.000000 0.500000 0.750000 -0.545203
O62   O     O_R   0.954520 0.500000 0.365790 -0.589844
O63   O     O_R   0.063990 0.609460 0.219650 -0.598528
O64   O     O_R   0.936010 0.390540 0.780350 -0.609595
O65   O     O_R   0.609460 0.936010 0.219650 -0.596029
O66   O     O_R   0.390540 0.063990 0.780350 -0.605254
O67   O     O_R   0.936010 0.390540 0.219650 -0.597189
O68   O     O_R   0.063990 0.609460 0.780350 -0.608211
O69   O     O_R   0.390540 0.063990 0.219650 -0.598667
O70   O     O_R   0.609460 0.936010 0.780350 -0.605526
O71   O     O_R   0.936010 0.609460 0.780350 -0.589522
O72   O     O_3   0.500000 0.000000 0.250000 -0.543268
O73   O     O_R   0.063990 0.390540 0.219650 -0.611859
O74   O     O_R   0.390540 0.936010 0.780350 -0.592336
O75   O     O_R   0.609460 0.063990 0.219650 -0.618483
O76   O     O_R   0.063990 0.390540 0.780350 -0.595940
O77   O     O_R   0.936010 0.609460 0.219650 -0.609935
O78   O     O_R   0.609460 0.063990 0.780350 -0.594758
O79   O     O_R   0.390540 0.936010 0.219650 -0.623680
O80   O     O_R   0.563990 0.109460 0.719650 -0.594155
O81   O     O_R   0.436010 0.890540 0.280350 -0.599714
O82   O     O_R   0.109460 0.436010 0.719650 -0.594534
O83   O     O_3   0.500000 0.000000 0.750000 -0.545258
O84   O     O_R   0.890540 0.563990 0.280350 -0.612491
O85   O     O_R   0.436010 0.890540 0.719650 -0.589152
O86   O     O_R   0.563990 0.109460 0.280350 -0.604720
O87   O     O_R   0.890540 0.563990 0.719650 -0.596452
O88   O     O_R   0.109460 0.436010 0.280350 -0.604011
O89   O     O_R   0.436010 0.109460 0.280350 -0.591665
O90   O     O_R   0.563990 0.890540 0.719650 -0.612167
O91   O     O_R   0.890540 0.436010 0.280350 -0.587643
O92   O     O_R   0.109460 0.563990 0.719650 -0.607672
O93   O     O_R   0.563990 0.890540 0.280350 -0.589314
O94   O     O_R   1.000000 0.454520 0.134210 -0.589466
O95   O     O_R   0.436010 0.109460 0.719650 -0.617054
O96   O     O_R   0.109460 0.563990 0.280350 -0.594836
O97   O     O_R   0.890540 0.436010 0.719650 -0.608286
O98   O     O_3   0.801030 0.489277 0.450286 -0.594491
O99   O     O_3   0.198335 0.477684 0.551122 -0.583186
O100  O     O_3   0.467779 0.199188 0.454724 -0.573101
O101  O     O_3   0.488939 0.800907 0.549256 -0.596698
O102  O     O_3   0.200601 0.507171 0.454175 -0.584662
O103  O     O_3   0.800990 0.520609 0.546801 -0.578380
O104  O     O_3   0.521062 0.800862 0.453036 -0.576701
O105  O     O_R   1.000000 0.545480 0.865790 -0.587627
O106  O     O_3   0.498496 0.199659 0.551090 -0.597901
O107  O     O_3   0.298857 0.977013 0.955424 -0.584179
O108  O     O_3   0.699131 0.992692 0.051564 -0.590903
O109  O     O_3   0.985434 0.699545 0.952381 -0.587876
O110  O     O_3   0.993056 0.300110 0.047799 -0.589894
O111  O     O_3   0.700400 0.018292 0.954115 -0.577802
O112  O     O_3   0.300720 0.001084 0.053278 -0.590592
O113  O     O_3   0.023401 0.301201 0.951050 -0.578798
O114  O     O_3   0.016959 0.699337 0.048947 -0.583783
O115  O     O_3   0.191223 0.246395 0.165097 -0.561216
O116  O     O_R   0.454520 0.000000 0.134210 -0.590051
O117  O     O_3   0.842361 0.793855 0.780003 -0.579663
O118  O     O_3   0.246958 0.807918 0.167336 -0.562492
O119  O     O_3   0.791674 0.162648 0.782000 -0.582698
O120  O     O_3   0.801689 0.747230 0.161736 -0.561328
O121  O     O_3   0.161340 0.208115 0.783803 -0.579035
O122  O     O_3   0.754283 0.190889 0.167424 -0.559743
O123  O     O_3   0.211431 0.830862 0.791439 -0.585280
O124  O     O_3   0.805013 0.246791 0.832235 -0.562326
O125  O     O_3   0.159458 0.792279 0.215084 -0.587150
O126  O     O_3   0.756929 0.808652 0.828806 -0.562668
O127  O     O_R   0.545480 0.000000 0.865790 -0.586241
O128  O     O_3   0.208443 0.161336 0.214032 -0.584595
O129  O     O_3   0.202342 0.743611 0.840890 -0.562615
O130  O     O_3   0.840819 0.206794 0.216792 -0.587204
O131  O     O_3   0.246557 0.195079 0.833815 -0.561576
O132  O     O_3   0.789537 0.833644 0.210452 -0.582046
O133  O     O_3   0.696798 0.752241 0.661013 -0.561079
O134  O     O_3   0.339919 0.292402 0.279437 -0.580720
O135  O     O_3   0.743989 0.310245 0.667939 -0.558436
O136  O     O_3   0.290548 0.661734 0.283807 -0.588773
O137  O     O_3   0.307133 0.252640 0.666556 -0.560633
O138  O     O_R   1.000000 0.545480 0.134210 -0.587573
O139  O     O_3   0.656402 0.706187 0.277695 -0.581337
O140  O     O_3   0.258799 0.688899 0.672762 -0.561977
O141  O     O_3   0.708615 0.336894 0.281098 -0.582006
O142  O     O_3   0.311008 0.743414 0.332844 -0.567913
O143  O     O_3   0.659466 0.292145 0.716025 -0.585912
O144  O     O_3   0.255178 0.305642 0.330547 -0.563705
O145  O     O_3   0.710371 0.666384 0.711288 -0.586912
O146  O     O_3   0.694603 0.253755 0.332620 -0.562135
O147  O     O_3   0.344672 0.705978 0.719759 -0.578464
O148  O     O_3   0.741168 0.689913 0.328396 -0.561894
Zn1   Zn    Zn3+2 0.064970 0.500000 0.293390 0.990988
Zn2   Zn    Zn3+2 0.435030 0.000000 0.206610 0.979629
Zn3   Zn    Zn3+2 0.000000 0.435030 0.793390 0.992200
Zn4   Zn    Zn3+2 0.000000 0.564970 0.206610 0.988962
Zn5   Zn    Zn3+2 0.435030 0.000000 0.793390 0.997780
Zn6   Zn    Zn3+2 0.564970 0.000000 0.206610 0.983823
Zn7   Zn    Zn3+2 0.000000 0.564970 0.793390 0.993808
Zn8   Zn    Zn3+2 0.000000 0.435030 0.206610 0.987938
Zn9   Zn    Zn3+2 0.935030 0.500000 0.706610 0.990138
Zn10  Zn    Zn3+2 0.500000 0.935030 0.293390 0.995373
Zn11  Zn    Zn3+2 0.500000 0.064970 0.706610 0.982254
Zn12  Zn    Zn3+2 0.935030 0.500000 0.293390 0.989230
Zn13  Zn    Zn3+2 0.064970 0.500000 0.706610 0.991994
Zn14  Zn    Zn3+2 0.500000 0.064970 0.293390 0.994744
Zn15  Zn    Zn3+2 0.500000 0.935030 0.706610 0.992576
Zn16  Zn    Zn3+2 0.564970 0.000000 0.793390 0.992234

loop_
_geom_bond_atom_site_label_1
_geom_bond_atom_site_label_2
_ccdc_geom_bond_type
C102  H346  S    
C257  C281  A    
C104  O114  S    
C126  C127  S    
C97   H201  S    
C218  H215  S    
C154  H61   S    
C280  C298  A    
C208  O3    S    
C321  O58   A    
C64   C201  A    
C111  H377  S    
C114  C115  S    
C260  H339  S    
C148  H45   S    
C239  O30   S    
C310  C316  A    
C291  O112  S    
C164  H82   S    
C265  C283  A    
C16   C101  S    
C237  O28   S    
C156  H64   S    
C239  H276  S    
C254  H320  S    
C207  H185  S    
C178  H117  S    
C158  H66   S    
C13   C112  S    
C125  H405  S    
C105  O115  S    
C229  H244  S    
C265  O40   S    
C259  H336  S    
C26   C326  A    
C334  O96   A    
C234  O26   S    
C106  C107  S    
C269  O44   S    
C143  C144  S    
C318  O105  A    
O61   Zn7   S    
C237  H269  S    
C108  C109  S    
C152  H55   S    
C184  H131  S    
C39   C74   A    
C289  O101  S    
C182  C183  S    
O82   Zn13  S    
C276  C306  A    
C3    C235  S    
C243  H289  S    
C70   O21   S    
O95   Zn11  S    
O105  Zn7   S    
C12   C135  S    
C92   H46   S    
C236  O27   S    
C121  H398  S    
C25   C60   A    
C248  H303  S    
C93   O103  S    
C125  H404  S    
C159  H71   S    
C252  H315  S    
C189  H142  S    
C233  H259  S    
C36   C71   A    
C33   C69   A    
C71   O22   S    
C88   H362  S    
C29   C64   A    
C151  H51   S    
C199  C200  S    
C255  H326  S    
C126  O122  S    
O56   Zn9   S    
C129  H415  S    
C78   C101  A    
C217  O9    S    
C32   C57   A    
C226  H237  S    
C263  H349  S    
C17   C52   A    
C185  H133  S    
C7    O90   A    
O46   Zn14  S    
C9    O73   A    
C261  H343  S    
C116  O119  S    
C288  O100  S    
C92   H35   S    
C202  C203  S    
C172  H102  S    
C140  C141  S    
C173  H103  S    
C26   O124  S    
C247  H298  S    
C169  H93   S    
C206  C207  S    
C171  H97   S    
C320  O127  A    
C141  H29   S    
C244  H293  S    
C267  O42   S    
C125  H407  S    
C191  H144  S    
C256  H328  S    
O35   Zn15  S    
O24   Zn5   S    
C192  O144  S    
C187  H138  S    
C202  O147  S    
C209  H188  S    
C291  C295  A    
C214  H203  S    
C213  H199  S    
C44   O143  S    
C165  H86   S    
C115  H383  S    
C230  H248  S    
C94   H113  S    
C276  C294  A    
C175  C176  S    
C277  C295  A    
C317  O94   A    
C169  H94   S    
C278  C296  A    
C264  H351  S    
C243  O34   S    
C214  O6    S    
C144  H37   S    
C213  O5    S    
C207  H184  S    
C206  H182  S    
C98   H235  S    
C47   O145  S    
C141  H28   S    
C310  C332  A    
C236  H265  S    
C317  C328  S    
C210  H192  S    
C16   O79   A    
C50   C282  A    
O92   Zn13  S    
C115  H381  S    
C102  H354  S    
C197  H160  S    
C114  H380  S    
C70   C190  A    
O70   Zn16  S    
C232  H255  S    
C266  C284  A    
C185  O142  S    
C164  H84   S    
C5    C212  S    
C221  O14   S    
C110  H375  S    
C239  H274  S    
C45   C81   A    
O69   Zn2   S    
C242  O33   S    
C196  C197  S    
C66   O18   S    
O94   Zn8   S    
C22   C58   A    
C139  C140  S    
C40   C75   A    
C5    O68   A    
C144  H38   S    
C279  O54   S    
C55   C113  A    
C302  C306  A    
C145  H40   S    
O89   Zn14  S    
C61   C168  A    
C156  C158  S    
C130  C131  S    
C230  H250  S    
C106  H364  S    
C226  H234  S    
O127  Zn16  S    
C149  H48   S    
C243  H287  S    
C183  H128  S    
C74   O26   S    
C195  H155  S    
C133  H11   S    
C129  O123  S    
C225  O16   S    
C311  C333  A    
C8    O71   A    
C281  O102  S    
C109  H371  S    
C205  H178  S    
C245  H295  S    
C79   C81   A    
C234  H262  S    
C53   O5    S    
C308  C313  A    
C52   C79   A    
C4    O67   A    
C233  O25   S    
C195  C196  S    
C137  H19   S    
C229  O20   S    
C198  O146  S    
C155  H62   S    
C120  H394  S    
C193  C194  S    
C107  H367  S    
O83   Zn16  S    
C119  H393  S    
C153  H56   S    
C221  H225  S    
C147  H41   S    
O59   Zn10  S    
C242  H284  S    
C106  H365  S    
C198  H164  S    
C108  H369  S    
C263  H348  S    
C23   O122  S    
C251  O42   S    
C188  O143  S    
C136  C137  S    
C100  H312  S    
C249  H305  S    
C41   C76   A    
C128  H412  S    
C99   H279  S    
C132  H8    S    
C232  O23   S    
C91   H13   S    
C96   O107  S    
C204  H177  S    
C234  H261  S    
O64   Zn3   S    
C176  H110  S    
C147  C148  S    
C294  O114  S    
C143  H33   S    
C179  C334  S    
C97   H224  S    
O1    Zn1   S    
C222  O15   S    
C272  O47   S    
C23   C59   A    
C56   O8    S    
C217  H213  S    
C195  O145  S    
C99   O110  S    
C6    O89   A    
C242  H285  S    
C134  H12   S    
C280  C301  A    
C240  O31   S    
C27   C62   A    
C154  H59   S    
C257  C313  A    
C275  C292  A    
C187  H137  S    
C227  H240  S    
C272  C289  A    
C260  H338  S    
C148  H44   S    
C321  O35   A    
C170  C171  S    
C193  H151  S    
C100  H323  S    
O68   Zn7   S    
O71   Zn7   S    
C99   H268  S    
C25   O123  S    
C249  H304  S    
C9    C79   S    
C189  C191  S    
C126  H409  S    
C324  O62   A    
C161  H74   S    
C158  H69   S    
C191  H147  S    
C227  O18   S    
C24   C29   A    
C276  O51   S    
C154  H60   S    
C229  H245  S    
C31   C46   A    
C226  H236  S    
C189  H143  S    
C7    C190  S    
C184  H130  S    
C167  H92   S    
O86   Zn14  S    
C222  H229  S    
C88   H334  S    
C89   H406  S    
C83   O34   S    
C130  H4    S    
C50   C85   A    
C300  C303  A    
C170  H95   S    
C182  H125  S    
O72   Zn10  S    
C300  C327  A    
C76   C212  A    
C86   O38   S    
C254  H322  S    
C95   H146  S    
C104  H360  S    
C279  C302  A    
C122  H400  S    
C174  H106  S    
C283  C286  A    
C142  H32   S    
C72   C168  A    
C166  C167  S    
C96   H179  S    
C162  H78   S    
C226  O17   S    
C252  H314  S    
C87   O98   S    
O116  Zn2   S    
C153  H58   S    
C68   C282  S    
C150  H49   S    
C297  O109  S    
C316  C333  A    
O61   Zn3   S    
C14   C124  S    
C199  H165  S    
C12   O76   A    
O79   Zn2   S    
C161  H76   S    
C82   O33   S    
C60   C157  A    
C6    C201  S    
C91   O101  S    
C177  H114  S    
C62   C179  A    
C8    O87   A    
C299  C305  A    
C196  H158  S    
C16   O81   A    
O75   Zn6   S    
C128  H413  S    
C122  H401  S    
C96   H168  S    
O96   Zn1   S    
O73   Zn8   S    
C253  H317  S    
C131  H6    S    
C205  H180  S    
C88   H373  S    
C238  O29   S    
C43   C223  A    
C28   C63   A    
C92   O102  S    
C258  H331  S    
C177  H116  S    
C247  H299  S    
C323  O60   A    
C87   H223  S    
C2    C38   A    
C94   O104  S    
C20   C271  A    
C9    O88   A    
C322  O46   A    
C91   H24   S    
C120  H396  S    
O138  Zn4   S    
C264  H352  S    
C209  C210  S    
C221  H227  S    
C11   O86   A    
C94   H101  S    
C118  H390  S    
C20   O119  S    
C187  H139  S    
C228  H241  S    
C139  O126  S    
C241  H281  S    
C268  C286  A    
C87   H1    S    
O76   Zn3   S    
C75   C246  A    
C73   O25   S    
C334  O63   A    
C69   O20   S    
O74   Zn5   S    
C32   C67   A    
C336  O65   A    
C137  H18   S    
C85   O37   S    
C115  H382  S    
C98   H246  S    
C251  H310  S    
C324  C331  S    
C160  H73   S    
C155  C156  S    
C120  C121  S    
C19   C54   A    
C129  C130  S    
C220  H220  S    
C254  O45   S    
C93   H79   S    
C322  C333  S    
C72   O23   S    
C42   O141  S    
C218  H216  S    
C103  H357  S    
C254  H321  S    
C117  H388  S    
C231  H253  S    
C210  H191  S    
C240  H280  S    
C49   C315  A    
C227  H238  S    
C245  O37   S    
C15   O80   A    
C253  O44   S    
C11   C146  S    
C232  H254  S    
C58   C135  A    
C216  O8    S    
C63   C190  A    
C1    C17   A    
C279  C297  A    
C48   C83   A    
C80   O31   S    
C38   O136  S    
C220  O12   S    
C186  C187  S    
C168  C335  S    
C158  H67   S    
C191  H145  S    
C46   C304  S    
C117  C118  S    
C139  H23   S    
C138  H20   S    
C22   C293  A    
C1    C45   A    
C156  H65   S    
C30   O129  S    
C256  H329  S    
C92   H57   S    
C213  H197  S    
C263  O54   S    
O84   Zn12  S    
C247  O38   S    
C262  H347  S    
C278  C299  A    
O72   Zn14  S    
C35   C41   A    
C258  O49   S    
C197  H162  S    
O1    Zn8   S    
C30   C65   A    
C145  O129  S    
C211  H196  S    
C194  H152  S    
C250  H307  S    
C104  H359  S    
C152  C153  S    
C267  C285  A    
C1    C24   S    
C305  C327  A    
C204  H175  S    
C121  H397  S    
C150  C151  S    
C298  O110  S    
C55   O7    S    
C64   O16   S    
C74   C235  A    
C14   O77   A    
C12   O82   A    
C252  H316  S    
C138  H21   S    
C240  H277  S    
C33   C68   A    
C149  O130  S    
C140  H27   S    
C155  H63   S    
O2    Zn3   S    
C237  H267  S    
C200  H169  S    
C31   C66   A    
C292  C298  A    
C313  C331  A    
O83   Zn11  S    
C274  C303  A    
C99   H290  S    
O57   Zn1   S    
C336  O93   A    
C185  H132  S    
C123  H402  S    
C309  C331  A    
C261  H342  S    
C43   C78   A    
C215  O7    S    
C253  H319  S    
C91   H2    S    
C56   C124  A    
C219  H217  S    
C26   C61   A    
C18   C112  A    
C108  O117  S    
C52   O4    S    
C169  O136  S    
O63   Zn4   S    
C123  C125  S    
C89   H384  S    
C151  H53   S    
C6    O69   A    
C261  O52   S    
C217  H210  S    
C111  H378  S    
C225  H232  S    
C134  H15   S    
C42   C46   A    
C228  H243  S    
C105  H361  S    
C241  H283  S    
C306  C328  A    
C231  H252  S    
C303  C325  A    
C65   C212  A    
C165  H85   S    
C23   C304  A    
C54   C101  A    
C18   C53   A    
C181  H121  S    
C319  C325  S    
C208  C209  S    
C4    O91   A    
C205  O148  S    
C175  H109  S    
C37   C326  A    
C320  O24   A    
C13   C28   A    
C2    C27   A    
C264  O55   S    
C39   O137  S    
C208  H187  S    
C207  H183  S    
C324  O57   A    
C34   C70   A    
C268  C309  A    
C219  H218  S    
O87   Zn9   S    
C97   H212  S    
C236  H266  S    
O67   Zn8   S    
C5    O92   A    
O97   Zn9   S    
C270  C311  A    
C260  O51   S    
C119  H392  S    
C32   O131  S    
O78   Zn16  S    
O65   Zn6   S    
C218  H214  S    
O61   Zn9   S    
C132  O124  S    
C319  O13   A    
C19   O118  S    
C142  O128  S    
C186  H134  S    
C51   C86   A    
C295  O107  S    
C285  O106  S    
C145  C147  S    
C15   O78   A    
C232  H256  S    
C228  O19   S    
C268  O43   S    
C110  H376  S    
C100  H301  S    
C307  C329  A    
C172  O137  S    
C192  H148  S    
C19   C223  A    
C27   O125  S    
C294  C297  A    
C152  H54   S    
C259  H333  S    
C159  O133  S    
O62   Zn12  S    
C319  O116  A    
C173  C174  S    
C278  O53   S    
C335  O64   A    
C81   O32   S    
C150  H50   S    
C237  H270  S    
C186  H136  S    
C262  H345  S    
C102  H335  S    
C266  C316  A    
C21   C282  A    
C214  H200  S    
O13   Zn6   S    
C149  H47   S    
C211  H194  S    
O72   Zn6   S    
C29   O128  S    
C133  H10   S    
C80   C113  A    
C44   C80   A    
C84   C157  A    
C3    O95   A    
C260  H340  S    
C121  H399  S    
C323  C330  S    
C170  H96   S    
C245  H294  S    
C283  O103  S    
C234  H263  S    
C236  H264  S    
C233  H260  S    
C238  H271  S    
C44   C271  A    
C65   O17   S    
C144  H36   S    
C284  C289  A    
C257  O39   S    
C89   O100  S    
C76   O28   S    
C129  H416  S    
O83   Zn15  S    
C133  C134  S    
O85   Zn15  S    
C250  O41   S    
O61   Zn13  S    
C252  O43   S    
C273  C290  A    
C45   O144  S    
C108  H370  S    
C127  C128  S    
C263  H350  S    
C322  O59   A    
C210  H193  S    
C178  O140  S    
C180  C181  S    
C49   C84   A    
C162  C163  S    
C95   H157  S    
C216  H207  S    
C63   O15   S    
C62   O14   S    
C271  C326  S    
C127  H410  S    
C14   O84   A    
C98   O109  S    
C100  O111  S    
C175  H108  S    
C127  H411  S    
C264  H353  S    
C51   O3    S    
C248  H300  S    
C173  H104  S    
C251  H311  S    
C275  O50   S    
C165  O135  S    
C323  O56   A    
C21   C56   A    
C178  C180  S    
C119  C120  S    
C241  O32   S    
C171  H98   S    
C141  H30   S    
C290  C296  A    
O80   Zn11  S    
C36   O134  S    
C105  C106  S    
C256  H327  S    
C82   C90   A    
C249  O40   S    
C219  H219  S    
C242  H286  S    
C188  H141  S    
C105  H363  S    
C209  H189  S    
C214  H202  S    
C239  H275  S    
C13   C34   A    
C149  C150  S    
C192  C193  S    
C166  H88   S    
O81   Zn10  S    
C185  C186  S    
C166  H87   S    
C193  H150  S    
C194  H154  S    
C11   O75   A    
C202  H172  S    
C216  H208  S    
C217  H211  S    
C111  C114  S    
C200  H167  S    
C178  H118  S    
C192  H149  S    
C274  O49   S    
C272  C310  A    
C97   O108  S    
O91   Zn12  S    
C69   C246  A    
C95   O106  S    
C123  H403  S    
C17   O115  S    
C40   C68   A    
C37   C72   A    
C53   C90   A    
C244  O36   S    
C301  C307  A    
C142  C143  S    
C317  O138  A    
C58   O9    S    
C167  H91   S    
C222  H230  S    
C134  H14   S    
C196  H159  S    
C302  C329  A    
C67   O19   S    
C215  H205  S    
O77   Zn4   S    
C182  H126  S    
C39   C57   A    
C281  C287  A    
C164  H83   S    
C104  H358  S    
C203  C204  S    
C244  H292  S    
C286  O98   S    
C165  C166  S    
C180  H120  S    
C174  H107  S    
C110  H374  S    
C169  C170  S    
C251  H313  S    
C119  O120  S    
C246  C336  S    
C163  C164  S    
C37   O135  S    
C183  C184  S    
C244  H291  S    
C48   O146  S    
C280  O55   S    
C130  H3    S    
O66   Zn5   S    
C314  C332  A    
C114  H379  S    
C75   O27   S    
C205  C206  S    
C255  H325  S    
C140  H26   S    
C256  O48   S    
C321  C332  S    
C50   O148  S    
C30   C35   A    
C109  H372  S    
C162  O134  S    
C67   C235  A    
C230  H249  S    
C285  C288  A    
C308  C330  A    
C61   O12   S    
C243  H288  S    
C195  H156  S    
C47   C82   A    
C94   H124  S    
C145  H39   S    
C128  H414  S    
C47   C112  A    
C277  C300  A    
C255  O47   S    
C122  O121  S    
C287  O99   S    
C116  C117  S    
C43   O142  S    
C85   C124  A    
C245  H296  S    
C40   O139  S    
C159  H70   S    
O93   Zn10  S    
C33   O132  S    
C258  H332  S    
C77   C224  A    
C203  H174  S    
C181  H123  S    
C320  C327  S    
C159  C160  S    
C132  C133  S    
C248  O39   S    
C107  H368  S    
C60   O11   S    
C116  H386  S    
C221  H226  S    
C229  H247  S    
C147  H42   S    
C225  H231  S    
C198  C199  S    
C228  H242  S    
C198  H163  S    
C131  H5    S    
C267  C314  A    
C177  H115  S    
C274  C291  A    
C83   C146  A    
C103  H355  S    
C136  H16   S    
C249  H306  S    
C54   O6    S    
C181  H122  S    
C299  C325  A    
C219  O11   S    
C103  H356  S    
C218  O10   S    
C318  C329  S    
C241  H282  S    
C20   C55   A    
C208  H186  S    
C247  H297  S    
C231  H251  S    
C93   H90   S    
C312  C330  A    
C95   H135  S    
C259  H337  S    
C152  O131  S    
C10   O85   A    
O90   Zn15  S    
C117  H387  S    
C290  O111  S    
C66   C224  A    
C273  C305  A    
C335  O97   A    
C215  H204  S    
C148  H43   S    
C25   C315  A    
C259  O50   S    
C4    C224  S    
C277  O52   S    
C238  H273  S    
C248  H302  S    
C87   H112  S    
C203  H173  S    
C88   O99   S    
C139  H25   S    
C220  H221  S    
C126  H408  S    
C161  H75   S    
C220  H222  S    
C116  H385  S    
C275  C307  A    
C89   H395  S    
C269  C308  A    
C86   C135  A    
C255  H324  S    
C213  H198  S    
C238  H272  S    
C155  O132  S    
C59   O10   S    
C15   C113  S    
O60   Zn13  S    
C262  O53   S    
C184  H129  S    
C167  H89   S    
C265  C312  A    
C222  H228  S    
C296  O108  S    
C225  H233  S    
C49   O147  S    
C10   C157  S    
C197  H161  S    
C183  H127  S    
C292  O113  S    
C42   C77   A    
C211  H195  S    
C41   O140  S    
C250  H308  S    
C176  C177  S    
C10   O74   A    
C231  O22   S    
C84   O36   S    
C174  H105  S    
C142  H31   S    
C204  H176  S    
C98   H257  S    
C8    C90   S    
C270  O45   S    
C96   H190  S    
C22   O121  S    
C162  H77   S    
C138  H22   S    
C240  H278  S    
C172  C173  S    
C266  O41   S    
C93   H68   S    
C35   C315  S    
C206  H181  S    
C309  C312  A    
C71   C201  A    
C111  O118  S    
C227  H239  S    
C199  H166  S    
C200  H170  S    
C163  H81   S    
C21   O120  S    
C211  O4    S    
C269  C287  A    
C270  C288  A    
C48   C304  A    
C118  H391  S    
C151  H52   S    
O72   Zn2   S    
C136  H17   S    
C215  H206  S    
C250  H309  S    
C261  H341  S    
O1    Zn4   S    
C137  C138  S    
C31   O130  S    
C175  O139  S    
C24   C36   A    
C253  H318  S    
C160  C161  S    
C172  H100  S    
C34   O133  S    
C202  H171  S    
C122  C123  S    
C143  H34   S    
C102  O112  S    
C258  H330  S    
C136  O125  S    
C171  H99   S    
O88   Zn1   S    
O1    Zn12  S    
C103  O113  S    
C107  H366  S    
C2    C223  S    
C182  O141  S    
C3    O66   A    
C160  H72   S    
C318  O2    A    
C118  H389  S    
C77   O29   S    
C188  H140  S    
C284  O104  S    
O83   Zn5   S    
C51   C293  A    
C262  H344  S    
C230  O21   S    
C57   C293  S    
C233  H258  S    
C73   C179  A    
C59   C146  A    
C78   O30   S    
C132  H9    S    
C311  C314  A    
C109  C110  S    
C180  H119  S    
C273  O48   S    
C163  H80   S    
C176  H111  S    
O58   Zn11  S    
C28   O126  S    
C153  C154  S    
C7    O70   A    
C131  H7    S    
C194  H153  S    
C38   C73   A    
C188  C189  S    
C216  H209  S    
C301  C328  A    
C18   O117  S    
