data_mof_unit_60313.cif
_audit_creation_date              2013-03-05T16:26:22-0500
_audit_creation_method            fapswitch 2.2
_symmetry_space_group_name_H-M    P1
_symmetry_Int_Tables_number       1
_space_group_crystal_system       triclinic
_cell_length_a                    28.457907
_cell_length_b                    18.366873
_cell_length_c                    18.373908
_cell_angle_alpha                 89.99976
_cell_angle_beta                  130.198309
_cell_angle_gamma                 90.000107
_cell_volume                      7335.46997062

loop_
_atom_site_label
_atom_site_type_symbol
_atom_site_description
_atom_site_fract_x
_atom_site_fract_y
_atom_site_fract_z
_atom_type_partial_charge
O1    O     O_R   0.500010 0.938760 0.394210 -0.581594
O2    O     O_R   0.499990 0.938760 0.605790 -0.581573
O3    O     O_R   0.000010 0.438760 0.394210 -0.581594
O4    O     O_R   0.999990 0.438760 0.605790 -0.581585
O5    O     O_R   0.499990 0.061230 0.394210 -0.580139
O6    O     O_R   0.500010 0.061230 0.605790 -0.580152
O7    O     O_R   0.999990 0.561230 0.394210 -0.580139
O8    O     O_R   0.000010 0.561230 0.605790 -0.580144
C1    C     C_R   0.499835 0.999978 0.359940 0.841820
C2    C     C_R   0.500165 0.999978 0.640060 0.841800
C3    C     C_R   0.999835 0.499978 0.359940 0.841819
C4    C     C_R   0.000164 0.499978 0.640060 0.841798
O9    O     O_R   0.590180 0.938760 0.590180 -0.588240
O10   O     O_R   0.409820 0.938760 0.409820 -0.588245
O11   O     O_R   0.090180 0.438760 0.590180 -0.588224
O12   O     O_R   0.909820 0.438760 0.409820 -0.588254
O13   O     O_R   0.590160 0.061230 0.590180 -0.583029
O14   O     O_R   0.409840 0.061230 0.409820 -0.583023
O15   O     O_R   0.090160 0.561230 0.590180 -0.583028
O16   O     O_R   0.909840 0.561230 0.409820 -0.583021
C5    C     C_R   0.618940 0.999869 0.620239 0.800027
C6    C     C_R   0.381060 0.999869 0.379762 0.800043
C7    C     C_R   0.118940 0.499869 0.620237 0.800029
C8    C     C_R   0.881060 0.499870 0.379761 0.800040
Cu1   Cu    Cu3+1 0.500000 0.927480 0.500000 0.953255
Cu2   Cu    Cu3+1 1.000000 0.427480 0.500000 0.953265
Cu3   Cu    Cu3+1 0.500000 0.072500 0.500000 0.976107
Cu4   Cu    Cu3+1 0.000000 0.572500 0.500000 0.976120
H1    H     H_    0.611898 0.773908 0.852264 0.170980
H2    H     H_    0.387972 0.773985 0.147440 0.170973
H3    H     H_    0.111991 0.273893 0.852402 0.170985
H4    H     H_    0.887987 0.274011 0.147443 0.170978
C9    C     C_R   0.641158 0.789552 0.771372 -0.199130
C10   C     C_R   0.358778 0.789587 0.228430 -0.199142
C11   C     C_R   0.141234 0.289526 0.771485 -0.199163
C12   C     C_R   0.858798 0.289608 0.228439 -0.199141
H5    H     H_    0.625518 0.736353 0.738422 0.149439
H6    H     H_    0.374406 0.736369 0.261329 0.149455
H7    H     H_    0.125624 0.236308 0.738584 0.149468
H8    H     H_    0.874437 0.236395 0.261348 0.149456
C13   C     C_R   0.669341 0.836149 0.749649 -0.086114
C14   C     C_R   0.330640 0.836174 0.250244 -0.086154
C15   C     C_R   0.169384 0.336131 0.749711 -0.086171
C16   C     C_R   0.830655 0.336188 0.250250 -0.086139
H9    H     H_    0.675465 0.818571 0.699964 0.135694
H10   H     H_    0.324533 0.818567 0.299941 0.135705
H11   H     H_    0.175518 0.318540 0.700042 0.135692
H12   H     H_    0.824556 0.318581 0.299954 0.135712
C17   C     C_R   0.689045 0.905404 0.791287 0.042697
C18   C     C_R   0.310948 0.905450 0.208668 0.042686
C19   C     C_R   0.189052 0.405407 0.791290 0.042726
C20   C     C_R   0.810950 0.405458 0.208661 0.042661
C21   C     C_R   0.681742 0.926967 0.856693 -0.241846
C22   C     C_R   0.318227 0.927052 0.143245 -0.241838
C23   C     C_R   0.181737 0.426991 0.856673 -0.241838
C24   C     C_R   0.818218 0.427059 0.143227 -0.241840
H13   H     H_    0.697788 0.980249 0.889410 0.177979
H14   H     H_    0.302186 0.980348 0.110570 0.178004
H15   H     H_    0.197758 0.480289 0.889346 0.177985
H16   H     H_    0.802166 0.480350 0.110542 0.178012
C25   C     C_R   0.654191 0.879899 0.880062 0.381209
C26   C     C_R   0.345731 0.879996 0.119782 0.381171
C27   C     C_R   0.154219 0.379916 0.880094 0.381218
C28   C     C_R   0.845728 0.380009 0.119768 0.381176
C29   C     C_R   0.633476 0.811190 0.836025 -0.177587
C30   C     C_R   0.366427 0.811259 0.163748 -0.177641
C31   C     C_R   0.133547 0.311181 0.836125 -0.177602
C32   C     C_R   0.866438 0.311280 0.163748 -0.177646
C33   C     C_R   0.783281 0.957739 0.832346 -0.216996
C34   C     C_R   0.216718 0.957757 0.167646 -0.217005
C35   C     C_R   0.283283 0.457740 0.832339 -0.217013
C36   C     C_R   0.716719 0.457760 0.167642 -0.217005
H17   H     H_    0.809209 0.923271 0.895132 0.159522
H18   H     H_    0.190791 0.923302 0.104847 0.159527
H19   H     H_    0.309210 0.423272 0.895126 0.159518
H20   H     H_    0.690791 0.423307 0.104842 0.159528
C37   C     C_R   0.814123 0.003407 0.814341 -0.075837
C38   C     C_R   0.185876 0.003413 0.185662 -0.075840
C39   C     C_R   0.314124 0.503411 0.814338 -0.075829
C40   C     C_R   0.685877 0.503412 0.185662 -0.075844
C41   C     C_R   0.780620 0.048105 0.732462 0.005171
C42   C     C_R   0.219381 0.048096 0.267555 0.005190
C43   C     C_R   0.280620 0.548107 0.732457 0.005176
C44   C     C_R   0.719381 0.548094 0.267556 0.005189
C45   C     C_R   0.716535 0.045947 0.670161 -0.230652
C46   C     C_R   0.283466 0.045935 0.329857 -0.230660
C47   C     C_R   0.216535 0.545948 0.670156 -0.230655
C48   C     C_R   0.783466 0.545932 0.329858 -0.230661
H21   H     H_    0.690387 0.080571 0.607518 0.151596
H22   H     H_    0.309616 0.080548 0.392510 0.151579
H23   H     H_    0.190386 0.580571 0.607512 0.151594
H24   H     H_    0.809616 0.580543 0.392513 0.151578
C49   C     C_R   0.685803 0.999572 0.687586 -0.068665
C50   C     C_R   0.314197 0.999573 0.312417 -0.068644
C51   C     C_R   0.185804 0.499573 0.687581 -0.068661
C52   C     C_R   0.814197 0.499573 0.312417 -0.068641
C53   C     C_R   0.719310 0.954538 0.768947 0.019945
C54   C     C_R   0.280689 0.954555 0.231043 0.019945
C55   C     C_R   0.219312 0.454537 0.768940 0.019945
C56   C     C_R   0.780690 0.454558 0.231039 0.019949
C57   C     C_R   0.801745 0.091626 0.627151 -0.135229
C58   C     C_R   0.198272 0.091604 0.372892 -0.135256
C59   C     C_R   0.301743 0.591616 0.627139 -0.135230
C60   C     C_R   0.698269 0.591598 0.372890 -0.135252
H25   H     H_    0.774109 0.047354 0.578357 0.128016
H26   H     H_    0.225923 0.047339 0.421689 0.128018
H27   H     H_    0.274102 0.547345 0.578347 0.128016
H28   H     H_    0.725916 0.547330 0.421684 0.128016
C61   C     C_R   0.828678 0.141006 0.605709 -0.135779
C62   C     C_R   0.171338 0.140972 0.394342 -0.135770
C63   C     C_R   0.328678 0.640987 0.605694 -0.135790
C64   C     C_R   0.671334 0.640965 0.394340 -0.135771
H29   H     H_    0.821872 0.134725 0.540892 0.132745
H30   H     H_    0.178156 0.134688 0.459169 0.132748
H31   H     H_    0.321871 0.634700 0.540876 0.132745
H32   H     H_    0.678149 0.634680 0.459165 0.132747
C65   C     C_R   0.864066 0.198720 0.667593 -0.111743
C66   C     C_R   0.135931 0.198677 0.332453 -0.111777
C67   C     C_R   0.364073 0.698698 0.667577 -0.111744
C68   C     C_R   0.635930 0.698673 0.332454 -0.111773
H33   H     H_    0.884621 0.237144 0.650674 0.129672
H34   H     H_    0.115374 0.237091 0.349377 0.129658
H35   H     H_    0.384631 0.737114 0.650657 0.129678
H36   H     H_    0.615374 0.737088 0.349378 0.129657
C69   C     C_R   0.872604 0.207109 0.751030 -0.103524
C70   C     C_R   0.127377 0.207069 0.249003 -0.103533
C71   C     C_R   0.372614 0.707094 0.751016 -0.103510
C72   C     C_R   0.627380 0.707068 0.249007 -0.103534
H37   H     H_    0.899379 0.252368 0.798126 0.142023
H38   H     H_    0.100586 0.252321 0.201901 0.141986
H39   H     H_    0.399395 0.752350 0.798112 0.142023
H40   H     H_    0.600592 0.752322 0.201907 0.141982
C73   C     C_R   0.846243 0.157453 0.773259 -0.118288
C74   C     C_R   0.153740 0.157426 0.226766 -0.118220
C75   C     C_R   0.346249 0.657448 0.773247 -0.118287
C76   C     C_R   0.653744 0.657425 0.226770 -0.118228
H41   H     H_    0.852913 0.164769 0.837888 0.121311
H42   H     H_    0.147058 0.164744 0.162126 0.121280
H43   H     H_    0.352921 0.664769 0.837878 0.121302
H44   H     H_    0.647063 0.664746 0.162133 0.121280
C77   C     C_R   0.810687 0.099261 0.711420 0.114793
C78   C     C_R   0.189314 0.099241 0.288609 0.114796
C79   C     C_R   0.310688 0.599258 0.711410 0.114793
C80   C     C_R   0.689314 0.599238 0.288610 0.114800
C81   C     C_1   0.499799 0.999908 0.282371 -0.175847
C82   C     C_1   0.500201 0.999907 0.717628 -0.175879
C83   C     C_1   0.999799 0.499908 0.282371 -0.175849
C84   C     C_1   0.000201 0.499908 0.717628 -0.175845
C85   C     C_1   0.499870 0.999861 0.217152 -0.134681
C86   C     C_1   0.500130 0.999861 0.782848 -0.134662
C87   C     C_1   0.999869 0.499861 0.217152 -0.134705
C88   C     C_1   0.000130 0.499861 0.782848 -0.134597
O17   O     O_R   0.999970 0.105830 0.061210 -0.576724
O18   O     O_R   0.000030 0.105830 0.938790 -0.576688
O19   O     O_R   0.499970 0.605830 0.061210 -0.576724
O20   O     O_R   0.500030 0.605830 0.938790 -0.576686
C89   C     C_R   1.000000 0.139916 1.000000 0.833806
C90   C     C_R   0.500000 0.639916 0.000000 0.833801
O21   O     O_R   0.909810 0.000030 0.971060 -0.586989
O22   O     O_R   0.090190 0.000030 0.028940 -0.586992
O23   O     O_R   0.409810 0.500030 0.971060 -0.586992
O24   O     O_R   0.590190 0.500030 0.028940 -0.586991
O25   O     O_R   0.909820 0.000000 0.848600 -0.576662
O26   O     O_R   0.090180 0.000000 0.151400 -0.576658
O27   O     O_R   0.409820 0.500000 0.848600 -0.576663
O28   O     O_R   0.590180 0.500000 0.151400 -0.576659
C91   C     C_R   0.881039 0.001799 0.881032 0.787546
C92   C     C_R   0.118961 0.001802 0.118968 0.787536
C93   C     C_R   0.381039 0.501802 0.881032 0.787547
C94   C     C_R   0.618961 0.501802 0.118968 0.787539
Cu5   Cu    Cu3+1 0.999980 0.000040 0.072510 0.976192
Cu6   Cu    Cu3+1 0.000020 0.000040 0.927490 0.976196
Cu7   Cu    Cu3+1 0.499980 0.500040 0.072510 0.976182
Cu8   Cu    Cu3+1 0.500020 0.500040 0.927490 0.976197
O29   O     O_R   1.000000 0.894230 0.061260 -0.580951
O30   O     O_R   1.000000 0.894230 0.938740 -0.580957
O31   O     O_R   0.500000 0.394230 0.061260 -0.580952
O32   O     O_R   0.500000 0.394230 0.938740 -0.580958
C95   C     C_R   1.000000 0.860139 0.000000 0.842479
C96   C     C_R   0.500000 0.360139 0.000000 0.842482
O33   O     O_R   0.552180 0.105790 0.052210 -0.585476
O34   O     O_R   0.447820 0.105790 0.947790 -0.585444
O35   O     O_R   0.052180 0.605790 0.052210 -0.585465
O36   O     O_R   0.947820 0.605790 0.947790 -0.585441
C97   C     C_R   0.500000 0.139724 0.000000 0.813734
C98   C     C_R   1.000000 0.639724 0.000000 0.813741
O37   O     O_R   0.552180 0.999990 0.157990 -0.606963
O38   O     O_R   0.447820 0.999990 0.842010 -0.606954
O39   O     O_R   0.052180 0.499990 0.157990 -0.606959
O40   O     O_R   0.947820 0.499990 0.842010 -0.606971
O41   O     O_R   0.447790 0.000000 0.053610 -0.510732
O42   O     O_R   0.552210 0.000000 0.946390 -0.510836
O43   O     O_R   0.947790 0.500000 0.053610 -0.510744
O44   O     O_R   0.052210 0.500000 0.946390 -0.510738
C99   C     C_R   0.499962 0.999892 0.139704 0.836977
C100  C     C_R   0.500038 0.999892 0.860296 0.837104
C101  C     C_R   0.999962 0.499892 0.139704 0.836975
C102  C     C_R   0.000038 0.499892 0.860296 0.837048
Cu9   Cu    Cu3+1 0.561800 0.999990 0.061810 1.050939
Cu10  Cu    Cu3+1 0.438200 0.999990 0.938190 1.051030
Cu11  Cu    Cu3+1 0.061800 0.499990 0.061810 1.050955
Cu12  Cu    Cu3+1 0.938200 0.499990 0.938190 1.051030
O45   O     O_R   0.552190 0.894190 0.052180 -0.558078
O46   O     O_R   0.447810 0.894190 0.947820 -0.558106
O47   O     O_R   0.052190 0.394190 0.052180 -0.558103
O48   O     O_R   0.947810 0.394190 0.947820 -0.558097
C103  C     C_R   0.500000 0.860265 0.000000 0.851240
C104  C     C_R   0.000000 0.360265 0.000000 0.851171
C105  C     C_1   0.000000 0.217437 1.000000 -0.191120
C106  C     C_1   0.500000 0.717437 1.000000 -0.191119
C107  C     C_1   0.500000 0.782737 1.000000 -0.160078
C108  C     C_1   0.000000 0.282737 1.000000 -0.160109
C109  C     C_1   1.000000 0.782588 0.000000 -0.173735
C110  C     C_1   0.500000 0.282588 0.000000 -0.173740
C111  C     C_1   0.500000 0.217279 0.000000 -0.158128
C112  C     C_1   1.000000 0.717279 0.000000 -0.158123
N1    N     N_R   0.648038 0.901325 0.948885 0.116662
O49   O     O_R   0.620821 0.858822 0.968337 -0.377444
O50   O     O_R   0.671201 0.962585 0.994811 -0.361836
N2    N     N_R   0.351857 0.901464 0.050939 0.116660
O51   O     O_R   0.378866 0.858884 0.031186 -0.377337
O52   O     O_R   0.328925 0.962879 0.005361 -0.361849
N3    N     N_R   0.148053 0.401367 0.948893 0.116635
O53   O     O_R   0.120989 0.358792 0.968553 -0.377397
O54   O     O_R   0.171004 0.462758 0.994527 -0.361848
N4    N     N_R   0.851843 0.401475 0.050915 0.116663
O55   O     O_R   0.878862 0.358899 0.031173 -0.377336
O56   O     O_R   0.828887 0.462878 0.005309 -0.361851

loop_
_geom_bond_atom_site_label_1
_geom_bond_atom_site_label_2
_geom_bond_distance
_ccdc_geom_bond_type
C90   C106  1.423817 S    
C44   C80   1.480370 S    
C43   C47   1.393927 A    
Cu5   Cu6   2.665319 S    
C48   C52   1.397962 A    
C89   C105  1.423817 S    
C23   H15   1.083159 S    
C34   C38   1.399337 A    
Cu11  Cu12  2.686641 S    
C87   C101  1.424712 S    
C33   C37   1.399353 A    
N3    O53   1.301654 A    
C10   C14   1.395812 A    
C40   C94   1.454813 S    
C73   H41   1.083176 S    
C36   H20   1.085023 S    
Cu2   Cu4   2.663566 S    
C10   C30   1.397214 A    
C28   N4    1.438900 S    
C9    C29   1.397186 A    
C35   H19   1.085019 S    
Cu7   Cu8   2.665319 S    
C75   H43   1.083172 S    
O20   Cu8   1.954076 S    
C18   C22   1.402396 A    
O21   Cu5   1.970974 S    
O43   C101  1.294191 A    
N3    O54   1.301572 A    
O42   C100  1.294190 A    
C63   C67   1.397340 A    
C25   N1    1.438898 S    
C47   H23   1.085039 S    
C72   C76   1.398881 A    
C67   C71   1.397222 A    
C14   H10   1.083238 S    
C51   C55   1.409985 A    
O47   C104  1.294293 A    
C64   H32   1.082320 S    
O38   Cu10  1.955114 S    
C57   C61   1.398204 A    
C105  C108  1.199349 T    
C59   C63   1.398193 A    
C66   H34   1.082383 S    
O42   Cu9   1.955711 S    
C1    C81   1.424569 S    
C65   H33   1.082384 S    
O38   C100  1.294852 A    
O39   C101  1.294850 A    
C46   C50   1.397964 A    
O5    Cu3   1.954586 S    
C68   H36   1.082386 S    
C76   H44   1.083176 S    
C45   H21   1.085041 S    
O30   C95   1.288022 A    
Cu5   O29   1.954399 S    
O16   C8    1.289201 A    
O36   C98   1.294174 A    
C98   C112  1.424445 S    
C23   C27   1.407483 A    
C34   H18   1.085024 S    
C65   C69   1.397225 A    
C24   C28   1.407491 A    
C33   H17   1.085020 S    
Cu7   O31   1.954399 S    
O8    C4    1.287851 A    
O4    C4    1.287142 A    
C11   C15   1.395800 A    
Cu8   O32   1.954397 S    
O40   C102  1.294853 A    
C61   H29   1.082320 S    
H4    C32   1.082380 S    
O23   C93   1.288171 A    
H3    C31   1.082377 S    
O19   Cu7   1.954075 S    
C75   C79   1.404665 A    
Cu9   Cu10  2.686641 S    
O12   C8    1.284966 A    
C82   C86   1.199635 T    
O19   C90   1.287658 A    
C103  C107  1.423943 S    
C6    C50   1.453415 S    
O9    Cu1   1.971121 S    
C45   C49   1.397962 A    
Cu9   O45   1.954411 S    
C72   H40   1.081336 S    
C13   C17   1.401393 A    
N2    O51   1.301633 A    
C10   H6    1.082382 S    
O7    C3    1.287852 A    
O41   C99   1.294191 A    
O27   C93   1.287274 A    
C35   C39   1.399328 A    
C27   C31   1.406788 A    
C18   C54   1.476810 S    
C57   H25   1.083198 S    
O36   Cu12  1.954434 S    
C26   C30   1.406813 A    
O9    C5    1.284968 A    
C40   C44   1.412357 A    
O35   Cu11  1.954433 S    
O1    C1    1.287140 A    
C27   N3    1.438860 S    
C12   H8    1.082367 S    
O34   Cu10  1.954434 S    
O41   Cu10  1.955709 S    
O18   C89   1.287660 A    
C46   H22   1.085042 S    
O35   C98   1.294176 A    
C60   C64   1.398207 A    
C70   H38   1.081337 S    
O33   C97   1.294176 A    
C110  C111  1.199533 T    
O40   Cu12  1.955114 S    
O11   Cu2   1.971121 S    
O29   C95   1.288020 A    
O16   Cu4   1.970674 S    
O39   Cu11  1.955115 S    
O27   Cu8   1.971565 S    
C42   C46   1.393930 A    
O44   Cu11  1.955711 S    
C35   C55   1.391792 A    
C20   C56   1.476808 S    
O13   C5    1.289202 A    
O43   Cu12  1.955709 S    
C24   H16   1.083165 S    
O37   Cu9   1.955115 S    
O34   C97   1.294174 A    
O13   Cu3   1.970671 S    
C61   C65   1.397350 A    
C11   H7    1.082365 S    
O5    C1    1.287852 A    
O15   Cu4   1.970671 S    
C34   C54   1.391795 A    
Cu10  O46   1.954410 S    
C74   C78   1.404681 A    
C19   C55   1.476786 S    
O23   Cu7   1.970974 S    
C38   C42   1.412359 A    
C49   C53   1.409993 A    
O32   C96   1.288022 A    
O6    Cu3   1.954583 S    
O24   C94   1.288170 A    
O46   C103  1.294291 A    
C11   C31   1.397177 A    
O25   C91   1.287287 A    
C104  C108  1.423943 S    
O31   C96   1.288020 A    
C41   C77   1.480360 S    
C43   C79   1.480357 S    
C8    C52   1.453413 S    
C22   H14   1.083181 S    
O22   Cu6   1.970971 S    
O18   Cu6   1.954076 S    
O17   Cu5   1.954075 S    
N4    O55   1.301659 A    
C48   H24   1.085042 S    
C62   C66   1.397360 A    
C86   C100  1.424712 S    
H2    C30   1.082386 S    
C14   C18   1.401408 A    
C25   C29   1.406789 A    
O45   C103  1.294293 A    
O26   C92   1.287281 A    
C2    C82   1.424569 S    
O28   C94   1.287283 A    
N4    O56   1.301607 A    
C69   H37   1.081327 S    
O10   C6    1.284966 A    
O8    Cu4   1.954583 S    
C58   C78   1.404712 A    
H1    C29   1.082376 S    
C12   C16   1.395806 A    
C37   C91   1.454808 S    
C21   C25   1.407498 A    
O2    C2    1.287142 A    
C28   C32   1.406792 A    
C33   C53   1.391805 A    
C60   H28   1.083200 S    
C3    C83   1.424571 S    
O15   C7    1.289203 A    
C64   C68   1.397357 A    
C36   C56   1.391797 A    
C109  C112  1.199533 T    
C69   C73   1.398877 A    
C59   C79   1.404712 A    
C62   H30   1.082314 S    
C47   C51   1.397959 A    
O28   Cu7   1.971561 S    
Cu11  O47   1.954411 S    
O37   C99   1.294850 A    
O14   C6    1.289201 A    
C57   C77   1.404715 A    
O3    Cu2   1.954969 S    
O25   Cu6   1.971565 S    
O14   Cu3   1.970674 S    
C84   C88   1.199633 T    
C71   C75   1.398867 A    
O12   Cu2   1.971125 S    
C21   H13   1.083163 S    
C16   C20   1.401394 A    
C74   H42   1.083174 S    
O4    Cu2   1.954969 S    
C96   C110  1.424368 S    
C68   C72   1.397223 A    
O24   Cu8   1.970971 S    
C67   H35   1.082373 S    
N1    O50   1.301740 A    
C22   C26   1.407496 A    
C38   C92   1.454808 S    
N2    O52   1.301573 A    
C88   C102  1.424712 S    
C59   H27   1.083193 S    
C9    C13   1.395797 A    
C81   C85   1.199635 T    
C39   C93   1.454799 S    
O20   C90   1.287660 A    
N1    O49   1.301690 A    
C76   C80   1.404679 A    
C16   H12   1.083230 S    
C13   H9    1.083226 S    
C4    C84   1.424569 S    
C85   C99   1.424712 S    
C39   C43   1.412350 A    
C15   C19   1.401389 A    
O44   C102  1.294191 A    
C44   C48   1.393928 A    
C5    C49   1.453422 S    
O48   C104  1.294291 A    
C58   C62   1.398203 A    
C17   C21   1.402391 A    
C83   C87   1.199633 T    
C52   C56   1.409983 A    
O11   C7    1.284970 A    
C42   C78   1.480368 S    
O21   C91   1.288161 A    
C9    H5    1.082366 S    
C58   H26   1.083202 S    
O2    Cu1   1.954969 S    
C19   C23   1.402346 A    
O22   C92   1.288172 A    
O10   Cu1   1.971125 S    
O17   C89   1.287658 A    
C37   C41   1.412346 A    
C71   H39   1.081318 S    
O3    C3    1.287140 A    
O6    C2    1.287851 A    
O7    Cu4   1.954586 S    
C17   C53   1.476826 S    
C95   C109  1.424368 S    
Cu6   O30   1.954397 S    
C97   C111  1.424445 S    
C70   C74   1.398880 A    
C36   C40   1.399339 A    
C106  C107  1.199349 T    
Cu12  O48   1.954410 S    
C50   C54   1.409985 A    
C7    C51   1.453428 S    
O26   Cu5   1.971561 S    
C63   H31   1.082319 S    
C73   C77   1.404671 A    
C66   C70   1.397220 A    
C60   C80   1.404716 A    
C15   H11   1.083217 S    
C12   C32   1.397192 A    
O1    Cu1   1.954969 S    
C41   C45   1.393916 A    
C20   C24   1.402381 A    
C26   N2    1.438920 S    
Cu1   Cu3   2.663566 S    
O33   Cu9   1.954433 S    
