data_mof_unit_57998.cif
_audit_creation_date              2012-12-11T15:54:40-0500
_audit_creation_method            fapswitch 2.2
_symmetry_space_group_name_H-M    P1
_symmetry_Int_Tables_number       1
_space_group_crystal_system       triclinic
_cell_length_a                    6.918005
_cell_length_b                    14.577726
_cell_length_c                    16.182098
_cell_angle_alpha                 89.844002
_cell_angle_beta                  90.231039
_cell_angle_gamma                 90.012953
_cell_volume                      1631.92550877

loop_
_atom_site_label
_atom_site_type_symbol
_atom_type_description
_atom_site_fract_x
_atom_site_fract_y
_atom_site_fract_z
_atom_type_partial_charge
O1    O     O_R   0.638180 0.333920 0.163320 -0.531886
O2    O     O_R   0.361820 0.666080 0.836680 -0.531886
O3    O     O_R   0.308470 0.344960 0.336080 -0.533141
O4    O     O_R   0.691530 0.655040 0.663920 -0.533141
O5    O     O_R   0.138140 0.166110 0.336680 -0.560466
O6    O     O_R   0.861860 0.833890 0.663320 -0.560466
C1    C     C_R   0.477281 0.367192 0.365015 0.812423
C2    C     C_R   0.522719 0.632808 0.634985 0.812424
O7    O     O_R   0.308460 0.344950 0.163930 -0.509935
O8    O     O_R   0.691540 0.655050 0.836070 -0.509935
O9    O     O_R   0.138140 0.166100 0.163310 -0.521918
O10   O     O_R   0.861860 0.833900 0.836690 -0.521918
C3    C     C_R   0.477103 0.366749 0.134693 0.876872
C4    C     C_R   0.522897 0.633251 0.865307 0.876871
O11   O     O_R   0.638180 0.333930 0.336700 -0.516801
O12   O     O_R   0.361820 0.666070 0.663300 -0.516802
O13   O     O_3   0.471670 0.191340 0.250000 -0.376570
O14   O     O_3   0.528330 0.808660 0.750000 -0.376570
V1    V     V_3+5 0.196830 0.260900 0.250000 1.676612
V2    V     V_3+5 0.803170 0.739100 0.750000 1.676611
O15   O     O_R   0.808420 0.155070 0.163920 -0.520023
O16   O     O_R   0.191580 0.844930 0.836080 -0.520023
C5    C     C_R   0.976724 0.132993 0.134816 0.831153
C6    C     C_R   0.023276 0.867007 0.865184 0.831154
O17   O     O_R   0.808420 0.155080 0.336070 -0.538283
O18   O     O_R   0.191580 0.844920 0.663930 -0.538283
C7    C     C_R   0.977948 0.134336 0.365733 0.686852
C8    C     C_R   0.022051 0.865664 0.634267 0.686853
V3    V     V_3+5 0.696830 0.239130 0.250000 1.661085
V4    V     V_3+5 0.303170 0.760870 0.750000 1.661084
O19   O     O_3   0.971850 0.308690 0.250010 -0.347221
O20   O     O_3   0.028150 0.691310 0.749990 -0.347221
H1    H     H_    0.744520 0.836338 0.269465 0.207866
H2    H     H_    0.255480 0.163661 0.730535 0.207866
C9    C     C_R   0.142101 0.179891 0.526882 -0.133643
C10   C     C_R   0.857899 0.820109 0.473118 -0.133643
C11   C     C_R   0.208446 0.205658 0.604974 0.360762
C12   C     C_R   0.791554 0.794341 0.395025 0.360762
C13   C     C_R   0.206933 0.143061 0.669689 -0.075836
C14   C     C_R   0.793067 0.856939 0.330311 -0.075836
C15   C     C_R   0.141556 0.054038 0.656769 -0.183505
C16   C     C_R   0.858444 0.945962 0.343231 -0.183505
C17   C     C_R   0.075330 0.025364 0.578207 0.049449
C18   C     C_R   0.924670 0.974636 0.421793 0.049449
C19   C     C_R   0.070599 0.090338 0.512184 0.022446
C20   C     C_R   0.929401 0.909662 0.487816 0.022446
C21   C     C_R   0.008643 0.934449 0.565840 -0.123017
C22   C     C_R   0.991357 0.065551 0.434160 -0.123017
H3    H     H_    0.144844 0.231360 0.478771 0.164170
H4    H     H_    0.855155 0.768640 0.521229 0.164170
H5    H     H_    0.139629 0.008663 0.709592 0.146340
H6    H     H_    0.860371 0.991337 0.290408 0.146339
C23   C     C_R   0.150488 0.006925 0.941738 0.213505
C24   C     C_R   0.849511 0.993075 0.058262 0.213505
C25   C     C_R   0.133942 0.072417 0.005284 0.388806
C26   C     C_R   0.866058 0.927582 0.994716 0.388806
C27   C     C_R   0.985969 0.065397 0.065323 -0.286895
C28   C     C_R   0.014031 0.934603 0.934677 -0.286895
C29   C     C_R   0.351462 0.507498 0.440554 0.275896
C30   C     C_R   0.648538 0.492502 0.559446 0.275896
C31   C     C_R   0.366106 0.572173 0.504874 0.372043
C32   C     C_R   0.633894 0.427827 0.495126 0.372043
C33   C     C_R   0.512707 0.564895 0.565798 -0.286734
C34   C     C_R   0.487293 0.435105 0.434202 -0.286734
C35   C     C_R   0.371051 0.514428 0.065640 0.340503
C36   C     C_R   0.628948 0.485572 0.934360 0.340503
C37   C     C_R   0.384365 0.579511 0.001252 0.239938
C38   C     C_R   0.615635 0.420488 0.998748 0.239939
C39   C     C_R   0.512608 0.565381 0.934553 -0.296461
C40   C     C_R   0.487392 0.434619 0.065447 -0.296461
Br1   Br    Br    0.234023 0.691102 0.009006 -0.327938
Br2   Br    Br    0.765976 0.308898 0.990994 -0.327938
Br3   Br    Br    0.295366 0.327774 0.624804 -0.405568
Br4   Br    Br    0.704634 0.672225 0.375196 -0.405568
Br5   Br    Br    0.363217 0.020224 0.865162 -0.431540
Br6   Br    Br    0.636783 0.979776 0.134838 -0.431540
Cl1   Cl    Cl    0.293691 0.167701 0.004504 -0.500673
Cl2   Cl    Cl    0.706309 0.832299 0.995496 -0.500673
Br7   Br    Br    0.146277 0.523343 0.360396 -0.267163
Br8   Br    Br    0.853722 0.476656 0.639605 -0.267163
Cl3   Cl    Cl    0.209184 0.667902 0.503081 -0.587010
Cl4   Cl    Cl    0.790816 0.332099 0.496919 -0.587010
Cl5   Cl    Cl    0.211539 0.536232 0.148285 -0.464495
Cl6   Cl    Cl    0.788461 0.463768 0.851715 -0.464495

loop_
_geom_bond_atom_site_label_1
_geom_bond_atom_site_label_2
_ccdc_geom_bond_type
C7    C22   S    
C36   C38   A    
C8    C21   S    
O13   V3    S    
O4    C2    A    
V1    O19   S    
C13   C15   A    
O9    V1    S    
C29   C34   A    
C30   C33   A    
C12   C14   A    
O3    C1    A    
C12   Br4   S    
C25   Cl1   S    
C35   Cl5   S    
C36   C39   A    
C3    C40   S    
O12   V4    S    
C35   C40   A    
C26   Cl2   S    
C30   C32   A    
C31   C33   A    
O7    C3    A    
C32   C34   A    
O5    C7    A    
O7    V1    S    
O6    C8    A    
O8    V2    S    
C35   C37   A    
C9    H3    S    
O3    V1    S    
O14   V4    S    
C37   Br1   S    
C1    O11   A    
C32   Cl4   S    
C2    O12   A    
C15   C17   A    
C23   Br5   S    
C16   C18   A    
C18   C20   A    
O11   V3    S    
C23   C25   A    
O15   C5    A    
O17   V3    S    
C11   C13   A    
C24   C26   A    
C29   C31   A    
H1    C14   S    
H2    C13   S    
O8    C4    A    
C29   Br7   S    
O15   V3    S    
C37   C39   A    
C38   Br2   S    
O10   V2    S    
O1    V3    S    
C10   C20   A    
C17   C19   A    
C24   Br6   S    
C38   C40   A    
O18   V4    S    
C25   C27   A    
C4    C39   S    
O16   C6    A    
O1    C3    A    
C9    C19   A    
C10   H4    S    
V2    O20   S    
C19   C22   A    
C5    C27   S    
C11   Br3   S    
C20   C21   A    
C30   Br8   S    
O16   V4    S    
C9    C11   A    
C14   C16   A    
C23   C28   A    
O5    V1    S    
O17   C7    A    
O6    V2    S    
O10   C6    A    
O18   C8    A    
O2    V4    S    
C10   C12   A    
V3    O19   S    
C31   Cl3   S    
V4    O20   S    
O9    C5    A    
O13   V1    S    
C26   C28   A    
O14   V2    S    
O2    C4    A    
C1    C34   S    
C2    C33   S    
C36   Cl6   S    
O4    V2    S    
C6    C28   S    
C17   C21   A    
C15   H5    S    
C18   C22   A    
C16   H6    S    
C24   C27   A    
