data_mof_unit_10011.cif
_audit_creation_date              2012-12-10T17:07:13-0500
_audit_creation_method            fapswitch 2.2
_symmetry_space_group_name_H-M    P1
_symmetry_Int_Tables_number       1
_space_group_crystal_system       triclinic
_cell_length_a                    10.109074
_cell_length_b                    10.633356
_cell_length_c                    13.622407
_cell_angle_alpha                 90.578952
_cell_angle_beta                  82.914764
_cell_angle_gamma                 92.884452
_cell_volume                      1451.28443865

loop_
_atom_site_label
_atom_site_type_symbol
_atom_type_description
_atom_site_fract_x
_atom_site_fract_y
_atom_site_fract_z
_atom_type_partial_charge
C1    C     C_R   0.504242 0.737287 0.496518 0.850150
C2    C     C_1   0.457759 0.500264 0.789119 -0.141859
C3    C     C_2   0.581365 0.069465 0.564593 0.326288
C4    C     C_2   0.477432 0.134056 0.542873 0.299280
C5    C     C_2   0.560434 0.931963 0.569271 0.216505
C6    C     C_2   0.518784 0.871904 0.490386 0.366531
C7    C     C_2   0.082669 0.449450 0.430034 0.498154
C8    C     C_2   0.930900 0.425512 0.444420 0.543455
C9    C     C_R   0.475988 0.500198 0.685408 0.888612
C10   C     C_R   0.494842 0.263262 0.510754 0.849055
C11   C     C_R   0.524054 0.499719 0.314613 0.871226
C12   C     C_1   0.542820 0.498262 0.210937 -0.166566
C13   C     C_2   0.561729 0.495307 0.017764 0.493048
C14   C     C_2   0.444881 0.500185 0.981416 0.345039
C15   C     C_1   0.446806 0.500282 0.876876 -0.060259
C16   C     C_1   0.555949 0.496777 0.123147 -0.058381
N1    N     N_2   0.147970 0.498670 0.498970 0.102404
N2    N     N_2   0.852310 0.498640 0.498940 0.053986
O1    O     O_R   0.386960 0.680940 0.500020 -0.600292
O2    O     O_R   0.613100 0.680900 0.499980 -0.613837
O3    O     O_R   0.370650 0.500000 0.640370 -0.611146
O4    O     O_R   0.596800 0.499960 0.640330 -0.612391
O5    O     O_R   0.386900 0.319100 0.500020 -0.600041
O6    O     O_R   0.613040 0.319060 0.499980 -0.549250
O7    O     O_R   0.403200 0.500040 0.359670 -0.534465
O8    O     O_R   0.629350 0.500000 0.359630 -0.641098
Zn1   Zn    Zn3+2 0.349000 0.500030 0.500020 1.052599
Zn2   Zn    Zn3+2 0.651000 0.499970 0.499980 1.017847
O9    O     O_3   0.325919 0.505446 0.043437 -0.777970
H1    H     H_    0.252141 0.508482 0.001869 0.332508
O10   O     O_3   0.906007 0.615868 0.511141 -0.579648
C17   C     C_3   0.861679 0.656102 0.608183 0.012575
H2    H     H_    0.841064 0.577342 0.662171 0.164640
H3    H     H_    0.773618 0.713305 0.609665 0.189664
H4    H     H_    0.941653 0.718424 0.634234 0.136374
O11   O     O_3   0.680334 0.489949 0.952920 -0.625997
C18   C     C_3   0.794297 0.482502 0.002515 -0.316793
H5    H     H_    0.788135 0.395752 0.048186 0.162406
H6    H     H_    0.808841 0.568040 0.048416 0.169265
H7    H     H_    0.883340 0.477454 0.946455 0.195458
O12   O     O_3   0.700915 0.131888 0.582677 -0.611572
C19   C     C_3   0.812018 0.059493 0.551944 -0.176557
H8    H     H_    0.810525 0.023982 0.474870 0.177831
H9    H     H_    0.817981 0.980595 0.603765 0.144694
H10   H     H_    0.904175 0.120370 0.552900 0.191534
O13   O     O_3   0.350683 0.076314 0.543837 -0.577824
C20   C     C_3   0.287059 0.073942 0.642084 -0.341669
H11   H     H_    0.291748 0.168127 0.678350 0.128145
H12   H     H_    0.330854 0.003608 0.686765 0.184643
H13   H     H_    0.180195 0.045328 0.640970 0.198008
O14   O     O_3   0.578260 0.866816 0.653792 -0.833047
H14   H     H_    0.601257 0.929057 0.704472 0.344132
O15   O     O_3   0.506513 0.939280 0.404136 -0.632581
C21   C     C_3   0.480180 0.861612 0.323478 -0.266511
H15   H     H_    0.381028 0.810842 0.338555 0.192030
H16   H     H_    0.560783 0.794881 0.304287 0.129845
H17   H     H_    0.477379 0.922168 0.258022 0.199446
O16   O     O_3   0.156879 0.411477 0.344110 -0.743526
H18   H     H_    0.096236 0.389877 0.294394 0.319074
O17   O     O_3   0.081546 0.502984 0.591235 -0.547192
C22   C     C_3   0.088080 0.385382 0.637055 -0.228219
H19   H     H_    0.077064 0.399572 0.718377 0.161150
H20   H     H_    0.183395 0.339986 0.615386 0.194032
H21   H     H_    0.004356 0.321036 0.619406 0.139242
O18   O     O_3   0.878378 0.311688 0.412404 -0.619171
C23   C     C_3   0.846687 0.321589 0.314676 -0.278001
H22   H     H_    0.910861 0.259476 0.265600 0.162050
H23   H     H_    0.857879 0.418694 0.283326 0.129966
H24   H     H_    0.742123 0.285746 0.312565 0.212976

loop_
_geom_bond_atom_site_label_1
_geom_bond_atom_site_label_2
_ccdc_geom_bond_type
C22   H21   S    
C23   H23   S    
C11   C12   S    
O15   C21   S    
O9    H1    S    
O5    Zn1   S    
C10   O5    A    
O7    Zn1   S    
O1    Zn1   S    
O12   C19   S    
C7    O16   S    
O8    Zn2   S    
C20   H11   S    
C14   C15   S    
C17   H2    S    
C23   H22   S    
O3    Zn1   S    
C8    O18   S    
C20   H12   S    
O4    Zn2   S    
C13   C14   D    
C2    C15   T    
C17   H3    S    
C9    O3    A    
C18   H5    S    
C19   H9    S    
O17   C22   S    
C5    C6    D    
O11   C18   S    
N1    O17   S    
C20   H13   S    
C22   H19   S    
C21   H16   S    
C9    O4    A    
C1    O1    A    
C23   H24   S    
C3    O12   S    
C19   H8    S    
C11   O7    A    
C6    O15   S    
C4    C10   S    
C18   H7    S    
N1    Zn1   S    
C17   H4    S    
C12   C16   T    
C7    C8    S    
N2    Zn2   S    
C13   O11   S    
C18   H6    S    
O18   C23   S    
C13   C16   S    
C1    C6    S    
C22   H20   S    
C21   H15   S    
C5    O14   S    
C1    O2    A    
C4    O13   S    
N2    O10   S    
O2    Zn2   S    
C11   O8    A    
C10   O6    A    
O16   H18   S    
O13   C20   S    
C2    C9    S    
C21   H17   S    
O10   C17   S    
C8    N2    D    
C3    C4    D    
O14   H14   S    
O6    Zn2   S    
C14   O9    S    
C3    C5    S    
C19   H10   S    
C7    N1    D    
