data_mof_unit_7601.cif
_audit_creation_date              2012-10-26T18:27:31-0400
_audit_creation_method            fapswitch 2.2
_symmetry_space_group_name_H-M    P1
_symmetry_Int_Tables_number       1
_space_group_crystal_system       triclinic
_cell_length_a                    10.778697
_cell_length_b                    10.861644
_cell_length_c                    9.826556
_cell_angle_alpha                 109.471887
_cell_angle_beta                  99.26788
_cell_angle_gamma                 91.30023
_cell_volume                      1066.8678383

loop_
_atom_site_label
_atom_site_type_symbol
_atom_type_description
_atom_site_fract_x
_atom_site_fract_y
_atom_site_fract_z
_atom_type_partial_charge
C1    C     C_R   0.492873 0.253472 0.442488 0.528273
C2    C     C_2   0.416621 0.930926 0.489704 -0.033412
C3    C     C_2   0.517700 0.510320 0.084637 0.545345
C4    C     C_R   0.262014 0.489911 0.497217 0.512566
C5    C     C_2   0.538901 0.467538 0.925936 0.145763
C6    C     C_R   0.500669 0.745623 0.557005 0.555615
C7    C     C_R   0.737205 0.501120 0.500616 0.526243
C8    C     C_R   0.090790 0.240060 0.373286 -0.004001
C9    C     C_R   0.019770 0.127029 0.364484 -0.102786
C10   C     C_R   0.900582 0.135049 0.401253 -0.075181
C11   C     C_R   0.849481 0.255293 0.442491 -0.068237
C12   C     C_R   0.048629 0.366683 0.440083 0.031808
C13   C     C_R   0.921850 0.371607 0.460972 0.014533
C14   C     C_2   0.153110 0.736602 0.613789 0.296434
C15   C     C_2   0.527204 0.021427 0.282286 0.213933
C16   C     C_2   0.582518 0.335325 0.863374 0.287180
C17   C     C_2   0.188126 0.215740 0.280618 0.267095
C18   C     C_2   0.315693 0.853082 0.365672 0.263998
C19   C     C_R   0.126593 0.487717 0.493074 -0.001301
C20   C     C_R   0.074488 0.609191 0.549941 -0.001861
C21   C     C_R   0.945131 0.609899 0.545897 -0.092574
C22   C     C_R   0.870101 0.493211 0.501150 -0.005454
C23   C     C_2   0.484683 0.112253 0.414333 -0.054569
C24   C     C_2   0.437040 0.069615 0.510708 -0.234070
C25   C     C_2   0.490145 0.884905 0.583647 -0.076552
Cu1   Cu    Cu3+1 0.521920 0.521810 0.644910 0.962524
Cu2   Cu    Cu3+1 0.478080 0.478190 0.355090 1.256902
F1    F     F_    0.588973 0.618760 0.179673 -0.657530
F2    F     F_    0.375136 0.339075 0.042690 -0.478743
H1    H     H_    0.537911 0.648294 0.922781 0.250970
H2    H     H_    0.645485 0.318492 0.784625 0.133017
H3    H     H_    0.251404 0.140207 0.282547 0.087239
H4    H     H_    0.278938 0.893833 0.281793 0.100680
H5    H     H_    0.052706 0.030860 0.318246 0.126250
H6    H     H_    0.844803 0.046854 0.389865 0.151533
H7    H     H_    0.754165 0.256861 0.463719 0.126733
H8    H     H_    0.902108 0.701912 0.581976 0.169994
H9    H     H_    0.410222 0.138449 0.608185 0.196075
H10   H     H_    0.551810 0.953048 0.679085 0.145092
H11   H     H_    0.254877 0.740050 0.628062 0.145915
H12   H     H_    0.523968 0.916768 0.261409 0.145178
N1    N     N_2   0.445130 0.445430 0.137370 0.095444
N2    N     N_2   0.554930 0.554500 0.862630 -0.383925
O1    O     O_R   0.511700 0.332330 0.577400 -0.555549
O2    O     O_2   0.568704 0.063124 0.196109 -0.435481
O3    O     O_2   0.556426 0.245937 0.905652 -0.439317
O4    O     O_2   0.187089 0.266883 0.187203 -0.371596
O5    O     O_2   0.268053 0.747764 0.358623 -0.480378
O6    O     O_R   0.474680 0.295500 0.332650 -0.408201
O7    O     O_R   0.338160 0.518420 0.622400 -0.526178
O8    O     O_R   0.301140 0.481590 0.377650 -0.414665
O9    O     O_R   0.525320 0.704500 0.667350 -0.508782
O10   O     O_R   0.488300 0.667670 0.422600 -0.424391
O11   O     O_R   0.698860 0.518410 0.622350 -0.507856
O12   O     O_R   0.661840 0.481580 0.377600 -0.458952
O13   O     O_2   0.104815 0.840466 0.652291 -0.480789

loop_
_geom_bond_atom_site_label_1
_geom_bond_atom_site_label_2
_ccdc_geom_bond_type
C13   C22   A    
C14   O13   D    
C23   C24   D    
Cu2   O10   S    
C3    N1    D    
C10   H6    S    
Cu1   O9    S    
F2    N1    S    
C2    C18   S    
C7    C22   S    
C9    C10   A    
C1    O1    A    
C24   H9    S    
C19   C20   A    
C7    O12   A    
C8    C12   A    
C15   C23   S    
C5    N2    D    
Cu1   O1    S    
C21   C22   A    
C25   H10   S    
C16   H2    S    
C12   C13   A    
C11   C13   A    
Cu2   N1    S    
Cu1   Cu2   S    
Cu1   O11   S    
C12   C19   A    
C11   H7    S    
Cu2   O8    S    
Cu1   N2    S    
C1    C23   S    
C2    C25   D    
Cu1   O7    S    
C2    C24   S    
C9    H5    S    
C18   H4    S    
Cu2   O12   S    
H1    N2    S    
C6    C25   S    
C10   C11   A    
C15   O2    D    
C4    O8    A    
C14   H11   S    
C17   O4    D    
C21   H8    S    
C20   C21   A    
C15   H12   S    
C14   C20   S    
C16   O3    D    
C8    C17   S    
C17   H3    S    
C3    F1    S    
C5    C16   S    
C6    O10   A    
C7    O11   A    
C6    O9    A    
C4    C19   S    
C1    O6    A    
Cu2   O6    S    
C4    O7    A    
C8    C9    A    
C3    C5    S    
C18   O5    D    
