data_mof_unit_53757.cif
_audit_creation_date              2012-12-10T17:56:18-0500
_audit_creation_method            fapswitch 2.2
_symmetry_space_group_name_H-M    P1
_symmetry_Int_Tables_number       1
_space_group_crystal_system       triclinic
_cell_length_a                    12.991172
_cell_length_b                    10.847939
_cell_length_c                    9.599853
_cell_angle_alpha                 89.931432
_cell_angle_beta                  95.92687
_cell_angle_gamma                 91.808795
_cell_volume                      1344.97749189

loop_
_atom_site_label
_atom_site_type_symbol
_atom_type_description
_atom_site_fract_x
_atom_site_fract_y
_atom_site_fract_z
_atom_type_partial_charge
C1    C     C_R   0.502053 0.262471 0.499875 0.823265
C2    C     C_R   0.500394 0.737656 0.500673 0.852695
C3    C     C_R   0.501124 0.871726 0.502769 -0.152331
C4    C     C_R   0.503499 0.128491 0.498922 -0.148760
C5    C     C_R   0.424898 0.435850 0.066133 0.443662
C6    C     C_R   0.573918 0.566124 0.933545 0.473900
C7    C     C_R   0.424586 0.435493 0.917183 0.260295
C8    C     C_R   0.574911 0.565407 0.082610 0.280765
C9    C     C_R   0.300971 0.497487 0.474189 0.909834
C10   C     C_R   0.698834 0.501401 0.525901 0.841550
C11   C     C_R   0.811218 0.509142 0.540036 -0.178995
C12   C     C_R   0.188372 0.487080 0.461259 -0.111626
C13   C     C_R   0.030184 0.374512 0.379494 -0.227499
C14   C     C_R   0.968648 0.624438 0.619169 -0.280438
C15   C     C_R   0.137029 0.393228 0.377937 0.303822
C16   C     C_R   0.861493 0.607358 0.617372 0.383745
C17   C     C_R   0.134259 0.561617 0.546190 0.317252
C18   C     C_R   0.867295 0.428062 0.463572 0.325205
C19   C     C_R   0.026049 0.545276 0.543857 -0.044776
C20   C     C_R   0.974221 0.449060 0.461965 0.039630
C21   C     C_R   0.533767 0.063765 0.383287 0.455887
C22   C     C_R   0.472761 0.936617 0.619580 0.467913
C23   C     C_R   0.532784 0.935466 0.387190 -0.341766
C24   C     C_R   0.474439 0.064785 0.616019 -0.351518
Cu1   Cu    Cu3+1 0.500000 0.500020 0.640660 1.036018
Cu2   Cu    Cu3+1 0.500000 0.499980 0.359340 1.028422
H1    H     H_    0.991305 0.300750 0.316521 0.202871
H2    H     H_    0.005458 0.702824 0.675831 0.155297
H3    H     H_    0.561138 0.885582 0.302007 0.179006
H4    H     H_    0.454557 0.114761 0.706312 0.165976
N1    N     N_R   0.500030 0.500030 0.852080 -0.263328
N2    N     N_R   0.499970 0.499970 0.147920 -0.259904
O1    O     O_R   0.499990 0.319660 0.618740 -0.641806
O2    O     O_R   0.500010 0.680340 0.381260 -0.645522
O3    O     O_R   0.499990 0.319630 0.381170 -0.508555
O4    O     O_R   0.500010 0.680370 0.618830 -0.478236
O5    O     O_R   0.349000 0.499990 0.599490 -0.560146
O6    O     O_R   0.651000 0.500010 0.400510 -0.567627
O7    O     O_R   0.348990 0.499960 0.361920 -0.510742
O8    O     O_R   0.651010 0.500040 0.638080 -0.503586
O9    O     O_3   0.820134 0.328598 0.389111 -0.702802
H5    H     H_    0.754288 0.305101 0.427042 0.335476
O10   O     O_3   0.189394 0.649856 0.629255 -0.745838
H6    H     H_    0.163004 0.647942 0.722407 0.329672
O11   O     O_3   0.803619 0.688891 0.684860 -0.683464
H7    H     H_    0.850364 0.752547 0.733996 0.325592
O12   O     O_3   0.193583 0.316523 0.302434 -0.695377
H8    H     H_    0.146120 0.255100 0.250581 0.323463
O13   O     O_3   0.579581 0.125635 0.278195 -0.556147
C25   C     C_3   0.517833 0.109519 0.149165 0.087867
H9    H     H_    0.440788 0.150252 0.154229 0.173209
H10   H     H_    0.506554 0.010627 0.119126 0.131598
C26   C     C_3   0.571700 0.174563 0.035065 -0.689532
H11   H     H_    0.643381 0.126299 0.017475 0.251157
H12   H     H_    0.519475 0.174442 0.936169 0.184136
H13   H     H_    0.592703 0.271355 0.066076 0.244594
O14   O     O_3   0.456386 0.875435 0.742638 -0.547439
C27   C     C_3   0.353610 0.889573 0.773817 0.071032
H14   H     H_    0.297040 0.866424 0.681541 0.177139
H15   H     H_    0.341854 0.985293 0.808887 0.129353
C28   C     C_3   0.332638 0.802625 0.892873 -0.723961
H16   H     H_    0.251741 0.811582 0.918286 0.193654
H17   H     H_    0.344031 0.705790 0.861875 0.270376
H18   H     H_    0.386399 0.825561 0.987549 0.224944
O15   O     O_3   0.352415 0.368464 0.132117 -0.645998
H19   H     H_    0.304478 0.322192 0.062824 0.353554
O16   O     O_3   0.644810 0.635896 0.867119 -0.617679
H20   H     H_    0.691037 0.684661 0.936118 0.361860
O17   O     O_3   0.344841 0.371210 0.841261 -0.745406
H21   H     H_    0.371795 0.334987 0.759511 0.368059
O18   O     O_3   0.654908 0.629451 0.158310 -0.726179
H22   H     H_    0.628588 0.664401 0.241180 0.373241

loop_
_geom_bond_atom_site_label_1
_geom_bond_atom_site_label_2
_ccdc_geom_bond_type
C16   O11   S    
Cu1   N1    S    
C28   H18   S    
C25   H10   S    
O10   H6    S    
C17   O10   S    
C11   C18   A    
Cu2   N2    S    
C6    N1    A    
O9    H5    S    
C3    C23   A    
C19   C20   A    
C12   C15   A    
C15   O12   S    
C10   O6    A    
C1    C4    S    
Cu1   O5    S    
C2    O2    A    
C22   O14   S    
C26   H12   S    
C2    C3    S    
Cu1   Cu2   S    
C1    O1    A    
O18   H22   S    
Cu1   O8    S    
C5    N2    A    
O11   H7    S    
C12   C17   A    
C4    C21   A    
O14   C27   S    
O17   H21   S    
C27   C28   S    
C8    O18   S    
C23   H3    S    
C22   C24   A    
C21   O13   S    
C6    O16   S    
C17   C19   A    
C25   H9    S    
C18   C20   A    
C21   C23   A    
C13   C15   A    
C28   H16   S    
C4    C24   A    
C9    C12   S    
C14   C16   A    
Cu2   O7    S    
C18   O9    S    
C24   H4    S    
C7    N1    A    
C10   C11   S    
Cu1   O4    S    
C27   H15   S    
O16   H20   S    
C8    N2    A    
Cu2   O3    S    
C9    O7    A    
C1    O3    A    
C5    O15   S    
O13   C25   S    
C11   C16   A    
C26   H13   S    
C2    O4    A    
C5    C7    A    
C14   C19   A    
Cu2   O6    S    
C10   O8    A    
C6    C8    A    
C13   C20   A    
C14   H2    S    
C27   H14   S    
C26   H11   S    
C7    O17   S    
Cu2   O2    S    
C28   H17   S    
C13   H1    S    
O12   H8    S    
Cu1   O1    S    
C25   C26   S    
C3    C22   A    
C9    O5    A    
O15   H19   S    
