data_mof_unit_37380.cif
_audit_creation_date              2012-12-11T15:54:07-0500
_audit_creation_method            fapswitch 2.2
_symmetry_space_group_name_H-M    P1
_symmetry_Int_Tables_number       1
_space_group_crystal_system       triclinic
_cell_length_a                    10.658881
_cell_length_b                    10.704905
_cell_length_c                    17.012236
_cell_angle_alpha                 80.531111
_cell_angle_beta                  99.553181
_cell_angle_gamma                 118.992495
_cell_volume                      1666.36039177

loop_
_atom_site_label
_atom_site_type_symbol
_atom_type_description
_atom_site_fract_x
_atom_site_fract_y
_atom_site_fract_z
_atom_type_partial_charge
C1    C     C_R   0.385040 0.285048 0.631959 0.526438
C2    C     C_1   0.334038 0.187982 0.781709 -0.019949
C3    C     C_1   0.318918 0.682265 0.280115 0.055543
C4    C     C_R   0.414061 0.622530 0.602348 0.529181
C5    C     C_1   0.297624 0.706261 0.209554 0.025447
C6    C     C_R   0.796004 0.648190 0.148772 -0.004183
C7    C     C_R   0.769310 0.519141 0.196130 -0.007834
C8    C     C_R   0.737716 0.499019 0.273459 -0.064084
C9    C     C_R   0.716493 0.716458 0.252786 -0.079125
C10   C     C_R   0.756310 0.741395 0.174725 0.378742
C11   C     C_3   0.858285 0.441950 0.217305 0.357040
C12   C     C_R   0.517872 0.724876 0.737701 -0.022658
C13   C     C_3   0.825209 0.421352 0.303132 -0.056984
C14   C     C_R   0.720863 0.601467 0.305178 -0.038823
C15   C     C_R   0.336868 0.178777 0.156940 -0.011464
C16   C     C_R   0.778256 0.619568 0.626551 0.555979
C17   C     C_R   0.262129 0.241413 0.180091 -0.107908
C18   C     C_R   0.265884 0.252612 0.259403 -0.018095
C19   C     C_R   0.436436 0.161132 0.294789 -0.127892
C20   C     C_R   0.435780 0.151594 0.214196 0.374330
C21   C     C_3   0.107372 0.211297 0.163902 0.366799
C22   C     C_3   0.113213 0.224932 0.251651 0.770785
C23   C     C_R   0.494320 0.722188 0.817199 0.398226
C24   C     C_R   0.341245 0.199888 0.318047 -0.050659
C25   C     C_R   0.891707 0.701775 0.855843 0.574169
C26   C     C_R   0.316807 0.704023 0.900131 0.577320
C27   C     C_R   0.286769 0.118960 0.858466 0.538573
C28   C     C_R   0.352466 0.229755 0.398435 0.588822
C29   C     C_R   0.882621 0.688643 0.082285 0.547996
C30   C     C_R   0.284761 0.738613 0.125564 0.538434
C31   C     C_R   0.287846 0.110519 0.083950 0.546409
C32   C     C_R   0.362440 0.656851 0.361585 0.584791
C33   C     C_R   0.702595 0.583889 0.389608 0.579916
C34   C     C_3   0.092253 0.492378 0.772996 -0.100395
C35   C     C_R   0.354217 0.647008 0.840809 0.017440
C36   C     C_R   0.249376 0.539015 0.795281 -0.114457
C37   C     C_R   0.273053 0.529060 0.719666 -0.071324
C38   C     C_2   0.657469 0.841061 0.709295 0.281714
C39   C     C_2   0.959526 0.499407 0.358370 0.257234
C40   C     C_2   0.000232 0.352964 0.819805 0.288242
C41   C     C_2   0.044265 0.331378 0.662151 0.240882
C42   C     C_2   0.096493 0.591419 0.625708 0.309468
C43   C     C_3   0.117077 0.481888 0.688111 -0.001350
C44   C     C_R   0.401854 0.627675 0.686412 -0.061111
C45   C     C_1   0.825197 0.657128 0.705745 -0.028416
C46   C     C_1   0.852424 0.684712 0.773601 -0.013429
C47   C     C_1   0.365508 0.235014 0.714498 -0.022456
Cr1   Cr    Cr6+3 0.608440 0.389080 0.519680 1.077141
Cr2   Cr    Cr6+3 0.288640 0.400090 0.490760 1.089892
Cr3   Cr    Cr6+3 0.602940 0.710800 0.489510 1.065945
Cr4   Cr    Cr6+3 0.052530 0.947560 0.964210 1.147031
Cr5   Cr    Cr6+3 0.059970 0.626800 0.992920 1.168810
Cr6   Cr    Cr6+3 0.373320 0.938440 0.995370 1.204511
F1    F     F_    0.794520 0.314005 0.182763 -0.493882
F2    F     F_    0.517782 0.098259 0.194670 -0.540985
F3    F     F_    0.093575 0.320964 0.114149 -0.550734
F4    F     F_    0.101407 0.342102 0.265995 -0.580665
F5    F     F_    0.023563 0.097988 0.293677 -0.592949
F6    F     F_    0.604317 0.806314 0.868856 -0.548544
F7    F     F_    0.768447 0.861914 0.128335 -0.563972
H1    H     H_    0.758354 0.307324 0.325185 0.157936
H2    H     H_    0.080358 0.254537 0.691191 0.130032
H3    H     H_    0.036244 0.559984 0.568045 0.175866
H4    H     H_    0.506400 0.132641 0.338980 0.164016
H5    H     H_    0.029273 0.102229 0.146533 0.189104
H6    H     H_    0.063806 0.578308 0.776622 0.179080
H7    H     H_    0.693805 0.792885 0.273823 0.201434
H8    H     H_    0.974081 0.509803 0.207594 0.174576
H9    H     H_    0.691043 0.843611 0.652923 0.153257
H10   H     H_    0.994480 0.438109 0.405484 0.156882
H11   H     H_    0.028835 0.266687 0.830709 0.140982
O1    O     O_R   0.754020 0.497590 0.609930 -0.483759
O2    O     O_R   0.406180 0.826930 0.920660 -0.417925
O3    O     O_R   0.358620 0.062870 0.901950 -0.476583
O4    O     O_R   0.481420 0.271390 0.600630 -0.448935
O5    O     O_R   0.163910 0.085460 0.050210 -0.518700
O6    O     O_R   0.935200 0.815170 0.045770 -0.436221
O7    O     O_R   0.916120 0.596690 0.069430 -0.499475
O8    O     O_R   0.192310 0.631200 0.086170 -0.434731
O9    O     O_R   0.406770 0.819480 0.096420 -0.419663
O10   O     O_R   0.359170 0.055960 0.064880 -0.442197
O11   O     O_3   0.161940 0.837600 0.984160 -0.349798
O12   O     O_R   0.295080 0.533620 0.397890 -0.468705
O13   O     O_R   0.263810 0.254550 0.589590 -0.495790
O14   O     O_R   0.300820 0.531200 0.560890 -0.503402
O15   O     O_R   0.491480 0.744020 0.564270 -0.501692
O16   O     O_R   0.726290 0.693800 0.583010 -0.537743
O17   O     O_R   0.747830 0.500190 0.434090 -0.498180
O18   O     O_R   0.475680 0.273800 0.437630 -0.527568
O19   O     O_R   0.257620 0.257160 0.413750 -0.430982
O20   O     O_2   0.738846 0.940678 0.749021 -0.403684
O21   O     O_2   0.030775 0.630029 0.350114 -0.512271
O22   O     O_2   0.892545 0.336026 0.845897 -0.422257
O23   O     O_R   0.485280 0.746620 0.388440 -0.509464
O24   O     O_2   0.942515 0.293068 0.610352 -0.497096
O25   O     O_2   0.149078 0.716849 0.638742 -0.502730
O26   O     O_R   0.720550 0.696220 0.420010 -0.463943
O27   O     O_3   0.500010 0.499990 0.499980 -0.350428
O28   O     O_R   0.163320 0.092900 0.874450 -0.517887
O29   O     O_R   0.934650 0.822080 0.882840 -0.440329
O30   O     O_R   0.915520 0.604140 0.893670 -0.476800
O31   O     O_R   0.191760 0.638110 0.923230 -0.503149

loop_
_geom_bond_atom_site_label_1
_geom_bond_atom_site_label_2
_ccdc_geom_bond_type
C32   O23   A    
C8    C13   S    
C40   H11   S    
Cr6   O3    S    
C16   O1    A    
C40   O22   D    
C34   H6    S    
C14   C33   S    
C9    H7    S    
C7    C8    A    
C45   C46   T    
C1    O13   A    
C23   F6    S    
C12   C23   A    
Cr5   O31   S    
C34   C40   S    
Cr2   O13   S    
C36   C37   A    
C33   O17   A    
Cr1   O1    S    
C4    O15   A    
C26   O2    A    
Cr6   O10   S    
Cr2   O27   S    
C29   O7    A    
C19   C20   A    
C16   O16   A    
Cr1   O17   S    
C28   O18   A    
C18   C24   A    
Cr5   O8    S    
C9    C10   A    
Cr2   O19   S    
C34   C36   S    
C30   O9    A    
C38   H9    S    
C21   C22   S    
C41   C43   S    
Cr1   O4    S    
C41   H2    S    
C22   F4    S    
C20   F2    S    
Cr5   O7    S    
C1    C47   S    
C7    C11   S    
Cr4   O28   S    
C15   C20   A    
Cr5   O30   S    
Cr3   O27   S    
C1    O4    A    
Cr2   O14   S    
Cr6   O9    S    
Cr4   O5    S    
Cr3   O23   S    
C4    O14   A    
C4    C44   S    
C38   O20   D    
C17   C21   S    
Cr6   O11   S    
C35   C36   A    
C37   C43   S    
C10   F7    S    
C9    C14   A    
Cr4   O6    S    
C6    C10   A    
C25   O29   A    
C19   H4    S    
C27   O28   A    
C17   C18   A    
C13   H1    S    
Cr5   O11   S    
Cr4   O11   S    
C2    C27   S    
C11   F1    S    
Cr3   O16   S    
C30   O8    A    
C23   C35   A    
Cr1   O18   S    
C42   O25   D    
C42   C43   S    
C27   O3    A    
C39   O21   D    
C11   H8    S    
C5    C30   S    
Cr4   O29   S    
C15   C17   A    
C32   O12   A    
Cr3   O26   S    
C8    C14   A    
C21   H5    S    
C18   C22   S    
Cr6   O2    S    
C34   C43   S    
C24   C28   S    
C3    C5    T    
C16   C45   S    
C22   F5    S    
C21   F3    S    
C15   C31   S    
C6    C7    A    
C2    C47   T    
Cr1   O27   S    
C31   O10   A    
Cr2   O12   S    
C37   C44   A    
C19   C24   A    
C12   C44   A    
C26   O31   A    
C11   C13   S    
C25   O30   A    
C31   O5    A    
C41   O24   D    
C42   H3    S    
C39   H10   S    
C33   O26   A    
C12   C38   S    
C3    C32   S    
C13   C39   S    
Cr3   O15   S    
C26   C35   S    
C6    C29   S    
C29   O6    A    
C28   O19   A    
C25   C46   S    
