data_mof_unit_36226.cif
_audit_creation_date              2012-12-10T18:42:29-0500
_audit_creation_method            fapswitch 2.2
_symmetry_space_group_name_H-M    P1
_symmetry_Int_Tables_number       1
_space_group_crystal_system       triclinic
_cell_length_a                    8.665499
_cell_length_b                    10.648853
_cell_length_c                    9.959937
_cell_angle_alpha                 90.396276
_cell_angle_beta                  98.735249
_cell_angle_gamma                 92.483237
_cell_volume                      907.480771676

loop_
_atom_site_label
_atom_site_type_symbol
_atom_type_description
_atom_site_fract_x
_atom_site_fract_y
_atom_site_fract_z
_atom_type_partial_charge
C1    C     C_R   0.500013 0.260904 0.499837 0.879547
C2    C     C_R   0.639292 0.070564 0.554773 -0.094403
C3    C     C_R   0.499547 0.871948 0.499450 -0.114145
C4    C     C_R   0.500475 0.128050 0.500555 -0.114058
C5    C     C_R   0.595621 0.583127 0.085433 -0.028237
C6    C     C_R   0.404353 0.416900 0.914556 -0.028412
C7    C     C_R   0.601185 0.579087 0.942271 0.046757
C8    C     C_R   0.398815 0.420906 0.057723 0.046713
C9    C     C_2   0.967558 0.408248 0.324331 0.466118
C10   C     C_2   0.032444 0.591717 0.675666 0.466019
C11   C     C_2   0.213915 0.126738 0.408913 0.448374
C12   C     C_R   0.499993 0.739095 0.500165 0.879626
C13   C     C_2   0.786103 0.873241 0.591075 0.448423
C14   C     C_2   0.216570 0.850763 0.392362 0.519710
C15   C     C_2   0.783465 0.149243 0.607608 0.519848
C16   C     C_2   0.682277 0.685253 0.170660 0.594401
C17   C     C_2   0.317638 0.314843 0.829291 0.595516
C18   C     C_2   0.726237 0.652678 0.887113 0.470282
C19   C     C_2   0.273805 0.347258 0.112887 0.469505
C20   C     C_R   0.201999 0.500125 0.464611 0.917117
C21   C     C_R   0.798001 0.499865 0.535389 0.917199
C22   C     C_2   0.037848 0.483064 0.447951 -0.225553
C23   C     C_2   0.962152 0.516910 0.552053 -0.225553
C24   C     C_R   0.360943 0.060290 0.448562 -0.019190
C25   C     C_R   0.639082 0.939705 0.551443 -0.019265
C26   C     C_R   0.360738 0.929435 0.445225 -0.094430
H1    H     H_    0.995013 0.435335 0.225653 0.114012
H2    H     H_    0.290584 0.313370 0.214788 0.100971
H3    H     H_    0.005090 0.564574 0.774362 0.114025
H4    H     H_    0.148103 0.115158 0.307690 0.154810
H5    H     H_    0.851965 0.884836 0.692292 0.154840
H6    H     H_    0.199682 0.757448 0.431305 0.086501
H7    H     H_    0.800270 0.242597 0.568739 0.086362
H8    H     H_    0.751275 0.666375 0.266939 0.120792
H9    H     H_    0.248093 0.333854 0.733329 0.120143
H10   H     H_    0.709404 0.686734 0.785277 0.100732
N1    N     N_R   0.499960 0.499970 0.857200 -0.181883
N2    N     N_R   0.500040 0.500030 0.142800 -0.181841
O1    O     O_R   0.499990 0.316750 0.614620 -0.620609
O2    O     O_2   0.114772 0.686447 0.667047 -0.530408
O3    O     O_2   0.165210 0.194672 0.490750 -0.568039
O4    O     O_2   0.834721 0.805238 0.509228 -0.568230
O5    O     O_2   0.117829 0.886822 0.302030 -0.523175
O6    O     O_2   0.882314 0.113144 0.697833 -0.523214
O7    O     O_2   0.675984 0.794068 0.133060 -0.500318
O8    O     O_2   0.324442 0.205965 0.866540 -0.500352
O9    O     O_2   0.854341 0.673397 0.955449 -0.567646
O10   O     O_2   0.145782 0.326309 0.044491 -0.567721
O11   O     O_R   0.500010 0.683250 0.385380 -0.620927
O12   O     O_R   0.499990 0.316780 0.385290 -0.631727
O13   O     O_R   0.500010 0.683220 0.614710 -0.631689
O14   O     O_R   0.271750 0.499990 0.587840 -0.613299
O15   O     O_R   0.728250 0.500010 0.412160 -0.613270
O16   O     O_R   0.271750 0.500010 0.358510 -0.673171
O17   O     O_R   0.728250 0.499990 0.641490 -0.673158
O18   O     O_2   0.885159 0.313548 0.332926 -0.530389
Zn1   Zn    Zn3+2 0.500000 0.499980 0.653120 0.973042
Zn2   Zn    Zn3+2 0.500000 0.500020 0.346880 0.972929

loop_
_geom_bond_atom_site_label_1
_geom_bond_atom_site_label_2
_ccdc_geom_bond_type
C16   O7    D    
C2    C4    A    
O15   Zn2   S    
C2    C15   S    
C10   C23   S    
C3    C26   A    
C1    O12   A    
C7    C18   S    
C18   O9    D    
C1    C4    S    
C21   C23   S    
C12   O11   A    
C7    N1    A    
C6    N1    A    
C20   O14   A    
C9    O18   D    
C5    N2    A    
C14   C26   S    
C21   O15   A    
C19   H2    S    
C10   H3    S    
C13   C25   S    
C8    N2    A    
O13   Zn1   S    
C20   O16   A    
C13   O4    D    
C20   C22   S    
C15   O6    D    
C11   O3    D    
C2    C25   A    
C5    C7    A    
O17   Zn1   S    
C4    C24   A    
C9    C22   S    
C8    C19   S    
O14   Zn1   S    
C1    O1    A    
O1    Zn1   S    
C11   C24   S    
C3    C25   A    
C12   O13   A    
C17   O8    D    
C9    H1    S    
C10   O2    D    
O16   Zn2   S    
C21   O17   A    
C6    C17   S    
C22   C23   D    
C5    C16   S    
C6    C8    A    
C3    C12   S    
C17   H9    S    
C16   H8    S    
N2    Zn2   S    
C18   H10   S    
C13   H5    S    
C19   O10   D    
N1    Zn1   S    
O11   Zn2   S    
C24   C26   A    
C11   H4    S    
C14   H6    S    
C14   O5    D    
C15   H7    S    
O12   Zn2   S    
