data_mof_unit_37212.cif
_audit_creation_date              2012-12-10T16:55:02-0500
_audit_creation_method            fapswitch 2.2
_symmetry_space_group_name_H-M    P1
_symmetry_Int_Tables_number       1
_space_group_crystal_system       triclinic
_cell_length_a                    9.732641
_cell_length_b                    10.900525
_cell_length_c                    15.652888
_cell_angle_alpha                 89.220924
_cell_angle_beta                  73.260897
_cell_angle_gamma                 91.381867
_cell_volume                      1589.43314804

loop_
_atom_site_label
_atom_site_type_symbol
_atom_type_description
_atom_site_fract_x
_atom_site_fract_y
_atom_site_fract_z
_atom_type_partial_charge
C1    C     C_R   0.998325 0.265367 0.500995 0.850447
C2    C     C_R   0.674214 0.524472 0.906940 0.092012
C3    C     C_R   0.775946 0.539495 0.955099 0.168901
C4    C     C_R   0.525862 0.507663 0.953303 0.065433
C5    C     C_R   0.479412 0.518697 0.047705 0.064955
C6    C     C_R   0.584256 0.540176 0.093059 -0.221889
C7    C     C_R   0.729607 0.548966 0.047471 -0.242436
C8    C     C_R   0.424180 0.472259 0.908696 -0.225936
C9    C     C_R   0.281238 0.449471 0.954682 -0.241438
C10   C     C_R   0.232913 0.464385 0.046412 0.169760
C11   C     C_R   0.330430 0.502258 0.093731 0.088805
C12   C     C_R   0.916737 0.505532 0.671650 0.799390
C13   C     C_R   0.087754 0.439900 0.091606 -0.222589
C14   C     C_R   0.037035 0.454195 0.183365 -0.202031
C15   C     C_R   0.275192 0.520187 0.185860 -0.247080
C16   C     C_2   0.899878 0.932061 0.485985 -0.225837
C17   C     C_2   0.019467 0.865963 0.471230 -0.147903
C18   C     C_2   0.904444 0.065661 0.475548 -0.160794
C19   C     C_2   0.994670 0.133094 0.506864 -0.280165
C20   C     C_2   0.395264 0.430418 0.552210 -0.111852
C21   C     C_2   0.552873 0.416885 0.541413 0.052345
C22   C     C_R   0.004679 0.734777 0.493626 0.806394
C23   C     C_R   0.083615 0.499626 0.328331 0.794527
C24   C     C_R   0.871070 0.519033 0.769108 -0.050635
C25   C     C_R   0.130985 0.493536 0.230875 -0.045927
C26   C     C_R   0.923331 0.544275 0.910015 -0.214140
C27   C     C_R   0.970799 0.529114 0.817946 -0.195237
C28   C     C_R   0.724837 0.526053 0.813539 -0.266049
Cu1   Cu    Cu3+1 0.138640 0.500020 0.499980 0.939979
Cu2   Cu    Cu3+1 0.861360 0.499980 0.500020 0.936621
H1    H     H_    0.013875 0.407237 0.056223 0.136339
H2    H     H_    0.794306 0.888218 0.511485 0.163901
H3    H     H_    0.828821 0.108337 0.446166 0.168678
H4    H     H_    0.068851 0.090140 0.537504 0.155125
H5    H     H_    0.319080 0.372741 0.601763 0.161116
H6    H     H_    0.419530 0.545111 0.449285 0.193451
H7    H     H_    0.618524 0.578717 0.479362 0.183955
H8    H     H_    0.341768 0.555827 0.224527 0.149145
H9    H     H_    0.925320 0.432119 0.217264 0.154445
H10   H     H_    0.208159 0.419095 0.917967 0.142324
H11   H     H_    0.001788 0.557992 0.946085 0.138909
H12   H     H_    0.085045 0.528465 0.784939 0.153798
H13   H     H_    0.651865 0.537083 0.774227 0.143053
H14   H     H_    0.558768 0.545244 0.164520 0.142971
H15   H     H_    0.452686 0.455467 0.838329 0.134492
N1    N     N_2   0.346430 0.498660 0.500980 -0.289097
N2    N     N_2   0.652550 0.498630 0.501000 -0.304808
O1    O     O_R   0.117050 0.321960 0.499980 -0.571411
O2    O     O_R   0.882890 0.321920 0.500020 -0.562334
O3    O     O_R   0.052910 0.500040 0.629810 -0.580151
O4    O     O_R   0.818750 0.499990 0.629840 -0.584919
O5    O     O_R   0.117110 0.678080 0.499980 -0.578363
O6    O     O_R   0.882950 0.678040 0.500020 -0.586335
O7    O     O_R   0.181250 0.500010 0.370160 -0.580266
O8    O     O_R   0.947090 0.499960 0.370190 -0.581989
H16   H     H_    0.806342 0.562181 0.085059 0.148210
C29   C     C_R   0.163554 0.916775 0.418700 0.135532
C30   C     C_R   0.283265 0.908642 0.451534 -0.135140
C31   C     C_R   0.418245 0.952798 0.399982 -0.159962
C32   C     C_R   0.434647 0.007026 0.316167 -0.106803
C33   C     C_R   0.316386 0.016115 0.283142 -0.137267
C34   C     C_R   0.181692 0.970527 0.333742 -0.129229
H17   H     H_    0.272247 0.868570 0.516915 0.135468
H18   H     H_    0.510567 0.944587 0.424634 0.115797
H19   H     H_    0.539154 0.041523 0.276660 0.123315
H20   H     H_    0.329254 0.057670 0.218010 0.132625
H21   H     H_    0.091554 0.976520 0.306519 0.130830
C35   C     C_R   0.585208 0.301805 0.581660 0.204013
C36   C     C_R   0.568456 0.189414 0.542391 -0.188174
C37   C     C_R   0.572987 0.078564 0.587624 -0.151468
C38   C     C_R   0.595733 0.078915 0.671699 -0.093800
C39   C     C_R   0.608012 0.190161 0.712279 -0.166574
C40   C     C_R   0.598663 0.300617 0.668299 -0.118687
H22   H     H_    0.548737 0.187742 0.477742 0.130069
H23   H     H_    0.559230 0.992211 0.557647 0.116241
H24   H     H_    0.600593 0.993090 0.706136 0.126807
H25   H     H_    0.620092 0.190880 0.778877 0.137257
H26   H     H_    0.594947 0.384773 0.703118 0.121280

loop_
_geom_bond_atom_site_label_1
_geom_bond_atom_site_label_2
_ccdc_geom_bond_type
Cu2   O4    S    
C24   C27   A    
C4    C8    A    
C29   C34   A    
C26   C27   A    
C39   H25   S    
C34   H21   S    
C5    C11   A    
C3    C7    A    
C5    C6    A    
C15   C25   A    
C16   C17   D    
Cu1   O7    S    
C18   C19   D    
C8    H15   S    
C14   H9    S    
C35   C36   A    
C20   H5    S    
C11   C15   A    
C33   H20   S    
C8    C9    A    
C40   H26   S    
H6    N1    S    
C37   C38   A    
H7    N2    S    
C9    C10   A    
C31   C32   A    
C6    H14   S    
C13   C14   A    
C36   C37   A    
C7    H16   S    
C22   O6    A    
Cu1   O3    S    
Cu2   O6    S    
C1    C19   S    
Cu1   O1    S    
Cu2   N2    S    
C39   C40   A    
C35   C40   A    
C19   H4    S    
C9    H10   S    
C32   C33   A    
C2    C4    A    
C15   H8    S    
Cu1   Cu2   S    
C31   H18   S    
C36   H22   S    
Cu2   O2    S    
C32   H19   S    
C21   C35   S    
C12   O4    A    
C23   O7    A    
C22   O5    A    
C30   H17   S    
C13   H1    S    
C3    C26   A    
C24   C28   A    
C4    C5    A    
C10   C13   A    
C12   O3    A    
C1    O1    A    
C23   O8    A    
C6    C7    A    
C16   H2    S    
Cu2   O8    S    
C12   C24   S    
C28   H13   S    
C17   C22   S    
Cu1   N1    S    
C2    C3    A    
C30   C31   A    
C38   C39   A    
C27   H12   S    
C29   C30   A    
C38   H24   S    
C23   C25   S    
C14   C25   A    
C33   C34   A    
C18   H3    S    
C10   C11   A    
C20   C21   S    
C16   C18   S    
C37   H23   S    
C2    C28   A    
C1    O2    A    
C20   N1    D    
C26   H11   S    
C17   C29   S    
C21   N2    D    
Cu1   O5    S    
