data_mof_unit_44688.cif
_audit_creation_date              2012-12-10T16:59:14-0500
_audit_creation_method            fapswitch 2.2
_symmetry_space_group_name_H-M    P1
_symmetry_Int_Tables_number       1
_space_group_crystal_system       triclinic
_cell_length_a                    7.743906
_cell_length_b                    8.554754
_cell_length_c                    27.01202
_cell_angle_alpha                 90.490528
_cell_angle_beta                  86.011833
_cell_angle_gamma                 93.620537
_cell_volume                      1781.55918947

loop_
_atom_site_label
_atom_site_type_symbol
_atom_type_description
_atom_site_fract_x
_atom_site_fract_y
_atom_site_fract_z
_atom_type_partial_charge
C1    C     C_R   0.545857 0.794835 0.498543 0.975919
C2    C     C_R   0.777621 0.434338 0.126843 -0.085397
C3    C     C_R   0.504559 0.463287 0.647105 -0.068546
C4    C     C_R   0.495565 0.506945 0.351858 -0.136483
C5    C     C_R   0.783780 0.413414 0.022076 -0.012313
C6    C     C_R   0.495282 0.247873 0.981247 -0.041836
C7    C     C_R   0.530304 0.223080 0.031187 0.082128
C8    C     C_R   0.778434 0.397572 0.969862 0.107347
C9    C     C_R   0.661285 0.319774 0.052300 0.050494
C10   C     C_R   0.626024 0.328832 0.950114 0.035512
C11   C     C_R   0.899169 0.522493 0.045842 0.362115
C12   C     C_R   0.454056 0.205153 0.500857 1.005961
C13   C     C_R   0.333021 0.203930 0.961538 0.366312
C14   C     C_R   0.897961 0.527799 0.097545 -0.124595
C15   C     C_R   0.311020 0.226044 0.911360 -0.170552
C16   C     C_R   0.501932 0.495641 0.594324 0.942973
C17   C     C_R   0.498177 0.502721 0.405643 0.936294
C18   C     C_R   0.919216 0.445810 0.936501 -0.100949
C19   C     C_R   0.440827 0.105429 0.061022 -0.093848
C20   C     C_2   0.570064 0.958262 0.497387 -0.282700
C21   C     C_2   0.429744 0.041674 0.501243 -0.329417
C22   C     C_R   0.711232 0.433887 0.817166 0.656916
C23   C     C_R   0.603540 0.344332 0.898995 -0.041676
C24   C     C_R   0.540825 0.251457 0.185678 0.638128
C25   C     C_R   0.422005 0.319483 0.829583 0.642231
C26   C     C_R   0.757130 0.454637 0.178389 0.526329
C27   C     C_R   0.569075 0.290392 0.713748 -0.068458
C28   C     C_R   0.614563 0.599101 0.271165 -0.079845
C29   C     C_R   0.557075 0.318288 0.662882 0.263701
C30   C     C_R   0.609469 0.611023 0.323384 0.371982
C31   C     C_R   0.458393 0.578250 0.681449 -0.360501
C32   C     C_R   0.372092 0.412045 0.328512 -0.336726
C33   C     C_R   0.471384 0.554930 0.732086 0.003446
C34   C     C_R   0.663634 0.326981 0.104322 -0.057315
C35   C     C_R   0.384835 0.396692 0.276948 0.033585
C36   C     C_R   0.529737 0.411235 0.748255 0.230017
C37   C     C_R   0.537173 0.461159 0.250181 0.071228
C38   C     C_2   0.424777 0.685038 0.766369 0.509410
C39   C     C_2   0.227233 0.337151 0.252842 0.577096
C40   C     C_2   0.660731 0.738421 0.238925 0.617514
C41   C     C_2   0.622199 0.134713 0.729947 0.484858
C42   C     C_R   0.739067 0.412399 0.867192 -0.011554
C43   C     C_R   0.552486 0.225545 0.134347 -0.018054
C44   C     C_R   0.899281 0.455232 0.885917 -0.115713
C45   C     C_R   0.451615 0.106626 0.112275 -0.116851
C46   C     C_R   0.444882 0.294482 0.879832 -0.084527
Cl1   Cl    Cl    0.736075 0.757833 0.353500 -0.533298
Cl2   Cl    Cl    0.608645 0.171914 0.618342 -0.665635
Cl3   Cl    Cl    0.020422 0.680315 0.015597 -0.572711
Cl4   Cl    Cl    0.140506 0.150405 0.998112 -0.595636
H1    H     H_    0.416686 0.688451 0.668407 0.161513
H2    H     H_    0.363083 0.011240 0.045084 0.219590
H3    H     H_    0.702533 0.009399 0.493624 0.190943
H4    H     H_    0.297273 0.990550 0.504994 0.179036
H5    H     H_    0.387179 0.794168 0.751305 0.072519
H6    H     H_    0.125224 0.268699 0.274023 0.081973
H7    H     H_    0.624384 0.736100 0.200812 0.032527
H8    H     H_    0.617826 0.034893 0.705005 0.109831
H9    H     H_    0.266325 0.350977 0.350376 0.166525
H10   H     H_    0.013670 0.382209 0.463191 0.195446
H11   H     H_    0.986328 0.617820 0.536796 0.200166
H12   H     H_    0.009273 0.497916 0.861701 0.219279
H13   H     H_    0.373125 0.020527 0.134529 0.197308
H14   H     H_    0.982361 0.614930 0.114810 0.220037
H15   H     H_    0.185790 0.193589 0.897399 0.223103
H16   H     H_    0.047482 0.471988 0.948757 0.210921
N1    N     N_R   0.554006 0.389115 0.799683 -0.313887
N2    N     N_R   0.611152 0.389533 0.204362 -0.325217
N3    N     N_2   0.950320 0.457960 0.486880 -0.152469
N4    N     N_2   0.049680 0.542040 0.513120 -0.158116
O1    O     O_R   0.389250 0.738570 0.503220 -0.619738
O2    O     O_2   0.463700 0.139705 0.216046 -0.548149
O3    O     O_2   0.883361 0.534069 0.201896 -0.521310
O4    O     O_2   0.269695 0.275082 0.810625 -0.538202
O5    O     O_2   0.426234 0.673410 0.811329 -0.555929
O6    O     O_2   0.206163 0.369656 0.209834 -0.536007
O7    O     O_2   0.736891 0.856785 0.253937 -0.470537
O8    O     O_2   0.672941 0.114624 0.771042 -0.556095
O9    O     O_R   0.610750 0.261430 0.496780 -0.594740
O10   O     O_R   0.678390 0.711630 0.494810 -0.615685
O11   O     O_R   0.321610 0.288370 0.505190 -0.631163
O12   O     O_R   0.355440 0.513440 0.575450 -0.605704
O13   O     O_R   0.644560 0.486560 0.424550 -0.583938
O14   O     O_R   0.644590 0.486500 0.567040 -0.591151
O15   O     O_R   0.355410 0.513500 0.432960 -0.627315
O16   O     O_2   0.839468 0.499178 0.786153 -0.528129
Zn1   Zn    Zn3+2 0.306940 0.517990 0.505620 0.987545
Zn2   Zn    Zn3+2 0.693060 0.482010 0.494380 1.018858

loop_
_geom_bond_atom_site_label_1
_geom_bond_atom_site_label_2
_ccdc_geom_bond_type
H11   N4    S    
C37   N2    S    
C27   C29   A    
C25   N1    A    
C26   O3    S    
C36   N1    S    
C1    O1    A    
C23   C42   A    
C17   O15   A    
H10   N3    S    
C35   C37   A    
C41   H8    S    
C5    C11   A    
C21   H4    S    
C11   C14   A    
C28   C40   S    
O12   Zn1   S    
C15   H15   S    
C12   O9    A    
C16   O14   A    
C33   C36   A    
C25   O4    S    
C3    C29   A    
C19   H2    S    
C38   H5    S    
C31   C33   A    
C2    C34   A    
O13   Zn2   S    
C23   C46   A    
C42   C44   A    
N4    Zn1   S    
O9    Zn2   S    
C38   O5    D    
O15   Zn1   S    
C29   Cl2   S    
C32   C35   A    
C30   Cl1   S    
C24   C43   A    
C41   O8    D    
C44   H12   S    
C12   C21   S    
C45   H13   S    
C8    C18   A    
C17   O13   A    
C35   C39   S    
C5    C9    A    
C11   Cl3   S    
C18   C44   A    
C27   C41   S    
C39   H6    S    
C14   H14   S    
C16   O12   A    
C2    C26   A    
C4    C32   A    
C39   O6    D    
C3    C31   A    
C43   C45   A    
O11   Zn1   S    
N3    Zn2   S    
O1    Zn1   S    
C4    C17   S    
C7    C19   A    
C13   C15   A    
C9    C34   A    
C10   C23   A    
C24   O2    S    
C7    C9    A    
C1    C20   S    
C40   H7    S    
C34   C43   A    
O14   Zn2   S    
C31   H1    S    
C20   H3    S    
C6    C10   A    
C5    C8    A    
C19   C45   A    
C6    C7    A    
C27   C36   A    
C18   H16   S    
C33   C38   S    
C32   H9    S    
C26   N2    A    
C28   C30   A    
O10   Zn2   S    
C6    C13   A    
C22   C42   A    
C28   C37   A    
C12   O11   A    
C22   O16   S    
N3    N4    D    
C2    C14   A    
C22   N1    A    
C24   N2    A    
C13   Cl4   S    
C20   C21   D    
C8    C10   A    
C1    O10   A    
C40   O7    D    
C15   C46   A    
C25   C46   A    
C4    C30   A    
C3    C16   S    
