data_mof_unit_38241.cif
_audit_creation_date              2012-12-10T16:48:51-0500
_audit_creation_method            fapswitch 2.2
_symmetry_space_group_name_H-M    P1
_symmetry_Int_Tables_number       1
_space_group_crystal_system       triclinic
_cell_length_a                    17.382682
_cell_length_b                    8.705974
_cell_length_c                    7.608081
_cell_angle_alpha                 103.948744
_cell_angle_beta                  92.036885
_cell_angle_gamma                 97.024955
_cell_volume                      1106.4854055

loop_
_atom_site_label
_atom_site_type_symbol
_atom_type_description
_atom_site_fract_x
_atom_site_fract_y
_atom_site_fract_z
_atom_type_partial_charge
C1    C     C_R   0.497194 0.199592 0.452780 0.850061
C2    C     C_R   0.784250 0.552423 0.632250 0.242161
C3    C     C_R   0.135990 0.442320 0.381983 -0.244458
C4    C     C_R   0.864009 0.557616 0.617994 -0.244425
C5    C     C_R   0.104013 0.468616 0.550588 0.063365
C6    C     C_R   0.895981 0.531270 0.449381 0.063283
C7    C     C_R   0.152818 0.500364 0.710692 0.293866
C8    C     C_R   0.847173 0.499498 0.289276 0.293927
C9    C     C_R   0.233240 0.509741 0.697789 -0.278545
C10   C     C_R   0.766753 0.490182 0.302196 -0.278497
C11   C     C_2   0.019647 0.466380 0.555085 -0.204468
C12   C     C_R   0.502807 0.800408 0.547220 0.850067
C13   C     C_2   0.980346 0.533495 0.444885 -0.204530
C14   C     C_3   0.215250 0.273122 0.064447 -0.673446
C15   C     C_3   0.784785 0.726846 0.935567 -0.673462
C16   C     C_3   0.126828 0.693821 0.980152 -0.733249
C17   C     C_3   0.872954 0.305964 0.019653 -0.733274
C18   C     C_3   0.398106 0.204320 0.994101 -0.582581
C19   C     C_3   0.601910 0.795662 0.005883 -0.582568
C20   C     C_2   0.495250 0.030317 0.427891 -0.362614
C21   C     C_2   0.504752 0.969683 0.572108 -0.362619
C22   C     C_R   0.350980 0.497144 0.521454 0.793519
C23   C     C_R   0.649020 0.502852 0.478545 0.793513
C24   C     C_R   0.265717 0.485442 0.528181 -0.139045
C25   C     C_R   0.734281 0.514526 0.471810 -0.139066
C26   C     C_R   0.215751 0.447549 0.367737 0.242163
Cu1   Cu    Cu3+1 0.508700 0.517250 0.683000 0.965136
Cu2   Cu    Cu3+1 0.491300 0.482750 0.317000 0.965146
H1    H     H_    0.729611 0.463034 0.178330 0.189472
H2    H     H_    0.226440 0.170979 0.120963 0.219622
H3    H     H_    0.756316 0.479716 0.861972 0.275375
H4    H     H_    0.755648 0.735295 0.064144 0.235810
H5    H     H_    0.773637 0.829021 0.879064 0.219638
H6    H     H_    0.847933 0.734522 0.969354 0.216895
H7    H     H_    0.070195 0.461632 0.893496 0.238427
H8    H     H_    0.106689 0.702994 0.118749 0.220033
H9    H     H_    0.088971 0.754794 0.906101 0.234074
H10   H     H_    0.187608 0.754301 0.993040 0.235398
H11   H     H_    0.929853 0.537921 0.106446 0.238461
H12   H     H_    0.270378 0.536891 0.821662 0.189494
H13   H     H_    0.893131 0.296772 0.881086 0.220063
H14   H     H_    0.812111 0.245802 0.006682 0.235338
H15   H     H_    0.910675 0.244691 0.093644 0.234093
H16   H     H_    0.901754 0.582312 0.740492 0.160491
H17   H     H_    0.098249 0.417631 0.259479 0.160481
H18   H     H_    0.414398 0.331897 0.807964 0.293588
H19   H     H_    0.353586 0.123572 0.894587 0.160324
H20   H     H_    0.373212 0.223403 0.128131 0.267168
H21   H     H_    0.450609 0.142963 0.989939 0.215077
H22   H     H_    0.585601 0.668105 0.192034 0.293587
H23   H     H_    0.010858 0.592393 0.352145 0.140907
H24   H     H_    0.646436 0.876401 0.105389 0.160324
H25   H     H_    0.549413 0.857040 0.010047 0.215069
H26   H     H_    0.626802 0.776564 0.871849 0.267184
H27   H     H_    0.989137 0.407503 0.647846 0.140947
H28   H     H_    0.485534 0.955362 0.290439 0.172998
H29   H     H_    0.514469 0.044638 0.709559 0.172993
H30   H     H_    0.243641 0.520266 0.138000 0.275380
H31   H     H_    0.244374 0.264699 0.935857 0.235813
H32   H     H_    0.152094 0.265359 0.030681 0.216856
N1    N     N_2   0.478180 0.456750 0.041980 0.026921
N2    N     N_2   0.521820 0.543250 0.958020 0.026913
N3    N     N_2   0.245107 0.422925 0.192167 -0.384760
N4    N     N_2   0.754894 0.577077 0.807823 -0.384776
N5    N     N_2   0.122807 0.527443 0.885686 -0.445642
N6    N     N_2   0.877177 0.472347 0.114268 -0.445624
N7    N     N_2   0.415609 0.353841 0.944218 -0.305738
N8    N     N_2   0.584394 0.646150 0.055780 -0.305747
O1    O     O_R   0.505650 0.286040 0.618880 -0.600105
O2    O     O_R   0.494350 0.713960 0.381120 -0.600103
O3    O     O_R   0.490960 0.256910 0.309800 -0.598792
O4    O     O_R   0.509040 0.743090 0.690200 -0.598787
O5    O     O_R   0.394600 0.516230 0.672450 -0.615354
O6    O     O_R   0.605400 0.483770 0.327550 -0.615354
O7    O     O_R   0.379910 0.487100 0.363380 -0.541879
O8    O     O_R   0.620090 0.512900 0.636620 -0.541912

loop_
_geom_bond_atom_site_label_1
_geom_bond_atom_site_label_2
_ccdc_geom_bond_type
C9    H12   S    
C2    C4    A    
C26   N3    S    
C17   H15   S    
C9    C24   A    
C8    N6    S    
Cu1   N2    S    
C7    N5    S    
C14   H32   S    
C18   H21   S    
N1    N7    S    
C15   H6    S    
Cu1   O1    S    
N2    N8    S    
C16   H9    S    
C15   N4    S    
Cu2   O6    S    
C18   H19   S    
C19   H25   S    
C1    O1    A    
C12   O4    A    
C5    C7    A    
H18   N7    S    
Cu1   O5    S    
C16   H8    S    
C6    C13   S    
C21   H29   S    
C14   H31   S    
C11   C13   D    
C10   H1    S    
C17   N6    S    
C1    O3    A    
C22   O7    A    
C14   H2    S    
C14   N3    S    
C12   C21   S    
C10   C25   A    
C8    C10   A    
C24   C26   A    
C5    C11   S    
C2    C25   A    
C22   C24   S    
C20   H28   S    
C23   C25   S    
C19   H24   S    
N1    N2    D    
H11   N6    S    
C17   H13   S    
Cu2   O3    S    
H7    N5    S    
Cu2   N1    S    
Cu1   O8    S    
C15   H4    S    
C11   H27   S    
C20   C21   D    
C19   H26   S    
C4    C6    A    
C16   H10   S    
Cu1   Cu2   S    
C7    C9    A    
C23   O8    A    
C12   O2    A    
C17   H14   S    
C1    C20   S    
C6    C8    A    
C16   N5    S    
C4    H16   S    
C22   O5    A    
C3    C5    A    
C18   N7    S    
C13   H23   S    
Cu2   O7    S    
H22   N8    S    
H3    N4    S    
C3    H17   S    
C3    C26   A    
Cu2   O2    S    
Cu1   O4    S    
H30   N3    S    
C19   N8    S    
C2    N4    S    
C23   O6    A    
C15   H5    S    
C18   H20   S    
