data_mof_unit_8011.cif
_audit_creation_date              2013-03-05T16:33:15-0500
_audit_creation_method            fapswitch 2.2
_symmetry_space_group_name_H-M    P1
_symmetry_Int_Tables_number       1
_space_group_crystal_system       triclinic
_cell_length_a                    27.808006
_cell_length_b                    10.810649
_cell_length_c                    9.525997
_cell_angle_alpha                 90.078053
_cell_angle_beta                  90.705591
_cell_angle_gamma                 89.885747
_cell_volume                      2863.50450743

loop_
_atom_site_label
_atom_site_type_symbol
_atom_site_description
_atom_site_fract_x
_atom_site_fract_y
_atom_site_fract_z
_atom_type_partial_charge
O1    O     O_R   0.500000 0.319640 0.618810 -0.586697
O2    O     O_R   0.500010 0.319680 0.381230 -0.539100
C1    C     C_R   0.501848 0.262416 0.499840 0.888426
O3    O     O_R   0.430260 0.500000 0.618780 -0.591843
O4    O     O_R   0.430270 0.500040 0.381190 -0.535670
C2    C     C_R   0.407275 0.500788 0.498914 0.890657
Cu1   Cu    Cu3+1 0.500000 0.499980 0.640670 0.997679
Cu2   Cu    Cu3+1 0.500000 0.500020 0.359330 1.030241
O5    O     O_R   0.499990 0.680320 0.618770 -0.579515
O6    O     O_R   0.500000 0.680360 0.381190 -0.590146
O7    O     O_R   0.569730 0.499960 0.618810 -0.563706
O8    O     O_R   0.569740 0.500000 0.381220 -0.577742
C3    C     C_R   0.500652 0.737618 0.500339 0.834701
C4    C     C_R   0.592563 0.499758 0.500990 0.825426
C5    C     C_R   0.177640 0.387898 0.523458 0.688956
O9    O     O_2   0.203930 0.284313 0.542478 -0.402479
N1    N     N_R   0.201128 0.498107 0.508653 -0.457132
C6    C     C_R   0.176737 0.606170 0.487201 0.603523
C7    C     C_R   0.276085 0.514707 0.378996 -0.154999
C8    C     C_R   0.326172 0.516460 0.372863 0.378639
C9    C     C_R   0.329924 0.486061 0.625918 -0.246292
C10   C     C_R   0.279803 0.485635 0.630983 0.458718
C11   C     C_R   0.252732 0.499336 0.506805 0.169401
C12   C     C_R   0.101092 0.496119 0.506657 -0.103812
C13   C     C_R   0.126673 0.383249 0.518950 -0.190890
C14   C     C_R   0.100432 0.270926 0.517389 0.386046
C15   C     C_R   0.126450 0.607205 0.485109 -0.014573
C16   C     C_R   0.353954 0.501132 0.497697 -0.189455
H1    H     H_    0.350032 0.474563 0.723179 0.216698
C17   C     C_R   0.645517 0.499060 0.504737 -0.047238
C18   C     C_R   0.974170 0.392145 0.552796 0.046451
C19   C     C_R   0.974291 0.617205 0.519051 -0.089705
C20   C     C_R   0.948859 0.504968 0.535350 0.036665
C21   C     C_R   0.948944 0.290685 0.606869 -0.140404
C22   C     C_R   0.899060 0.289859 0.613088 0.426988
C23   C     C_R   0.872616 0.394825 0.568701 -0.097657
C24   C     C_R   0.897791 0.505507 0.539302 -0.148557
C25   C     C_R   0.872069 0.616603 0.514507 -0.162625
C26   C     C_R   0.821403 0.610276 0.501392 0.621514
N2    N     N_R   0.797986 0.501046 0.522157 -0.487360
C27   C     C_R   0.822063 0.395022 0.556606 0.597823
C28   C     C_R   0.720173 0.487442 0.638955 -0.068493
C29   C     C_R   0.670133 0.487335 0.633889 -0.131811
C30   C     C_R   0.671980 0.510405 0.380617 -0.174515
C31   C     C_R   0.722195 0.510628 0.386037 -0.064205
C32   C     C_R   0.746400 0.499170 0.515306 0.308312
O10   O     O_2   0.796834 0.290049 0.574949 -0.426733
C33   C     C_R   0.024508 0.386727 0.529797 -0.080657
C34   C     C_R   0.050115 0.498549 0.514178 0.044773
C35   C     C_R   0.025048 0.612882 0.501181 0.102467
C36   C     C_R   0.049900 0.273500 0.512051 0.293676
H2    H     H_    0.650784 0.477986 0.731285 0.192441
H3    H     H_    0.738688 0.478974 0.739196 0.159555
H4    H     H_    0.967961 0.212133 0.650526 0.232921
O11   O     O_2   0.201227 0.712534 0.468883 -0.469781
C37   C     C_R   0.101134 0.716025 0.455787 -0.084882
H5    H     H_    0.254896 0.525913 0.283606 0.210204
C38   C     C_R   0.947937 0.729474 0.530324 0.285603
C39   C     C_R   0.897730 0.729754 0.513157 0.388968
O12   O     O_2   0.795276 0.711443 0.468267 -0.431349
C40   C     C_R   0.051301 0.717262 0.457867 -0.099882
H6    H     H_    0.653945 0.519776 0.279731 0.175065
H7    H     H_    0.742328 0.519833 0.290024 0.160263
H8    H     H_    0.033861 0.800177 0.420208 0.223644
C41   C     C_R   0.491392 0.064153 0.618870 0.010301
C42   C     C_R   0.506572 0.129176 0.500952 -0.143038
C43   C     C_R   0.528094 0.062506 0.390012 0.374220
C44   C     C_R   0.526978 0.933254 0.391659 -0.208331
H9    H     H_    0.542362 0.882506 0.305233 0.181163
C45   C     C_R   0.505099 0.870459 0.502680 -0.108539
C46   C     C_R   0.491133 0.937238 0.620470 0.057302
C47   C     C_3   0.445895 0.931864 0.703434 -0.435563
C48   C     C_3   0.446284 0.072665 0.702702 0.228848
H10   H     H_    0.451983 0.892562 0.809908 0.174794
H11   H     H_    0.452508 0.114262 0.808201 0.132634
C49   C     C_R   0.534875 0.561790 0.074982 0.203140
N3    N     N_R   0.500300 0.500930 0.147930 -0.187567
C50   C     C_R   0.468594 0.429023 0.073270 0.045388
H12   H     H_    0.442615 0.373427 0.128308 0.177360
C51   C     C_R   0.468538 0.429154 0.924219 -0.051835
N4    N     N_R   0.500310 0.500890 0.852020 -0.223179
C52   C     C_R   0.535037 0.561345 0.927400 0.226264
C53   C     C_3   0.545561 0.696369 0.921825 0.180702
C54   C     C_3   0.545093 0.696996 0.081128 -0.517846
H13   H     H_    0.516122 0.751930 0.873684 0.138469
H14   H     H_    0.580523 0.716852 0.131516 0.235642
H15   H     H_    0.119698 0.800386 0.427992 0.230324
Cl1   Cl    Cl    0.974215 0.864887 0.603767 -0.435641
Cl2   Cl    Cl    0.868681 0.875639 0.502345 -0.323559
Cl3   Cl    Cl    0.556137 0.134579 0.246703 -0.569417
H16   H     H_    0.415569 0.889404 0.643362 0.235785
Cl4   Cl    Cl    0.251661 0.469911 0.794400 -0.472922
Cl5   Cl    Cl    0.396488 0.137646 0.607214 -0.552813
H17   H     H_    0.442465 0.373773 0.867188 0.166082
Cl6   Cl    Cl    0.603568 0.725876 0.851360 -0.556753
H18   H     H_    0.514391 0.750946 0.123030 0.196413
Cl7   Cl    Cl    0.128920 0.123981 0.510249 -0.388355
Cl8   Cl    Cl    0.872935 0.156762 0.687154 -0.366405
Cl9   Cl    Cl    0.020462 0.138624 0.448029 -0.455136
Cl10  Cl    Cl    0.351068 0.541112 0.205765 -0.544474

loop_
_geom_bond_atom_site_label_1
_geom_bond_atom_site_label_2
_geom_bond_distance
_ccdc_geom_bond_type
C7    C8    1.394931 A    
C12   C15   1.410386 A    
C48   Cl5   1.790321 S    
C49   C54   1.490507 S    
N4    C52   1.363626 A    
Cu1   Cu2   2.680044 S    
N3    C50   1.368669 A    
C7    H5    1.083692 S    
Cu1   O7    1.952749 S    
N1    C11   1.435434 S    
C23   C24   1.417514 A    
C54   H14   1.111809 S    
C28   H3    1.083165 S    
C28   C32   1.399038 A    
O4    C2    1.297770 A    
O7    C4    1.296291 A    
C50   C51   1.419848 A    
C29   H2    1.083182 S    
C5    C13   1.418413 A    
C3    C45   1.441773 S    
C5    O9    1.347334 S    
C41   C48   1.497871 S    
Cu1   O5    1.961003 S    
C21   C22   1.389217 A    
C39   Cl2   1.773052 S    
O5    C3    1.288126 A    
C33   C36   1.422813 A    
C2    C16   1.482645 S    
C22   C23   1.413336 A    
C44   H9    1.080888 S    
C18   C20   1.415950 A    
C45   C46   1.392282 A    
C19   C38   1.421171 A    
C22   Cl8   1.765068 S    
C42   C43   1.416447 A    
C9    C10   1.395202 A    
C48   H11   1.112190 S    
C17   C30   1.405980 A    
C23   C27   1.409069 A    
C4    C17   1.472534 S    
O3    Cu1   1.947956 S    
C10   C11   1.402147 A    
C36   Cl9   1.777125 S    
C43   C44   1.397820 A    
C12   C13   1.415448 A    
O3    C2    1.301712 A    
C49   C52   1.405931 A    
C26   N2    1.365449 A    
C47   H16   1.112785 S    
C15   C37   1.396544 A    
C51   N4    1.369018 A    
C37   H15   1.083630 S    
C8    C16   1.419802 A    
C30   H6    1.083318 S    
C38   C39   1.403687 A    
C41   C46   1.372171 A    
C9    H1    1.083421 S    
C52   C53   1.490461 S    
C43   Cl3   1.763635 S    
C20   C24   1.421070 A    
O1    C1    1.291948 A    
C40   H8    1.078059 S    
C7    C11   1.397169 A    
C24   C25   1.415291 A    
C53   C54   1.517738 S    
C8    Cl10  1.764392 S    
Cu2   O8    1.947951 S    
C53   Cl6   1.784260 S    
N1    C6    1.364052 A    
C27   O10   1.348063 S    
C18   C21   1.404989 A    
C49   N3    1.363972 A    
C19   C35   1.424415 A    
C6    O11   1.350196 S    
C47   H10   1.111115 S    
N2    C27   1.364637 A    
Cu1   N4    2.013243 S    
C9    C16   1.409265 A    
O8    C4    1.298727 A    
C21   H4    1.080523 S    
C18   C33   1.420573 A    
Cu2   N3    2.013954 S    
C17   C29   1.406284 A    
C1    C42   1.446176 S    
C28   C29   1.391750 A    
N2    C32   1.435381 S    
C51   H17   1.081841 S    
C54   H18   1.110917 S    
C30   C31   1.396702 A    
C12   C34   1.420465 A    
C5    N1    1.368146 A    
C33   C34   1.413185 A    
C53   H13   1.109400 S    
O1    Cu1   1.960400 S    
O2    Cu2   1.961005 S    
C6    C15   1.398287 A    
C47   C48   1.522228 S    
O6    C3    1.292040 A    
C38   Cl1   1.776327 S    
O4    Cu2   1.952752 S    
C19   C20   1.415315 A    
O2    C1    1.289504 A    
C13   C14   1.417880 A    
C46   C47   1.495129 S    
C14   C36   1.405721 A    
C50   H12   1.081629 S    
C25   C26   1.414687 A    
C26   O12   1.347482 S    
C31   H7    1.083013 S    
C41   C42   1.396099 A    
C14   Cl7   1.775320 S    
C25   C39   1.417539 A    
C31   C32   1.401587 A    
C35   C40   1.410158 A    
Cu2   O6    1.960399 S    
C34   C35   1.422605 A    
C44   C45   1.403184 A    
C10   Cl4   1.759526 S    
C37   C40   1.386152 A    
