data_mof_unit_25373.cif
_audit_creation_date              2012-12-11T14:40:06-0500
_audit_creation_method            fapswitch 2.2
_symmetry_space_group_name_H-M    P1
_symmetry_Int_Tables_number       1
_space_group_crystal_system       triclinic
_cell_length_a                    19.605096
_cell_length_b                    10.860717
_cell_length_c                    19.452552
_cell_angle_alpha                 89.966987
_cell_angle_beta                  97.632759
_cell_angle_gamma                 89.732148
_cell_volume                      4105.19594805

loop_
_atom_site_label
_atom_site_type_symbol
_atom_type_description
_atom_site_fract_x
_atom_site_fract_y
_atom_site_fract_z
_atom_type_partial_charge
C1    C     C_R   0.706413 0.003733 0.365590 0.561964
C2    C     C_R   0.293543 0.003912 0.634283 0.560792
C3    C     C_R   0.207277 0.500322 0.366397 0.562703
C4    C     C_R   0.792693 0.500525 0.633473 0.564067
C5    C     C_3   0.730854 0.339503 0.486657 -0.125074
C6    C     C_3   0.269314 0.338994 0.513409 -0.123899
C7    C     C_3   0.201794 0.903370 0.482752 -0.131980
C8    C     C_3   0.798091 0.902344 0.517297 -0.130814
C9    C     C_3   0.753652 0.418845 0.428646 0.067705
C10   C     C_3   0.246199 0.418562 0.571268 0.069660
C11   C     C_3   0.253878 0.916404 0.430669 0.064123
C12   C     C_3   0.745934 0.916265 0.569301 0.065701
C13   C     C_3   0.726764 0.535257 0.460050 -0.145941
C14   C     C_3   0.272848 0.534730 0.539801 -0.146049
C15   C     C_3   0.270998 0.047973 0.454638 -0.156268
C16   C     C_3   0.728780 0.048052 0.545167 -0.156954
C17   C     C_3   0.799405 0.552835 0.502315 -0.132914
C18   C     C_3   0.200208 0.552959 0.497428 -0.132771
C19   C     C_3   0.329386 0.995876 0.508911 -0.131101
C20   C     C_3   0.670467 0.996757 0.490918 -0.131510
C21   C     C_3   0.824857 0.434670 0.470037 0.007658
C22   C     C_3   0.175009 0.434997 0.529776 0.007969
C23   C     C_3   0.311585 0.864734 0.484371 0.025018
C24   C     C_3   0.688305 0.865387 0.515638 0.025465
C25   C     C_3   0.802994 0.354892 0.528223 -0.098015
C26   C     C_3   0.197189 0.355020 0.471735 -0.098325
C27   C     C_3   0.259758 0.850707 0.536188 -0.096917
C28   C     C_3   0.740197 0.850456 0.463902 -0.097389
C29   C     C_3   0.776928 0.472299 0.560063 0.043649
C30   C     C_3   0.223004 0.472180 0.439827 0.044383
C31   C     C_3   0.277669 0.981433 0.560492 0.040604
C32   C     C_3   0.722237 0.981394 0.439413 0.039646
C33   C     C_3   0.549588 0.173784 0.958167 -0.109021
C34   C     C_3   0.539100 0.274955 0.011429 -0.118015
C35   C     C_3   0.049691 0.676224 0.958199 -0.105817
C36   C     C_3   0.038057 0.776177 0.011764 -0.116251
C37   C     C_3   0.540104 0.072395 0.011897 -0.127187
C38   C     C_3   0.460720 0.274579 0.988453 -0.113673
C39   C     C_3   0.041279 0.573688 0.011586 -0.125570
C40   C     C_3   0.959716 0.773252 0.988738 -0.115451
C41   C     C_3   0.529078 0.173874 0.063952 0.051808
C42   C     C_3   0.471563 0.173650 0.936049 0.052948
C43   C     C_3   0.029114 0.673936 0.063954 0.052865
C44   C     C_3   0.971698 0.673555 0.936028 0.051528
C45   C     C_R   0.534585 0.180186 0.337674 0.546943
C46   C     C_R   0.465311 0.179952 0.662242 0.546023
C47   C     C_R   0.035010 0.680216 0.337917 0.545654
C48   C     C_R   0.964932 0.679994 0.662034 0.544136
C49   C     C_3   0.451063 0.173253 0.041828 -0.102998
C50   C     C_3   0.461374 0.072027 0.988241 -0.123983
C51   C     C_3   0.951136 0.670783 0.041781 -0.104329
C52   C     C_3   0.962585 0.570774 0.987878 -0.127349
C53   C     C_1   0.773861 0.452145 0.910678 -0.007608
C54   C     C_1   0.236967 0.425368 0.095735 -0.009792
C55   C     C_1   0.257539 0.907990 0.899573 -0.009990
C56   C     C_1   0.737054 0.925062 0.095819 -0.009709
C57   C     C_1   0.743412 0.388817 0.031603 -0.044906
C58   C     C_1   0.252342 0.408625 0.965273 -0.048696
C59   C     C_1   0.233441 0.857854 0.025335 -0.048178
C60   C     C_1   0.752459 0.908127 0.965377 -0.049796
C61   C     C_1   0.758948 0.422762 0.966102 -0.043367
C62   C     C_1   0.245529 0.415638 0.036042 -0.049257
C63   C     C_1   0.244544 0.881852 0.956532 -0.043860
C64   C     C_1   0.745646 0.915169 0.036144 -0.049788
C65   C     C_1   0.732695 0.357745 0.088243 -0.009321
C66   C     C_1   0.257284 0.395439 0.904903 -0.007488
C67   C     C_1   0.226951 0.838150 0.085012 -0.017897
C68   C     C_1   0.757372 0.895075 0.904993 -0.007785
C69   C     C_R   0.741061 0.368952 0.359415 0.550656
C70   C     C_R   0.258886 0.368664 0.640525 0.539024
C71   C     C_R   0.240271 0.865456 0.361273 0.554757
C72   C     C_R   0.759673 0.865221 0.638707 0.545430
C73   C     C_R   0.721928 0.952418 0.163767 0.542454
C74   C     C_R   0.277493 0.950443 0.835528 0.546771
C75   C     C_R   0.221905 0.452488 0.163735 0.542374
C76   C     C_R   0.792387 0.490009 0.845733 0.535106
C77   C     C_R   0.559674 0.181984 0.135585 0.533156
C78   C     C_R   0.440658 0.182081 0.864497 0.553391
C79   C     C_R   0.059674 0.681997 0.135589 0.530097
C80   C     C_R   0.940765 0.682060 0.864509 0.535255
C81   C     C_R   0.723683 0.316161 0.155708 0.535423
C82   C     C_R   0.264060 0.360682 0.835572 0.538359
C83   C     C_R   0.222092 0.810243 0.156130 0.542481
C84   C     C_R   0.764088 0.860575 0.835613 0.536490
C85   C     C_1   0.486666 0.172939 0.595063 -0.019911
C86   C     C_1   0.512852 0.173310 0.404684 -0.020062
C87   C     C_1   0.985706 0.673087 0.594716 -0.024973
C88   C     C_1   0.013970 0.673404 0.405118 -0.023772
C89   C     C_1   0.503119 0.171067 0.464355 -0.067806
C90   C     C_1   0.496173 0.170876 0.535324 -0.067845
C91   C     C_1   0.003946 0.671495 0.464627 -0.069391
C92   C     C_1   0.995564 0.671352 0.535154 -0.069770
C93   C     C_3   0.704722 0.456309 0.519473 -0.120174
C94   C     C_3   0.295200 0.455555 0.480522 -0.120230
C95   C     C_3   0.219330 0.035426 0.508356 -0.126993
C96   C     C_3   0.780505 0.034614 0.491518 -0.126686
Cr1   Cr    Cr6+3 0.765830 0.160660 0.268180 1.015797
Cr2   Cr    Cr6+3 0.234170 0.160660 0.731820 1.018072
Cr3   Cr    Cr6+3 0.265830 0.660660 0.268180 1.013911
Cr4   Cr    Cr6+3 0.734170 0.660660 0.731820 1.018409
Cr5   Cr    Cr6+3 0.612110 0.009150 0.248770 1.019519
Cr6   Cr    Cr6+3 0.387890 0.009150 0.751230 1.020737
Cr7   Cr    Cr6+3 0.112110 0.509150 0.248770 1.019158
Cr8   Cr    Cr6+3 0.887890 0.509150 0.751230 1.019451
Cr9   Cr    Cr6+3 0.615930 0.324050 0.248450 1.021801
Cr10  Cr    Cr6+3 0.384070 0.324050 0.751550 1.021340
Cr11  Cr    Cr6+3 0.115930 0.824050 0.248450 1.023527
Cr12  Cr    Cr6+3 0.884070 0.824050 0.751550 1.019965
H1    H     H_    0.699442 0.255623 0.476096 0.109253
H2    H     H_    0.300903 0.254778 0.524062 0.109271
H3    H     H_    0.149019 0.865674 0.470635 0.121118
H4    H     H_    0.850890 0.863883 0.529519 0.121539
H5    H     H_    0.655396 0.463055 0.541434 0.126689
H6    H     H_    0.344547 0.461860 0.458625 0.126423
H7    H     H_    0.181435 0.104924 0.521332 0.129448
H8    H     H_    0.818349 0.103607 0.478548 0.129581
H9    H     H_    0.692236 0.601319 0.428939 0.118283
H10   H     H_    0.307188 0.600409 0.570916 0.117413
H11   H     H_    0.275219 0.126615 0.419009 0.123675
H12   H     H_    0.724484 0.126774 0.580721 0.123527
H13   H     H_    0.381980 0.032693 0.521204 0.118321
H14   H     H_    0.617880 0.034345 0.478536 0.118511
H15   H     H_    0.829102 0.639318 0.510856 0.101374
H16   H     H_    0.170399 0.639838 0.488779 0.101254
H17   H     H_    0.834409 0.281265 0.556829 0.127618
H18   H     H_    0.165970 0.281759 0.443118 0.127704
H19   H     H_    0.252563 0.776347 0.573304 0.123546
H20   H     H_    0.747463 0.775980 0.426854 0.124759
H21   H     H_    0.589022 0.173971 0.922139 0.134186
H22   H     H_    0.571722 0.357752 0.022490 0.126995
H23   H     H_    0.089168 0.678464 0.922237 0.131723
H24   H     H_    0.069656 0.860120 0.023079 0.128545
H25   H     H_    0.411648 0.173118 0.077878 0.135241
H26   H     H_    0.428620 0.989529 0.976720 0.130746
H27   H     H_    0.911694 0.668608 0.077779 0.134232
H28   H     H_    0.930836 0.487153 0.976118 0.125327
O1    O     O_R   0.783230 0.287800 0.346510 -0.528308
O2    O     O_R   0.216770 0.287800 0.653490 -0.532047
O3    O     O_R   0.283230 0.787800 0.346510 -0.525263
O4    O     O_R   0.716770 0.787800 0.653490 -0.529062
O5    O     O_R   0.554500 0.081650 0.170370 -0.491185
O6    O     O_R   0.445500 0.081650 0.829630 -0.494772
O7    O     O_R   0.054500 0.581650 0.170370 -0.491551
O8    O     O_R   0.945500 0.581650 0.829630 -0.505193
O9    O     O_R   0.545430 0.285140 0.163100 -0.509313
O10   O     O_R   0.454570 0.285140 0.836900 -0.505875
O11   O     O_R   0.045430 0.785140 0.163100 -0.509516
O12   O     O_R   0.954570 0.785140 0.836900 -0.502600
O13   O     O_R   0.677850 0.374730 0.185500 -0.501095
O14   O     O_R   0.322150 0.374730 0.814500 -0.510765
O15   O     O_R   0.177850 0.874730 0.185500 -0.498295
O16   O     O_R   0.822150 0.874730 0.814500 -0.508836
O17   O     O_3   0.664630 0.164620 0.255130 -0.310658
O18   O     O_3   0.335370 0.164620 0.744870 -0.293019
O19   O     O_3   0.164630 0.664620 0.255130 -0.312326
O20   O     O_3   0.835370 0.664620 0.744870 -0.305914
O21   O     O_R   0.760130 0.037060 0.338610 -0.496824
O22   O     O_R   0.239870 0.037060 0.661390 -0.497982
O23   O     O_R   0.260130 0.537060 0.338610 -0.503224
O24   O     O_R   0.739870 0.537060 0.661390 -0.497247
O25   O     O_R   0.666620 0.921370 0.332440 -0.512329
O26   O     O_R   0.333380 0.921370 0.667560 -0.515464
O27   O     O_R   0.166620 0.421370 0.332440 -0.512862
O28   O     O_R   0.833380 0.421370 0.667560 -0.509554
O29   O     O_R   0.557170 0.082420 0.312350 -0.507910
O30   O     O_R   0.442830 0.082420 0.687650 -0.510877
O31   O     O_R   0.057170 0.582420 0.312350 -0.506062
O32   O     O_R   0.942830 0.582420 0.687650 -0.508762
O33   O     O_R   0.548310 0.285980 0.316250 -0.499558
O34   O     O_R   0.451690 0.285980 0.683750 -0.498513
O35   O     O_R   0.048310 0.785980 0.316250 -0.501364
O36   O     O_R   0.951690 0.785980 0.683750 -0.500308
O37   O     O_R   0.680520 0.375500 0.327470 -0.497927
O38   O     O_R   0.319480 0.375500 0.672530 -0.502277
O39   O     O_R   0.180520 0.875500 0.327470 -0.497801
O40   O     O_R   0.819480 0.875500 0.672530 -0.500167
O41   O     O_R   0.780350 0.286970 0.193350 -0.495436
O42   O     O_R   0.219650 0.286970 0.806650 -0.503915
O43   O     O_R   0.280350 0.786970 0.193350 -0.492227
O44   O     O_R   0.719650 0.786970 0.806650 -0.508865
O45   O     O_R   0.757460 0.036290 0.196640 -0.502744
O46   O     O_R   0.242540 0.036290 0.803360 -0.487806
O47   O     O_R   0.257460 0.536290 0.196640 -0.505067
O48   O     O_R   0.742540 0.536290 0.803360 -0.477778
O49   O     O_R   0.663740 0.920540 0.179290 -0.509095
O50   O     O_R   0.336260 0.920540 0.820710 -0.512584
O51   O     O_R   0.163740 0.420540 0.179290 -0.507902
O52   O     O_R   0.836260 0.420540 0.820710 -0.500869
C97   C     C_3   0.893685 0.421903 0.442730 -0.383007
H29   H     H_    0.935726 0.440829 0.485279 0.129213
H30   H     H_    0.900220 0.326726 0.423940 0.153082
H31   H     H_    0.896198 0.487984 0.399637 0.144819
C98   C     C_3   0.106198 0.422476 0.557010 -0.383952
H32   H     H_    0.064129 0.441473 0.514383 0.130018
H33   H     H_    0.100034 0.327317 0.575893 0.152828
H34   H     H_    0.103367 0.488536 0.600027 0.142335
C99   C     C_3   0.368574 0.772633 0.475401 -0.375902
H35   H     H_    0.399826 0.754822 0.526330 0.122557
H36   H     H_    0.346166 0.685118 0.454357 0.157219
H37   H     H_    0.402375 0.810548 0.439162 0.147445
C100  C     C_3   0.631309 0.774292 0.524692 -0.375754
H38   H     H_    0.600054 0.756985 0.473778 0.122773
H39   H     H_    0.653700 0.686401 0.545818 0.157374
H40   H     H_    0.597509 0.812839 0.560893 0.146662
H41   H     H_    0.573550 0.990213 0.023520 0.130567
H42   H     H_    0.427345 0.357009 0.977287 0.128898
H43   H     H_    0.075599 0.492568 0.022969 0.129636
H44   H     H_    0.925464 0.854611 0.977795 0.128475

loop_
_geom_bond_atom_site_label_1
_geom_bond_atom_site_label_2
_ccdc_geom_bond_type
C58   C62   S    
Cr9   O17   S    
Cr2   O18   S    
C77   O9    A    
C67   C83   S    
Cr10  O14   S    
Cr3   O23   S    
C97   H31   S    
C17   C29   S    
C100  H38   S    
C14   C18   S    
C19   C23   S    
C35   C36   S    
C8    C96   S    
C44   C80   S    
C19   C31   S    
C2    O26   A    
C40   H44   S    
C94   H6    S    
C38   C49   S    
Cr11  O35   S    
C10   C22   S    
C15   C19   S    
C98   H32   S    
Cr6   O50   S    
Cr9   O33   S    
Cr2   O2    S    
C33   C42   S    
C3    C30   S    
C9    C69   S    
C38   C42   S    
C36   H24   S    
C15   C95   S    
C11   C71   S    
C66   C82   S    
C4    O28   A    
C43   C79   S    
C71   O39   A    
C7    C27   S    
C84   O44   A    
C12   C24   S    
C26   H18   S    
C41   C49   S    
C57   C61   S    
C97   H30   S    
C25   H17   S    
C9    C13   S    
Cr4   O4    S    
C59   C67   T    
Cr12  O16   S    
C55   C74   S    
C51   H27   S    
C17   H15   S    
C79   O7    A    
C20   C24   S    
C95   H7    S    
C80   O8    A    
C55   C63   T    
C56   C64   T    
C22   C98   S    
C18   C30   S    
Cr1   O17   S    
Cr2   O42   S    
C18   C22   S    
Cr10  O18   S    
C73   O45   A    
Cr6   O18   S    
C20   H14   S    
C4    C29   S    
C76   O52   A    
Cr6   O6    S    
C16   C20   S    
C46   C85   S    
Cr11  O15   S    
C44   C52   S    
C11   C15   S    
C72   O40   A    
C39   C52   S    
C12   C72   S    
C75   O47   A    
Cr5   O25   S    
Cr6   O30   S    
C48   O36   A    
C87   C92   T    
C25   C29   S    
C47   O35   A    
C6    H2    S    
Cr3   O3    S    
C97   H29   S    
C34   C41   S    
C27   H19   S    
C100  H39   S    
Cr5   O49   S    
Cr1   O1    S    
C73   O49   A    
C29   C93   S    
C58   C66   T    
C7    C11   S    
C83   O15   A    
C69   O1    A    
Cr8   O52   S    
C24   C100  S    
C16   C96   S    
C27   C31   S    
C51   C52   S    
C68   C84   S    
C12   C16   S    
C21   C97   S    
C36   C40   S    
C39   H43   S    
C10   C14   S    
C96   H8    S    
C91   C92   S    
C78   O10   A    
C71   O3    A    
C54   C62   T    
C6    C94   S    
Cr11  O11   S    
C78   O6    A    
C69   O37   A    
C33   C37   S    
C46   O34   A    
C13   C93   S    
Cr1   O41   S    
Cr1   O21   S    
Cr3   O43   S    
Cr2   O46   S    
C99   H37   S    
C35   C39   S    
C5    C9    S    
Cr8   O32   S    
C47   O31   A    
Cr4   O24   S    
C13   H9    S    
Cr12  O20   S    
C88   C91   T    
C28   C32   S    
C8    C12   S    
C98   H34   S    
Cr9   O9    S    
C82   O42   A    
C98   H33   S    
C33   C34   S    
Cr10  O38   S    
C48   C87   S    
Cr7   O51   S    
C1    O21   A    
C3    O23   A    
C93   H5    S    
Cr7   O31   S    
Cr8   O20   S    
Cr5   O29   S    
C35   C44   S    
C70   O38   A    
C34   H22   S    
C82   O14   A    
C22   C26   S    
C42   C50   S    
C79   O11   A    
C10   C70   S    
Cr7   O19   S    
C32   C96   S    
C80   O12   A    
C70   O2    A    
C23   C27   S    
Cr12  O36   S    
C50   H26   S    
C52   H28   S    
C100  H40   S    
Cr3   O19   S    
C59   C63   S    
C53   C76   S    
Cr4   O20   S    
C9    C21   S    
Cr5   O17   S    
C53   C61   T    
Cr4   O44   S    
C35   H23   S    
C24   C28   S    
C7    C95   S    
Cr6   O26   S    
C42   C78   S    
C14   H10   S    
C20   C32   S    
C33   H21   S    
C21   C25   S    
C19   H13   S    
C56   C73   S    
C38   H42   S    
C16   H12   S    
Cr5   O5    S    
C34   C38   S    
Cr3   O47   S    
C84   O16   A    
C75   O51   A    
C72   O4    A    
C57   C65   T    
C86   C89   T    
Cr7   O7    S    
C6    C10   S    
C5    C93   S    
C85   C90   T    
Cr1   O45   S    
C6    C26   S    
C74   O46   A    
C3    O27   A    
C7    H3    S    
C40   C51   S    
Cr9   O13   S    
C23   C99   S    
Cr7   O27   S    
C83   O43   A    
Cr10  O10   S    
C13   C17   S    
C60   C64   S    
C60   C68   T    
C47   C88   S    
C99   H36   S    
C45   C86   S    
C81   O41   A    
C30   C94   S    
C41   C77   S    
C37   C50   S    
C43   C51   S    
Cr8   O28   S    
C4    O24   A    
C37   H41   S    
Cr11  O39   S    
C26   C30   S    
C81   O13   A    
Cr12  O40   S    
C11   C23   S    
C8    H4    S    
C15   H11   S    
C1    C32   S    
C37   C41   S    
C99   H35   S    
Cr4   O48   S    
C77   O5    A    
C31   C95   S    
C46   O30   A    
C1    O25   A    
C54   C75   S    
Cr2   O22   S    
C40   C44   S    
C2    O22   A    
C39   C43   S    
C8    C28   S    
C49   C50   S    
Cr10  O34   S    
C49   H25   S    
C65   C81   S    
C2    C31   S    
C36   C43   S    
Cr9   O37   S    
C5    H1    S    
Cr12  O12   S    
C89   C90   S    
C76   O48   A    
Cr8   O8    S    
C45   O29   A    
C48   O32   A    
C14   C94   S    
Cr11  O19   S    
C45   O33   A    
C28   H20   S    
C18   H16   S    
C74   O50   A    
C5    C25   S    
C17   C21   S    
