data_mof_unit_40925.cif
_audit_creation_date              2012-10-26T19:40:32-0400
_audit_creation_method            fapswitch 2.2
_symmetry_space_group_name_H-M    P1
_symmetry_Int_Tables_number       1
_space_group_crystal_system       triclinic
_cell_length_a                    9.778399
_cell_length_b                    10.960538
_cell_length_c                    13.369755
_cell_angle_alpha                 89.015451
_cell_angle_beta                  71.660144
_cell_angle_gamma                 88.020386
_cell_volume                      1359.29912928

loop_
_atom_site_label
_atom_site_type_symbol
_atom_type_description
_atom_site_fract_x
_atom_site_fract_y
_atom_site_fract_z
_atom_type_partial_charge
C1    C     C_R   0.496332 0.734474 0.503080 0.582454
C2    C     C_R   0.374922 0.509584 0.817725 -0.040656
C3    C     C_2   0.559584 0.064917 0.546257 0.407626
C4    C     C_R   0.421580 0.500227 0.700939 0.593501
C5    C     C_2   0.525608 0.136699 0.473843 -0.005007
C6    C     C_2   0.582132 0.933010 0.534504 0.370066
C7    C     C_2   0.482930 0.866488 0.512846 0.311895
C8    C     C_2   0.069576 0.597080 0.501816 0.138624
C9    C     C_2   0.908165 0.587490 0.534120 0.520730
C10   C     C_R   0.504875 0.266272 0.495184 0.608933
C11   C     C_R   0.578485 0.495295 0.300040 0.594603
C12   C     C_R   0.449888 0.507911 0.977297 -0.068613
C13   C     C_R   0.738569 0.326943 0.046309 -0.090432
C14   C     C_R   0.625309 0.468172 0.187313 0.061395
C15   C     C_R   0.251544 0.582354 0.871615 -0.030484
C16   C     C_R   0.227321 0.613568 0.976682 0.344542
C17   C     C_R   0.325899 0.579758 0.027517 -0.052840
C18   C     C_R   0.547908 0.098675 0.362696 0.008914
C19   C     C_R   0.453033 0.142131 0.308895 -0.060364
C20   C     C_R   0.480936 0.116578 0.202061 -0.118510
C21   C     C_R   0.602793 0.046520 0.147853 -0.064337
C22   C     C_R   0.698774 0.004008 0.199748 -0.047724
C23   C     C_R   0.466357 0.462195 0.875154 -0.072894
C24   C     C_R   0.672788 0.031079 0.306035 -0.065011
C25   C     C_R   0.127316 0.711639 0.447691 0.001496
C26   C     C_R   0.211575 0.709569 0.341138 -0.061225
C27   C     C_R   0.245265 0.818480 0.284033 -0.052707
C28   C     C_R   0.195067 0.929922 0.332899 -0.084603
C29   C     C_R   0.113150 0.933115 0.439252 -0.014818
C30   C     C_R   0.078804 0.824589 0.496253 0.023570
C31   C     C_R   0.930516 0.424914 0.417167 0.168690
C32   C     C_R   0.929278 0.297804 0.430989 0.018686
C33   C     C_R   0.995483 0.221173 0.345913 -0.104061
C34   C     C_R   0.550725 0.471564 0.029869 -0.043584
C35   C     C_R   0.068098 0.270443 0.247284 -0.058528
C36   C     C_R   0.068439 0.396771 0.232335 -0.066872
C37   C     C_R   0.997455 0.473828 0.316191 -0.084673
C38   C     C_R   0.143252 0.629106 0.823608 0.076149
C39   C     C_R   0.029575 0.554983 0.822209 -0.022500
C40   C     C_R   0.908299 0.606501 0.801645 -0.056612
C41   C     C_R   0.899426 0.732078 0.783590 -0.065976
C42   C     C_R   0.014086 0.805589 0.781787 -0.103746
C43   C     C_R   0.135966 0.754363 0.801380 -0.037294
C44   C     C_R   0.651489 0.374722 0.988221 -0.128931
C45   C     C_R   0.659428 0.323252 0.891646 0.403472
C46   C     C_R   0.569140 0.366286 0.835696 0.438947
C47   C     C_R   0.552029 0.525564 0.124689 0.306839
C48   C     C_R   0.720353 0.369415 0.147415 0.302358
Cu1   Cu    Cu3+1 0.361370 0.499980 0.499980 1.093705
Cu2   Cu    Cu3+1 0.638630 0.500020 0.500020 1.139914
F1    F     F_    0.787443 0.308659 0.208717 -0.646082
F2    F     F_    0.567959 0.113228 0.636971 -0.523047
F3    F     F_    0.699046 0.880875 0.554293 -0.590016
F4    F     F_    0.358959 0.921733 0.507486 -0.688879
F5    F     F_    0.085178 0.407953 0.559975 -0.553385
F6    F     F_    0.823723 0.676463 0.594058 -0.609542
F7    F     F_    0.753106 0.228506 0.851863 -0.580741
F8    F     F_    0.489871 0.636920 0.155349 -0.684186
F9    F     F_    0.106901 0.679111 0.030716 -0.643191
F10   F     F_    0.573345 0.304065 0.748123 -0.518218
H1    H     H_    0.813312 0.250787 0.016910 0.201997
H2    H     H_    0.217896 0.013608 0.287916 0.097059
H3    H     H_    0.075852 0.019478 0.477880 0.145178
H4    H     H_    0.012119 0.829145 0.577539 0.176105
H5    H     H_    0.874009 0.258201 0.507173 0.193736
H6    H     H_    0.987011 0.123650 0.355716 0.098959
H7    H     H_    0.119579 0.210706 0.181634 0.118924
H8    H     H_    0.118881 0.434362 0.154855 0.131860
H9    H     H_    0.991733 0.571137 0.302285 0.108082
H10   H     H_    0.031934 0.458825 0.841925 0.146640
H11   H     H_    0.819571 0.549796 0.802417 0.146603
H12   H     H_    0.295816 0.603460 0.109484 0.186884
H13   H     H_    0.803675 0.772624 0.770948 0.208837
H14   H     H_    0.007218 0.902721 0.767306 0.163696
H15   H     H_    0.221364 0.813077 0.804548 0.145402
H16   H     H_    0.357189 0.195857 0.349200 0.139235
H17   H     H_    0.407733 0.151055 0.161307 0.101187
H18   H     H_    0.623903 0.026676 0.065243 0.155669
H19   H     H_    0.794777 0.951751 0.157125 0.145885
H20   H     H_    0.752292 0.001725 0.343000 0.110609
H21   H     H_    0.244286 0.623595 0.301026 0.152872
H22   H     H_    0.306809 0.816716 0.201188 0.185443
N1    N     N_2   0.152660 0.501340 0.501130 -0.017659
N2    N     N_2   0.846520 0.501370 0.501160 -0.228983
O1    O     O_R   0.382960 0.678040 0.499980 -0.498464
O2    O     O_R   0.617100 0.678080 0.500020 -0.441405
O3    O     O_R   0.325800 0.499940 0.650950 -0.481149
O4    O     O_R   0.559930 0.499980 0.650990 -0.423712
O5    O     O_R   0.382900 0.321920 0.499980 -0.459512
O6    O     O_R   0.617040 0.321960 0.500020 -0.469965
O7    O     O_R   0.440070 0.500020 0.349010 -0.526405
O8    O     O_R   0.674200 0.500060 0.349050 -0.490425

loop_
_geom_bond_atom_site_label_1
_geom_bond_atom_site_label_2
_ccdc_geom_bond_type
C29   H3    S    
C40   H11   S    
C30   H4    S    
C8    N1    D    
C41   C42   A    
Cu1   O3    S    
C19   C20   A    
C3    C6    S    
Cu2   N2    S    
C4    O3    A    
C45   C46   A    
C12   C23   A    
C45   F7    S    
C26   C27   A    
C20   H17   S    
C18   C24   A    
C19   H16   S    
C22   H19   S    
C37   H9    S    
C38   C39   A    
C11   C14   S    
C15   C16   A    
C25   C30   A    
C18   C19   A    
C11   O8    A    
C24   H20   S    
C48   F1    S    
C35   C36   A    
C10   O5    A    
C8    C9    S    
C21   H18   S    
Cu2   O4    S    
C23   C46   A    
C21   C22   A    
C43   H15   S    
C8    C25   S    
Cu1   O7    S    
Cu2   O6    S    
C33   H6    S    
C1    O1    A    
C42   H14   S    
Cu1   O1    S    
C34   C44   A    
C39   C40   A    
C16   C17   A    
C14   C48   A    
C5    C18   S    
C25   C26   A    
C31   N2    S    
C31   C37   A    
C16   F9    S    
C12   C17   A    
C2    C4    S    
C15   C38   S    
C29   C30   A    
C31   C32   A    
C35   H7    S    
C9    F6    S    
C2    C15   A    
C6    C7    D    
Cu2   O8    S    
C40   C41   A    
C26   H21   S    
C22   C24   A    
C42   C43   A    
C6    F3    S    
C12   C34   A    
C2    C23   A    
C44   C45   A    
C1    O2    A    
C28   C29   A    
C46   F10   S    
C1    C7    S    
C27   H22   S    
Cu1   O5    S    
C3    C5    D    
C13   C48   A    
C3    F2    S    
C36   H8    S    
C14   C47   A    
C4    O4    A    
C32   C33   A    
Cu1   N1    S    
C38   C43   A    
C47   F8    S    
C33   C35   A    
C39   H10   S    
Cu2   O2    S    
C9    N2    D    
C41   H13   S    
C11   O7    A    
C5    C10   S    
C13   H1    S    
C20   C21   A    
C10   O6    A    
C17   H12   S    
C36   C37   A    
Cu1   Cu2   S    
C27   C28   A    
C34   C47   A    
C7    F4    S    
F5    N1    S    
C13   C44   A    
C32   H5    S    
C28   H2    S    
