data_mof_unit_61730.cif
_audit_creation_date              2012-10-26T18:46:11-0400
_audit_creation_method            fapswitch 2.2
_symmetry_space_group_name_H-M    P1
_symmetry_Int_Tables_number       1
_space_group_crystal_system       triclinic
_cell_length_a                    13.900306
_cell_length_b                    16.440566
_cell_length_c                    17.764161
_cell_angle_alpha                 90.778239
_cell_angle_beta                  90.277992
_cell_angle_gamma                 84.865351
_cell_volume                      4042.93345027

loop_
_atom_site_label
_atom_site_type_symbol
_atom_type_description
_atom_site_fract_x
_atom_site_fract_y
_atom_site_fract_z
_atom_type_partial_charge
C1    C     C_R   0.501523 0.500560 0.644815 0.565394
C2    C     C_R   0.562567 0.824849 0.547110 -0.139354
C3    C     C_R   0.438564 0.260916 0.453732 0.053358
C4    C     C_R   0.561497 0.739081 0.546216 0.053094
C5    C     C_R   0.561534 0.252940 0.546274 0.046140
C6    C     C_R   0.438410 0.747063 0.453769 0.046105
C7    C     C_R   0.562629 0.167028 0.547089 -0.138921
C8    C     C_R   0.437312 0.832975 0.452953 -0.138916
C9    C     C_R   0.500056 0.126922 0.499954 0.023721
C10   C     C_R   0.499944 0.873078 0.500038 0.023757
C11   C     C_1   0.500015 0.037296 0.499978 -0.023309
C12   C     C_R   0.498512 0.499435 0.355175 0.565205
C13   C     C_1   0.499984 0.962704 0.500012 -0.023308
C14   C     C_R   0.683377 0.486928 0.500048 0.551046
C15   C     C_R   0.316623 0.513072 0.499953 0.550886
C16   C     C_1   0.213588 0.521033 0.499857 -0.018005
C17   C     C_1   0.786412 0.478967 0.500146 -0.017945
C18   C     C_2   0.023320 0.533705 0.499686 -0.120337
C19   C     C_2   0.976680 0.466295 0.500321 -0.120342
C20   C     C_1   0.873160 0.472632 0.500232 -0.050786
C21   C     C_1   0.126840 0.527369 0.499773 -0.050808
C22   C     C_R   0.471282 0.428854 0.151832 0.119711
C23   C     C_R   0.521524 0.566801 0.154755 -0.147514
C24   C     C_R   0.529795 0.570895 0.848082 0.119733
C25   C     C_R   0.470590 0.428501 0.230976 0.136311
C26   C     C_R   0.530597 0.571139 0.768939 0.136366
C27   C     C_R   0.496489 0.497811 0.272072 0.019401
C28   C     C_R   0.503556 0.502194 0.727899 0.019559
C29   C     C_R   0.521036 0.566687 0.233047 -0.174557
C30   C     C_R   0.477823 0.433734 0.766953 -0.174575
C31   C     C_R   0.477233 0.433716 0.845245 -0.147489
C32   C     C_R   0.497202 0.498295 0.114157 0.025507
C33   C     C_R   0.502644 0.501897 0.885802 0.025471
C34   C     C_1   0.499119 0.499780 0.033693 -0.034035
C35   C     C_1   0.500660 0.500495 0.966267 -0.034057
C36   C     C_R   0.437495 0.175148 0.452834 -0.139296
Cu1   Cu    Cu3+1 0.500000 0.419580 0.500020 0.952573
Cu2   Cu    Cu3+1 0.500000 0.580420 0.499980 0.952538
H1    H     H_    0.015937 0.406095 0.500907 0.134987
H2    H     H_    0.610247 0.702808 0.582735 0.139981
H3    H     H_    0.610148 0.282906 0.582932 0.122448
H4    H     H_    0.389752 0.717099 0.417148 0.122370
H5    H     H_    0.612078 0.132241 0.584342 0.098458
H6    H     H_    0.387817 0.867764 0.415736 0.098427
H7    H     H_    0.386271 0.375945 0.076074 0.233700
H8    H     H_    0.503378 0.337006 0.076482 0.234270
H9    H     H_    0.615686 0.622794 0.923848 0.233790
H10   H     H_    0.499099 0.663088 0.923324 0.234195
H11   H     H_    0.488372 0.307616 0.253338 0.248966
H12   H     H_    0.984062 0.593906 0.499100 0.135002
H13   H     H_    0.371928 0.348325 0.252181 0.237936
H14   H     H_    0.514958 0.692033 0.746424 0.248855
H15   H     H_    0.630822 0.649917 0.747697 0.238060
H16   H     H_    0.540976 0.620455 0.263127 0.136903
H17   H     H_    0.457000 0.380254 0.736887 0.136805
H18   H     H_    0.541312 0.620412 0.125766 0.121308
H19   H     H_    0.456513 0.380440 0.874269 0.121325
H20   H     H_    0.388034 0.146786 0.415565 0.099026
H21   H     H_    0.612076 0.853208 0.584339 0.099057
H22   H     H_    0.389864 0.297188 0.417174 0.139708
N1    N     N_R   0.500030 0.298780 0.500030 -0.217655
N2    N     N_R   0.499970 0.701220 0.499970 -0.217683
N3    N     N_3   0.445269 0.358275 0.110728 -0.648683
N4    N     N_3   0.556969 0.641112 0.889138 -0.648629
N5    N     N_3   0.441968 0.358399 0.269379 -0.609302
N6    N     N_3   0.560542 0.640715 0.730465 -0.609776
O1    O     O_R   0.500010 0.432070 0.608760 -0.517788
O2    O     O_R   0.499990 0.567930 0.391240 -0.517816
O3    O     O_R   0.500000 0.567880 0.608730 -0.461332
O4    O     O_R   0.500000 0.432120 0.391270 -0.461168
O5    O     O_R   0.637850 0.422490 0.500000 -0.499298
O6    O     O_R   0.362150 0.577510 0.500000 -0.499354
O7    O     O_R   0.637840 0.558310 0.499970 -0.499633
O8    O     O_R   0.362160 0.441690 0.500030 -0.499783

loop_
_geom_bond_atom_site_label_1
_geom_bond_atom_site_label_2
_ccdc_geom_bond_type
C1    C28   S    
C2    C4    A    
Cu1   O8    S    
C31   C33   A    
C4    H2    S    
Cu1   Cu2   S    
C15   O6    A    
C7    H5    S    
C25   C27   A    
C18   C21   S    
C9    C11   S    
C30   H17   S    
C26   N6    S    
Cu1   N1    S    
C24   C33   A    
H8    N3    S    
C4    N2    A    
C3    H22   S    
C31   H19   S    
C28   C30   A    
Cu2   O3    S    
C5    N1    A    
C23   H18   S    
C24   N4    S    
C14   O5    A    
C10   C13   S    
Cu1   O4    S    
C23   C32   A    
H15   N6    S    
C12   O2    A    
C14   C17   S    
C6    N2    A    
C16   C21   T    
C2    H21   S    
C22   C32   A    
C3    C36   A    
C6    C8    A    
C23   C29   A    
C8    C10   A    
C1    O1    A    
C24   C26   A    
C14   O7    A    
C34   C35   T    
C36   H20   S    
Cu1   O5    S    
C6    H4    S    
C8    H6    S    
Cu2   O7    S    
Cu2   O6    S    
H10   N4    S    
C27   C29   A    
C29   H16   S    
C3    N1    A    
C15   C16   S    
C2    C10   A    
C9    C36   A    
Cu1   O1    S    
C11   C13   T    
C15   O8    A    
H14   N6    S    
C18   H12   S    
C19   H1    S    
C18   C19   D    
H13   N5    S    
H9    N4    S    
C7    C9    A    
C25   N5    S    
C12   O4    A    
C30   C31   A    
C5    H3    S    
C12   C27   S    
C33   C35   S    
C22   N3    S    
H11   N5    S    
C26   C28   A    
C17   C20   T    
H7    N3    S    
C1    O3    A    
C5    C7    A    
C19   C20   S    
Cu2   O2    S    
Cu2   N2    S    
C22   C25   A    
C32   C34   S    
