data_mof_unit_53643.cif
_audit_creation_date              2012-12-10T18:05:56-0500
_audit_creation_method            fapswitch 2.2
_symmetry_space_group_name_H-M    P1
_symmetry_Int_Tables_number       1
_space_group_crystal_system       triclinic
_cell_length_a                    12.712108
_cell_length_b                    13.172826
_cell_length_c                    14.839017
_cell_angle_alpha                 91.658792
_cell_angle_beta                  102.273061
_cell_angle_gamma                 82.464366
_cell_volume                      2407.09710699

loop_
_atom_site_label
_atom_site_type_symbol
_atom_type_description
_atom_site_fract_x
_atom_site_fract_y
_atom_site_fract_z
_atom_type_partial_charge
C1    C     C_R   0.439327 0.689956 0.478846 0.949824
C2    C     C_R   0.520442 0.408218 0.094719 0.117006
C3    C     C_R   0.440204 0.686666 0.042610 -0.206997
C4    C     C_R   0.443236 0.688495 0.949687 -0.135528
C5    C     C_R   0.471530 0.597461 0.903729 0.039852
C6    C     C_R   0.496913 0.503420 0.952580 0.004193
C7    C     C_R   0.524871 0.410576 0.908182 0.128021
C8    C     C_R   0.550033 0.318009 0.956799 -0.170412
C9    C     C_R   0.547970 0.316854 0.049952 -0.194491
C10   C     C_R   0.474639 0.597271 0.810134 0.299560
C11   C     C_R   0.501562 0.503917 0.767927 -0.127875
C12   C     C_R   0.500670 0.500706 0.672300 0.956934
C13   C     C_R   0.526649 0.411744 0.815540 -0.298386
C14   C     C_R   0.730409 0.051548 0.529793 -0.160025
C15   C     C_R   0.596493 0.199388 0.530624 -0.163086
C16   C     C_R   0.290564 0.839498 0.447772 0.088427
C17   C     C_R   0.268904 0.937448 0.484889 0.447737
C18   C     C_R   0.352317 0.997585 0.511497 -0.220810
C19   C     C_R   0.456420 0.966221 0.493087 0.000772
C20   C     C_R   0.479540 0.866516 0.459374 -0.029907
C21   C     C_R   0.539028 0.030565 0.508646 0.105759
C22   C     C_R   0.646437 0.990926 0.503399 0.021027
C23   C     C_R   0.560627 0.309182 0.516194 0.880675
C24   C     C_R   0.666415 0.895035 0.464757 -0.201761
C25   C     C_R   0.581515 0.837638 0.434688 0.396960
C26   C     C_R   0.515526 0.135491 0.520089 -0.248145
C27   C     C_R   0.706009 0.155323 0.548036 0.364474
C28   C     C_R   0.401060 0.798525 0.453763 -0.191455
C29   C     C_R   0.112193 0.310269 0.426577 -0.301710
C30   C     C_R   0.799279 0.640086 0.601001 0.172991
C31   C     C_R   0.890622 0.687592 0.593892 0.377972
C32   C     C_R   0.970541 0.634217 0.554578 -0.251467
C33   C     C_R   0.961082 0.534869 0.520943 -0.075676
C34   C     C_R   0.498684 0.500051 0.327513 0.893360
C35   C     C_R   0.857915 0.498865 0.509401 0.169258
C36   C     C_R   0.048352 0.472316 0.492845 0.031791
C37   C     C_R   0.035690 0.369937 0.466932 0.046028
C38   C     C_R   0.940409 0.331946 0.470413 -0.139204
C39   C     C_R   0.846925 0.401847 0.464030 0.231337
C40   C     C_R   0.148843 0.505257 0.490696 -0.109754
C41   C     C_R   0.202363 0.351959 0.414449 0.526530
C42   C     C_R   0.519806 0.408027 0.187925 -0.259583
C43   C     C_R   0.494712 0.500134 0.231489 -0.032408
C44   C     C_R   0.464987 0.592258 0.183851 -0.199014
C45   C     C_R   0.465969 0.594190 0.090869 0.113909
C46   C     C_R   0.494382 0.501963 0.045963 0.074663
H1    H     H_    0.540898 0.337281 0.227121 0.147524
H2    H     H_    0.745520 0.868987 0.450015 0.205698
H3    H     H_    0.814195 0.019133 0.534025 0.229828
H4    H     H_    0.432382 0.169508 0.512300 0.205064
H5    H     H_    0.333169 0.068867 0.545782 0.178284
H6    H     H_    0.932551 0.253458 0.448135 0.178078
H7    H     H_    0.098972 0.234423 0.399857 0.198496
H8    H     H_    0.441841 0.661999 0.219362 0.174938
H9    H     H_    0.172017 0.576813 0.519993 0.152685
H10   H     H_    0.040855 0.671545 0.553764 0.189210
H11   H     H_    0.418410 0.757668 0.076913 0.169481
H12   H     H_    0.423182 0.761540 0.914633 0.213363
H13   H     H_    0.546964 0.341064 0.779911 0.158207
H14   H     H_    0.571449 0.246712 0.922787 0.161207
H15   H     H_    0.568106 0.244822 0.086994 0.160233
N1    N     N_R   0.222190 0.444670 0.452360 -0.143094
N2    N     N_R   0.776970 0.554790 0.547140 -0.151585
O1    O     O_R   0.366740 0.627160 0.477250 -0.637119
O2    O     O_R   0.544830 0.662520 0.507680 -0.593848
O3    O     O_R   0.410940 0.482340 0.616930 -0.598890
O4    O     O_R   0.589030 0.517700 0.647360 -0.634865
O5    O     O_R   0.455170 0.337480 0.492320 -0.582643
O6    O     O_R   0.633260 0.372840 0.522750 -0.591495
O7    O     O_R   0.410970 0.482300 0.352640 -0.579812
O8    O     O_R   0.589060 0.517660 0.383070 -0.590251
Zn1   Zn    Zn3+2 0.381090 0.476390 0.479680 1.001410
Zn2   Zn    Zn3+2 0.618910 0.523610 0.520320 0.988635
C47   C     C_3   0.196728 0.783524 0.399108 -0.364616
C48   C     C_3   0.132379 0.840287 0.312100 -0.794750
H16   H     H_    0.092816 0.916619 0.328303 0.298055
H17   H     H_    0.186939 0.849945 0.264425 0.256114
H18   H     H_    0.067926 0.795040 0.276303 0.249186
H19   H     H_    0.224487 0.706961 0.374088 0.225366
H20   H     H_    0.142340 0.773549 0.446836 0.242083
Cl1   Cl    Cl    0.139747 0.985297 0.505278 -0.586406
Cl2   Cl    Cl    0.601900 0.742075 0.352687 -0.678257
Cl3   Cl    Cl    0.287241 0.284280 0.347983 -0.604034
C49   C     C_3   0.735530 0.669216 0.676363 -0.340318
C50   C     C_3   0.780160 0.741251 0.753649 -0.774419
H21   H     H_    0.868400 0.719060 0.780573 0.283921
H22   H     H_    0.762243 0.822021 0.730031 0.304172
H23   H     H_    0.738374 0.736181 0.811678 0.250774
H24   H     H_    0.651154 0.701393 0.647085 0.268005
H25   H     H_    0.736764 0.597179 0.713293 0.235197
Cl4   Cl    Cl    0.909480 0.814622 0.627399 -0.615262
C51   C     C_3   0.773243 0.389913 0.370175 -0.376712
C52   C     C_3   0.776949 0.476518 0.304245 -0.764215
H26   H     H_    0.751421 0.552835 0.331591 0.308657
H27   H     H_    0.861199 0.475604 0.294124 0.239724
H28   H     H_    0.724202 0.465351 0.235940 0.251706
H29   H     H_    0.800219 0.318975 0.334012 0.174680
H30   H     H_    0.693139 0.372292 0.375919 0.225673
Cl5   Cl    Cl    0.443978 0.711756 0.744274 -0.650847
Cl6   Cl    Cl    0.813543 0.223554 0.598018 -0.593579

loop_
_geom_bond_atom_site_label_1
_geom_bond_atom_site_label_2
_ccdc_geom_bond_type
C16   C28   A    
C21   C26   A    
C52   H26   S    
C23   O6    A    
C19   C20   A    
C43   C44   A    
C51   H30   S    
C7    C8    A    
C45   C46   A    
C2    C46   A    
C9    H15   S    
C36   C37   A    
C19   C21   A    
C26   H4    S    
C30   C31   A    
C14   H3    S    
C38   H6    S    
C20   C25   A    
C41   Cl3   S    
C33   C36   A    
C40   N1    A    
C18   C19   A    
O3    Zn1   S    
C8    C9    A    
C18   H5    S    
C1    C28   S    
C1    O2    A    
O6    Zn2   S    
O4    Zn2   S    
C14   C27   A    
C34   O7    A    
C15   C23   S    
C52   H27   S    
C47   H20   S    
C21   C22   A    
C49   H25   S    
C41   N1    A    
C51   H29   S    
C50   H22   S    
C38   C39   A    
C12   O4    A    
C27   Cl6   S    
C47   C48   S    
C24   H2    S    
C36   C40   A    
C24   C25   A    
O2    Zn2   S    
O8    Zn2   S    
C16   C17   A    
C15   C26   A    
C20   C28   A    
C50   H21   S    
C12   O3    A    
C3    C45   A    
C23   O5    A    
C35   C39   A    
C48   H16   S    
C37   C38   A    
C15   C27   A    
C31   C32   A    
O5    Zn1   S    
C40   H9    S    
C17   C18   A    
N1    Zn1   S    
C49   C50   S    
C48   H17   S    
C13   H13   S    
C3    H11   S    
C52   H28   S    
C31   Cl4   S    
C47   H19   S    
C25   Cl2   S    
C22   C24   A    
C42   C43   A    
C29   C37   A    
C3    C4    A    
C1    O1    A    
C39   C51   S    
C44   C45   A    
C50   H23   S    
C6    C46   A    
C29   C41   A    
C34   C43   S    
C4    C5    A    
O7    Zn1   S    
C11   C12   S    
C6    C7    A    
C16   C47   S    
N2    Zn2   S    
C32   C33   A    
C14   C22   A    
C5    C10   A    
C8    H14   S    
C11   C13   A    
C5    C6    A    
C29   H7    S    
C2    C42   A    
C51   C52   S    
C33   C35   A    
C17   Cl1   S    
C42   H1    S    
O1    Zn1   S    
C30   C49   S    
C10   Cl5   S    
C48   H18   S    
C10   C11   A    
C44   H8    S    
C7    C13   A    
C49   H24   S    
C4    H12   S    
C35   N2    A    
C30   N2    A    
C2    C9    A    
C34   O8    A    
C32   H10   S    
