data_mof_unit_16757.cif
_audit_creation_date              2012-12-10T17:22:42-0500
_audit_creation_method            fapswitch 2.2
_symmetry_space_group_name_H-M    P1
_symmetry_Int_Tables_number       1
_space_group_crystal_system       triclinic
_cell_length_a                    10.627913
_cell_length_b                    10.760252
_cell_length_c                    9.646633
_cell_angle_alpha                 90.631325
_cell_angle_beta                  90.042075
_cell_angle_gamma                 94.518355
_cell_volume                      1099.68281626

loop_
_atom_site_label
_atom_site_type_symbol
_atom_type_description
_atom_site_fract_x
_atom_site_fract_y
_atom_site_fract_z
_atom_type_partial_charge
C1    C     C_R   0.491123 0.262384 0.499400 0.878494
C2    C     C_3   0.966476 0.610763 0.540601 -0.218093
C3    C     C_3   0.048485 0.585900 0.411986 -0.234504
C4    C     C_3   0.122729 0.498880 0.500298 -0.039271
C5    C     C_R   0.274778 0.109506 0.633687 0.294908
C6    C     C_R   0.182740 0.032597 0.705721 0.465806
C7    C     C_R   0.189722 0.903558 0.705234 -0.276404
C8    C     C_R   0.288221 0.850258 0.639063 -0.276788
C9    C     C_R   0.384225 0.924423 0.571422 0.025566
C10   C     C_R   0.379234 0.055850 0.569275 0.001367
C11   C     C_R   0.477201 0.127327 0.497354 -0.050702
C12   C     C_R   0.259660 0.499982 0.500012 0.840382
C13   C     C_R   0.567811 0.069231 0.421007 -0.224921
C14   C     C_R   0.569527 0.941651 0.420907 -0.217407
C15   C     C_R   0.482297 0.869612 0.499627 -0.057223
C16   C     C_R   0.685802 0.645809 0.151508 -0.073341
C17   C     C_R   0.797905 0.687523 0.090137 -0.233354
C18   C     C_R   0.807837 0.681281 0.948779 -0.271471
C19   C     C_R   0.699729 0.648847 0.868132 0.550706
C20   C     C_R   0.594727 0.573197 0.927918 0.069802
C21   C     C_R   0.591862 0.572687 0.077379 0.052701
C22   C     C_R   0.412354 0.429178 0.072984 0.571582
C23   C     C_R   0.494456 0.736652 0.500263 0.784583
C24   C     C_R   0.413914 0.428776 0.924526 -0.168717
C25   C     C_R   0.740190 0.498964 0.499876 0.795887
C26   C     C_3   0.034445 0.384666 0.458993 -0.246228
C27   C     C_3   0.958152 0.472179 0.373413 0.549515
C28   C     C_3   0.876892 0.497642 0.499284 -0.055430
C29   C     C_3   0.951611 0.410277 0.587272 -0.216651
C30   C     C_3   0.042905 0.523817 0.628920 -0.119137
Cu1   Cu    Cu3+1 0.499990 0.499990 0.640660 0.990178
Cu2   Cu    Cu3+1 0.500010 0.500010 0.359340 0.984770
H1    H     H_    0.116071 0.843462 0.753275 0.156244
H2    H     H_    0.285798 0.749789 0.638627 0.175478
H3    H     H_    0.642752 0.899012 0.363327 0.134665
H4    H     H_    0.678650 0.670847 0.257796 0.195009
H5    H     H_    0.874661 0.731344 0.151745 0.161911
H6    H     H_    0.894398 0.719833 0.901254 0.147289
H7    H     H_    0.346284 0.368099 0.867090 0.168983
H8    H     H_    0.064968 0.292376 0.426855 0.157873
H9    H     H_    0.909396 0.338916 0.659371 0.167030
H10   H     H_    0.080483 0.545114 0.734694 0.141385
H11   H     H_    0.936685 0.702961 0.574307 0.164253
H12   H     H_    0.090409 0.656685 0.339034 0.138107
H13   H     H_    0.640291 0.123446 0.363874 0.132546
N1    N     N_R   0.501210 0.501210 0.147910 -0.224226
N2    N     N_R   0.501250 0.501290 0.852040 -0.207705
O1    O     O_R   0.499990 0.319640 0.618810 -0.557152
O2    O     O_R   0.500000 0.319660 0.381240 -0.553599
O3    O     O_R   0.316850 0.499960 0.618770 -0.584666
O4    O     O_R   0.316860 0.499980 0.381190 -0.551238
O5    O     O_R   0.500000 0.680340 0.618760 -0.525823
O6    O     O_R   0.500010 0.680360 0.381190 -0.616973
O7    O     O_R   0.683140 0.500020 0.618810 -0.532440
O8    O     O_R   0.683150 0.500040 0.381230 -0.592502
O9    O     O_3   0.912945 0.452123 0.236589 -0.580408
C31   C     C_3   0.856206 0.329711 0.221586 -0.300613
H14   H     H_    0.788603 0.304097 0.306306 0.154173
H15   H     H_    0.928698 0.261097 0.216251 0.126923
H16   H     H_    0.802678 0.323223 0.122666 0.194928
O10   O     O_3   0.328101 0.348629 0.143742 -0.558875
C32   C     C_3   0.203310 0.374434 0.112130 -0.302520
H17   H     H_    0.175099 0.340782 0.006583 0.138935
H18   H     H_    0.188817 0.475391 0.124610 0.177736
H19   H     H_    0.139957 0.322788 0.185949 0.197821
O11   O     O_3   0.699009 0.697879 0.736870 -0.547719
C33   C     C_3   0.713158 0.830078 0.742497 -0.337368
H20   H     H_    0.806151 0.867230 0.784157 0.160426
H21   H     H_    0.635017 0.868113 0.802262 0.174133
H22   H     H_    0.710515 0.865538 0.635602 0.181813
O12   O     O_3   0.260777 0.235169 0.619623 -0.754720
H23   H     H_    0.188795 0.260107 0.675651 0.351957
O13   O     O_3   0.078800 0.083351 0.763592 -0.602701
C34   C     C_3   0.082576 0.071104 0.908986 -0.380319
H24   H     H_    0.176181 0.105406 0.952753 0.180210
H25   H     H_    0.057744 0.973019 0.939849 0.166847
H26   H     H_    0.011121 0.128835 0.955315 0.188289

loop_
_geom_bond_atom_site_label_1
_geom_bond_atom_site_label_2
_ccdc_geom_bond_type
C16   C21   A    
O13   C34   S    
C19   C20   A    
C1    C11   S    
Cu1   O5    S    
C31   H14   S    
C7    C8    A    
C25   C28   S    
C26   C27   S    
C32   H17   S    
C34   H25   S    
C28   C29   S    
C5    C6    A    
C31   H15   S    
C24   H7    S    
O9    C31   S    
C19   O11   S    
C18   C19   A    
C32   H18   S    
C8    C9    A    
C34   H26   S    
C4    C12   S    
C9    C10   A    
Cu2   O8    S    
C15   C23   S    
O11   C33   S    
Cu1   N2    S    
C13   C14   A    
C7    H1    S    
C23   O6    A    
C3    H12   S    
C34   H24   S    
C33   H20   S    
C25   O7    A    
C14   H3    S    
C27   O9    S    
C16   C17   A    
C31   H16   S    
C8    H2    S    
C33   H21   S    
Cu2   O4    S    
C29   C30   S    
C4    C26   S    
Cu1   Cu2   S    
C2    H11   S    
C17   C18   A    
C17   H5    S    
C22   N1    A    
Cu1   O1    S    
C22   C24   A    
Cu1   O3    S    
C3    C4    S    
Cu2   O6    S    
C12   O4    A    
C6    O13   S    
C21   N1    A    
C32   H19   S    
C29   H9    S    
C24   N2    A    
Cu2   N1    S    
C25   O8    A    
C12   O3    A    
C1    O1    A    
C6    C7    A    
C2    C30   S    
C33   H22   S    
C3    C27   S    
C2    C3    S    
C18   H6    S    
C5    C10   A    
C5    O12   S    
C16   H4    S    
C22   O10   S    
C13   H13   S    
C11   C13   A    
C26   H8    S    
C23   O5    A    
Cu1   O7    S    
C9    C15   A    
O10   C32   S    
Cu2   O2    S    
C20   N2    A    
C10   C11   A    
O12   H23   S    
C20   C21   A    
C26   C29   S    
C27   C28   S    
C14   C15   A    
C30   H10   S    
C2    C28   S    
C1    O2    A    
C4    C30   S    
