data_mof_unit_44683.cif
_audit_creation_date              2013-03-05T15:41:17-0500
_audit_creation_method            fapswitch 2.2
_symmetry_space_group_name_H-M    P1
_symmetry_Int_Tables_number       1
_space_group_crystal_system       triclinic
_cell_length_a                    17.035037
_cell_length_b                    17.040935
_cell_length_c                    16.983128
_cell_angle_alpha                 65.585969
_cell_angle_beta                  66.092058
_cell_angle_gamma                 66.610799
_cell_volume                      3945.05896347

loop_
_atom_site_label
_atom_site_type_symbol
_atom_site_description
_atom_site_fract_x
_atom_site_fract_y
_atom_site_fract_z
_atom_type_partial_charge
O1    O     O_R   0.982940 0.138950 0.510160 -0.557478
O2    O     O_R   0.017060 0.861050 0.489840 -0.596897
O3    O     O_R   0.138950 0.510160 0.982940 -0.568146
O4    O     O_R   0.861050 0.489840 0.017060 -0.610446
O5    O     O_R   0.510160 0.982940 0.138950 -0.557985
O6    O     O_R   0.489840 0.017060 0.861050 -0.595927
O7    O     O_R   0.489840 0.861050 0.017060 -0.617026
O8    O     O_R   0.510160 0.138950 0.982940 -0.618890
O9    O     O_R   0.017060 0.489840 0.861050 -0.570168
O10   O     O_R   0.982940 0.510160 0.138950 -0.615715
O11   O     O_R   0.861050 0.017060 0.489840 -0.568419
O12   O     O_R   0.138950 0.982940 0.510160 -0.604590
C1    C     C_R   0.312641 0.008092 0.429109 -0.043289
C2    C     C_R   0.678170 0.034331 0.547142 -0.027889
C3    C     C_R   0.997377 0.439085 0.314014 -0.031304
C4    C     C_R   0.040546 0.544014 0.677213 -0.019706
C5    C     C_R   0.438107 0.313602 0.000689 -0.035796
C6    C     C_R   0.545556 0.676968 0.039522 -0.060304
C7    C     C_R   0.542826 0.048548 0.672668 -0.051255
C8    C     C_R   0.455225 0.955139 0.325452 -0.020203
C9    C     C_R   0.685118 0.562064 0.002751 -0.042424
C10   C     C_R   0.321153 0.453545 0.967366 -0.017554
C11   C     C_R   0.005060 0.684628 0.559733 -0.033059
C12   C     C_R   0.964324 0.320856 0.455120 -0.012560
O13   O     O_R   0.867700 0.025880 0.612340 -0.596700
O14   O     O_R   0.132300 0.974120 0.387660 -0.610609
O15   O     O_R   0.025880 0.612340 0.867700 -0.594046
O16   O     O_R   0.974120 0.387660 0.132300 -0.610039
O17   O     O_R   0.612340 0.867700 0.025880 -0.582655
O18   O     O_R   0.387660 0.132300 0.974120 -0.575080
O19   O     O_R   0.387660 0.974120 0.132300 -0.594624
O20   O     O_R   0.612340 0.025880 0.867700 -0.615315
O21   O     O_R   0.132300 0.387660 0.974120 -0.595059
O22   O     O_R   0.867700 0.612340 0.025880 -0.613514
O23   O     O_R   0.974120 0.132300 0.387660 -0.596684
O24   O     O_R   0.025880 0.867700 0.612340 -0.612590
C13   C     C_R   0.965216 0.179051 0.436794 0.952803
C14   C     C_R   0.023666 0.822821 0.567644 0.934826
C15   C     C_R   0.178697 0.436167 0.968081 0.946092
C16   C     C_R   0.822986 0.567416 0.023593 0.939685
C17   C     C_R   0.436983 0.963890 0.179593 0.965659
C18   C     C_R   0.563597 0.034022 0.820548 0.913859
C19   C     C_R   0.563540 0.820672 0.034405 0.918624
C20   C     C_R   0.432358 0.177003 0.977059 0.947448
C21   C     C_R   0.035397 0.563207 0.820662 0.948942
C22   C     C_R   0.975712 0.432546 0.177234 0.934985
C23   C     C_R   0.821088 0.033071 0.563905 0.924680
C24   C     C_R   0.176568 0.978389 0.431243 0.946884
C25   C     C_R   0.406680 0.986191 0.401615 -0.001608
C26   C     C_R   0.588494 0.031373 0.588938 -0.008235
C27   C     C_R   0.985825 0.403079 0.407654 0.000557
C28   C     C_R   0.018834 0.590897 0.595002 -0.000836
C29   C     C_R   0.402717 0.406781 0.988786 0.004164
C30   C     C_R   0.591841 0.596059 0.017325 -0.001325
C31   C     C_R   0.270658 0.976989 0.393497 -0.154417
C32   C     C_R   0.723266 0.048846 0.593849 -0.138244
C33   C     C_R   0.972088 0.397662 0.272094 -0.143637
C34   C     C_R   0.051667 0.592786 0.721975 -0.112279
C35   C     C_R   0.396361 0.271010 0.976703 -0.162289
C36   C     C_R   0.594394 0.722535 0.049256 -0.112719
C37   C     C_R   0.592776 0.053097 0.721131 -0.131620
C38   C     C_R   0.406809 0.946329 0.278693 -0.102833
C39   C     C_R   0.728494 0.602939 0.026608 -0.161118
C40   C     C_R   0.275642 0.405168 0.957114 -0.123963
C41   C     C_R   0.028304 0.727736 0.601845 -0.157058
C42   C     C_R   0.950582 0.276907 0.407226 -0.109258
Zn1   Zn    Zn3+2 0.004880 0.004880 0.583590 1.143677
Zn2   Zn    Zn3+2 0.995120 0.995120 0.416410 1.161211
Zn3   Zn    Zn3+2 0.004880 0.583590 0.004880 1.140493
Zn4   Zn    Zn3+2 0.995120 0.416410 0.995120 1.147476
Zn5   Zn    Zn3+2 0.583590 0.004880 0.004880 1.146875
Zn6   Zn    Zn3+2 0.416410 0.995120 0.995120 1.148036
C43   C     C_R   0.447806 0.073441 0.698299 0.281992
C44   C     C_R   0.549974 0.931608 0.300044 0.322507
C45   C     C_R   0.973697 0.729360 0.481091 0.291144
C46   C     C_R   0.952460 0.287930 0.549800 0.352056
C47   C     C_R   0.729490 0.485813 0.969582 0.277087
C48   C     C_R   0.290477 0.548031 0.951687 0.331475
C49   C     C_R   0.265152 0.057577 0.492548 0.294086
C50   C     C_R   0.715073 0.035454 0.455075 0.348859
C51   C     C_R   0.515853 0.268749 0.032162 0.275165
C52   C     C_R   0.451178 0.707321 0.055821 0.278898
C53   C     C_R   0.029431 0.517418 0.268084 0.278885
C54   C     C_R   0.054667 0.449346 0.709609 0.327813
C55   C     C_R   0.321318 0.938302 0.324223 0.086201
C56   C     C_R   0.675935 0.067588 0.675460 0.103940
C57   C     C_R   0.938186 0.324163 0.323254 0.071935
C58   C     C_R   0.062446 0.677382 0.674869 0.080196
C59   C     C_R   0.320449 0.320948 0.947873 0.102471
C60   C     C_R   0.679119 0.676392 0.059197 0.104647
H1    H     H_    0.266730 0.116340 0.731425 0.209581
H2    H     H_    0.726976 0.927276 0.244522 0.202794
H3    H     H_    0.985952 0.789913 0.299047 0.194200
H4    H     H_    0.988359 0.211854 0.713463 0.200788
H5    H     H_    0.787871 0.304342 0.987303 0.192682
H6    H     H_    0.217305 0.711645 0.983618 0.209054
H7    H     H_    0.191067 0.109565 0.647789 0.199564
H8    H     H_    0.795631 0.973741 0.308551 0.215814
H9    H     H_    0.697518 0.212736 0.011495 0.192728
H10   H     H_    0.286291 0.780145 0.025341 0.198271
H11   H     H_    0.008976 0.700008 0.208786 0.189663
H12   H     H_    0.027540 0.281479 0.782761 0.205243
C61   C     C_R   0.678742 0.999754 0.420696 0.014141
C62   C     C_R   0.309265 0.056636 0.548352 -0.002056
C63   C     C_R   0.026475 0.407532 0.673558 0.027755
C64   C     C_R   0.012796 0.574569 0.318057 -0.004616
C65   C     C_R   0.409498 0.671725 0.026874 -0.011089
C66   C     C_R   0.573213 0.319664 0.014754 -0.005080
C67   C     C_R   0.593862 0.954286 0.339189 0.012898
C68   C     C_R   0.401499 0.063634 0.651526 -0.009778
C69   C     C_R   0.325811 0.588623 0.981990 0.018460
C70   C     C_R   0.679424 0.427345 0.987887 -0.004307
C71   C     C_R   0.983374 0.323234 0.589862 0.023172
C72   C     C_R   0.989951 0.679703 0.423735 -0.010107
C73   C     C_R   0.726244 0.974932 0.341336 -0.100069
C74   C     C_R   0.262699 0.088292 0.623987 -0.154566
C75   C     C_R   0.019089 0.319228 0.716472 -0.125117
C76   C     C_R   0.007097 0.666709 0.278959 -0.130716
C77   C     C_R   0.322730 0.714329 0.017675 -0.162677
C78   C     C_R   0.664834 0.282246 0.008792 -0.121182
C79   C     C_R   0.685804 0.947958 0.303981 -0.136810
C80   C     C_R   0.307640 0.090870 0.674757 -0.146875
C81   C     C_R   0.283196 0.675121 0.991483 -0.095094
C82   C     C_R   0.717919 0.336176 0.991817 -0.119971
C83   C     C_R   0.994360 0.279114 0.676789 -0.141910
C84   C     C_R   0.991477 0.719353 0.332084 -0.146884
C85   C     C_R   0.544907 0.982868 0.416642 0.028713
C86   C     C_R   0.449407 0.033339 0.575293 0.033075
C87   C     C_R   0.997477 0.408267 0.544060 0.018949
C88   C     C_R   0.001750 0.586946 0.460759 0.035700
C89   C     C_R   0.409453 0.543268 0.997687 0.019700
C90   C     C_R   0.586971 0.462543 0.001000 0.030603
C91   C     C_R   0.589222 0.998336 0.461358 0.019208
C92   C     C_R   0.403393 0.026902 0.525485 0.032112
C93   C     C_R   0.454625 0.588314 0.011016 0.032586
C94   C     C_R   0.536600 0.411808 0.004337 0.033962
C95   C     C_R   0.010916 0.453393 0.589000 0.023873
C96   C     C_R   0.003322 0.537056 0.410853 0.035424
C97   C     C_R   0.451750 0.997667 0.448466 -0.025805
C98   C     C_R   0.542450 0.019543 0.542811 -0.027572
C99   C     C_R   0.996357 0.449112 0.453964 -0.031173
C100  C     C_R   0.009929 0.543923 0.548546 -0.028816
C101  C     C_R   0.449207 0.453660 0.997849 -0.027755
C102  C     C_R   0.544629 0.549254 0.009221 -0.026566
I1    I     I_    0.280776 0.846414 0.303703 -0.086562
I2    I     I_    0.714564 0.142090 0.721054 -0.075999
I3    I     I_    0.849606 0.295238 0.284994 -0.099793
I4    I     I_    0.152631 0.717161 0.699267 -0.093776
I5    I     I_    0.282087 0.283263 0.868510 0.043595
I6    I     I_    0.719951 0.699775 0.149056 -0.102185
N1    N     N_R   0.399842 0.132020 0.752502 0.213622
O25   O     O_R   0.337702 0.110244 0.826919 -0.383952
O26   O     O_R   0.426866 0.201279 0.732409 -0.349598
N2    N     N_R   0.599857 0.866911 0.252269 0.196785
O27   O     O_R   0.572786 0.796398 0.277748 -0.363916
O28   O     O_R   0.662823 0.883986 0.177217 -0.377651
N3    N     N_R   0.903702 0.812318 0.476183 0.217177
O29   O     O_R   0.841699 0.825740 0.549441 -0.416145
O30   O     O_R   0.904084 0.876513 0.400402 -0.433060
N4    N     N_R   0.882657 0.246078 0.606017 0.204568
O31   O     O_R   0.804050 0.286296 0.593415 -0.363959
O32   O     O_R   0.894440 0.174215 0.673772 -0.381303
N5    N     N_R   0.811711 0.485139 0.896555 0.228329
O33   O     O_R   0.829125 0.560701 0.842373 -0.411336
O34   O     O_R   0.864934 0.411565 0.877714 -0.420490
N6    N     N_R   0.250751 0.602510 0.879693 0.204945
O35   O     O_R   0.284568 0.581403 0.804972 -0.363101
O36   O     O_R   0.182233 0.672061 0.887620 -0.379838
N7    N     N_R   0.181767 0.123946 0.484557 0.205541
O37   O     O_R   0.172176 0.173693 0.404972 -0.403196
O38   O     O_R   0.114260 0.132774 0.555457 -0.431602
N8    N     N_R   0.754298 0.106677 0.392154 0.213655
O39   O     O_R   0.712207 0.187383 0.398226 -0.352134
O40   O     O_R   0.822987 0.094641 0.322721 -0.370543
N9    N     N_R   0.519112 0.184522 0.103759 0.230526
O41   O     O_R   0.444890 0.165649 0.159105 -0.397272
O42   O     O_R   0.593807 0.131026 0.120647 -0.405782
N10   N     N_R   0.398219 0.748915 0.125774 0.224465
O43   O     O_R   0.421478 0.717773 0.199495 -0.343329
O44   O     O_R   0.329668 0.818390 0.115725 -0.391171
N11   N     N_R   0.101207 0.521056 0.184849 0.230539
O45   O     O_R   0.157256 0.446882 0.169127 -0.397628
O46   O     O_R   0.115498 0.596854 0.127852 -0.428208
N12   N     N_R   0.122222 0.395531 0.754103 0.200667
O47   O     O_R   0.199473 0.412384 0.718577 -0.347878
O48   O     O_R   0.108102 0.329497 0.827534 -0.378082

loop_
_geom_bond_atom_site_label_1
_geom_bond_atom_site_label_2
_geom_bond_distance
_ccdc_geom_bond_type
H5    C82   1.080390 S    
C47   N5    1.446058 S    
C24   C31   1.459462 S    
C2    C32   1.444815 A    
C95   C100  1.401733 A    
C1    C49   1.424539 A    
C90   C102  1.402092 A    
N3    O29   1.301600 A    
C73   C79   1.391054 A    
C72   C88   1.401032 A    
N7    O37   1.301543 A    
C66   C78   1.409954 A    
O11   C23   1.249907 A    
N5    O33   1.302046 A    
O13   Zn1   2.093577 S    
O12   C24   1.250306 A    
C63   C75   1.407402 A    
C44   C67   1.412419 A    
O4    Zn4   2.085048 S    
N10   O43   1.300791 A    
H8    C73   1.079091 S    
O24   Zn1   2.089301 S    
C43   C68   1.415452 A    
N9    O42   1.300424 A    
N11   O45   1.301842 A    
O11   Zn2   2.076064 S    
O9    C21   1.248462 A    
C15   C40   1.476635 S    
O16   C22   1.297661 A    
O21   C15   1.304390 A    
C16   C39   1.464678 S    
C71   C87   1.398451 A    
O22   C16   1.295882 A    
H11   C76   1.080633 S    
C40   C59   1.373451 A    
N5    O34   1.300117 A    
C55   I1    2.134268 S    
C66   C94   1.402897 A    
C94   C101  1.400755 A    
O2    Zn2   2.063781 S    
C93   C102  1.401210 A    
C9    C30   1.410902 A    
C72   C84   1.411283 A    
C26   C98   1.422573 A    
O1    C13   1.244143 A    
C64   C96   1.400465 A    
C71   C83   1.405133 A    
C20   C35   1.468814 S    
C4    C54   1.424258 A    
N12   O47   1.300596 A    
C53   N11   1.443574 S    
C35   C59   1.389689 A    
H3    C84   1.079211 S    
C65   C93   1.401762 A    
C6    C52   1.423507 A    
H9    C78   1.080423 S    
C62   C74   1.406206 A    
C67   C85   1.407467 A    
O4    C16   1.250087 A    
H1    C80   1.077869 S    
O10   C22   1.241263 A    
N1    O25   1.302046 A    
C48   C69   1.407697 A    
O7    C19   1.258089 A    
O20   Zn5   2.078642 S    
O13   C23   1.300364 A    
N2    O28   1.301117 A    
O15   Zn3   2.077447 S    
C12   C42   1.440272 A    
C45   N3    1.439465 S    
C12   C27   1.407716 A    
C59   I5    2.102089 S    
C51   C66   1.421940 A    
O3    C15   1.248485 A    
N3    O30   1.299272 A    
C64   C76   1.408913 A    
N6    O36   1.300550 A    
C3    C33   1.447823 A    
O18   C20   1.298209 A    
C85   C97   1.404915 A    
C17   C38   1.480168 S    
C56   I2    2.129183 S    
C65   C77   1.406307 A    
C38   C55   1.376779 A    
C87   C95   1.411697 A    
N8    O40   1.301065 A    
C54   C63   1.408513 A    
C10   C29   1.410272 A    
C27   C99   1.415002 A    
C11   C41   1.450071 A    
O12   Zn1   2.076064 S    
C21   C34   1.475108 S    
C48   N6    1.431185 S    
C50   C61   1.406933 A    
C69   C81   1.406306 A    
C51   N9    1.445830 S    
C85   C91   1.415705 A    
C7    C43   1.423340 A    
O9    Zn4   2.053328 S    
C10   C48   1.423673 A    
C4    C28   1.409360 A    
N11   O46   1.299901 A    
O7    Zn6   2.080471 S    
C45   C72   1.420665 A    
C12   C46   1.421981 A    
C3    C53   1.435697 A    
C63   C95   1.399849 A    
C28   C100  1.414828 A    
C33   C57   1.387503 A    
C29   C101  1.411322 A    
C44   N2    1.425738 S    
N4    O32   1.300472 A    
C31   C55   1.389260 A    
C47   C70   1.421429 A    
O6    Zn6   2.061052 S    
C8    C38   1.435664 A    
C61   C73   1.402063 A    
C86   C92   1.422802 A    
C8    C25   1.410089 A    
O2    C14   1.238456 A    
C32   C56   1.388823 A    
N9    O41   1.302016 A    
O22   Zn3   2.094778 S    
C14   C41   1.458310 S    
C54   N12   1.424933 S    
C90   C94   1.412829 A    
C13   C42   1.474528 S    
C52   N10   1.430873 S    
C46   C71   1.408006 A    
C58   I4    2.136926 S    
C8    C44   1.420144 A    
H10   C77   1.078251 S    
C4    C34   1.438267 A    
C52   C65   1.408937 A    
C70   C90   1.402124 A    
H7    C74   1.074224 S    
C18   C37   1.482495 S    
N2    O27   1.300814 A    
H12   C75   1.077558 S    
C62   C92   1.411232 A    
O21   Zn4   2.094779 S    
C5    C35   1.444814 A    
C1    C25   1.409497 A    
C19   C36   1.482399 S    
C69   C89   1.400651 A    
O19   Zn6   2.078643 S    
O3    Zn3   2.085048 S    
C77   C81   1.394127 A    
C2    C50   1.424251 A    
C25   C97   1.415574 A    
C22   C33   1.452390 S    
O6    C18   1.248528 A    
N6    O35   1.300707 A    
C3    C27   1.407062 A    
C49   C62   1.420666 A    
C50   N8    1.433344 S    
C88   C96   1.414579 A    
C7    C37   1.442321 A    
C5    C29   1.413872 A    
C92   C97   1.406140 A    
C89   C101  1.402644 A    
N8    O39   1.300231 A    
C41   C58   1.386106 A    
C74   C80   1.387271 A    
H4    C83   1.078600 S    
C6    C36   1.432809 A    
O5    C17   1.254754 A    
C46   N4    1.422812 S    
O8    Zn5   2.080469 S    
O19   C17   1.302470 A    
H6    C81   1.078549 S    
O23   C13   1.305765 A    
O16   Zn4   2.077447 S    
O8    C20   1.248378 A    
C11   C45   1.436563 A    
O18   Zn6   2.091693 S    
C96   C99   1.399940 A    
C34   C58   1.374649 A    
N10   O44   1.300499 A    
C60   I6    2.134167 S    
O14   C24   1.289311 A    
C70   C82   1.410338 A    
C36   C60   1.384430 A    
C30   C102  1.411288 A    
C43   N1    1.419113 S    
C89   C93   1.409404 A    
C53   C64   1.420675 A    
O14   Zn2   2.093577 S    
N4    O31   1.300390 A    
C49   N7    1.438453 S    
O24   C14   1.299427 A    
C61   C91   1.401742 A    
O5    Zn5   2.061052 S    
H2    C79   1.076901 S    
C68   C80   1.406549 A    
C7    C26   1.406965 A    
O15   C21   1.306005 A    
C11   C28   1.410876 A    
C2    C26   1.411619 A    
O23   Zn2   2.089299 S    
C42   C57   1.373537 A    
C39   C60   1.392843 A    
O1    Zn1   2.063781 S    
N12   O48   1.300404 A    
C5    C51   1.433985 A    
N1    O26   1.300953 A    
C86   C98   1.405142 A    
C88   C100  1.401205 A    
C9    C39   1.442200 A    
C37   C56   1.377749 A    
C6    C30   1.410814 A    
C10   C40   1.430554 A    
O10   Zn3   2.053328 S    
C87   C99   1.399562 A    
C91   C98   1.403677 A    
C57   I3    2.142929 S    
C9    C47   1.434304 A    
O20   C18   1.305995 A    
C67   C79   1.407972 A    
C76   C84   1.405205 A    
O17   Zn5   2.091691 S    
C75   C83   1.392311 A    
O17   C19   1.299909 A    
C78   C82   1.405346 A    
C68   C86   1.403688 A    
C23   C32   1.475900 S    
C1    C31   1.440386 A    
N7    O38   1.298082 A    
