data_mof_unit_23696.cif
_audit_creation_date              2012-10-26T19:21:07-0400
_audit_creation_method            fapswitch 2.2
_symmetry_space_group_name_H-M    P1
_symmetry_Int_Tables_number       1
_space_group_crystal_system       triclinic
_cell_length_a                    9.835456
_cell_length_b                    11.069388
_cell_length_c                    13.425175
_cell_angle_alpha                 94.196235
_cell_angle_beta                  81.683639
_cell_angle_gamma                 111.883232
_cell_volume                      1341.75704369

loop_
_atom_site_label
_atom_site_type_symbol
_atom_type_description
_atom_site_fract_x
_atom_site_fract_y
_atom_site_fract_z
_atom_type_partial_charge
C1    C     C_R   0.557038 0.745705 0.507543 0.560054
C2    C     C_R   0.370793 0.443328 0.797626 0.018189
C3    C     C_2   0.589099 0.885306 0.511940 -0.095486
C4    C     C_R   0.419928 0.473998 0.689452 0.568876
C5    C     C_2   0.482893 0.928880 0.500550 -0.100187
C6    C     C_2   0.407273 0.113885 0.489510 0.236506
C7    C     C_2   0.511355 0.067825 0.503182 -0.089817
C8    C     C_2   0.918598 0.483874 0.497091 0.136830
C9    C     C_2   0.074878 0.504516 0.511461 0.103783
C10   C     C_R   0.442485 0.254117 0.492877 0.572410
C11   C     C_R   0.578649 0.513673 0.309332 0.560787
C12   C     C_R   0.438872 0.476286 0.968327 0.013677
C13   C     C_R   0.811038 0.565583 0.053028 -0.038426
C14   C     C_R   0.626497 0.523460 0.199966 0.017016
C15   C     C_R   0.222943 0.416047 0.836570 -0.134370
C16   C     C_R   0.181762 0.421141 0.940429 0.001568
C17   C     C_R   0.293984 0.475609 0.003619 0.035320
C18   C     C_2   0.881013 0.524772 0.832078 0.250378
C19   C     C_2   0.266040 0.555714 0.092660 0.283502
C20   C     C_2   0.021843 0.371280 0.978579 0.235978
C21   C     C_R   0.472788 0.450325 0.864875 0.025693
C22   C     C_R   0.550857 0.499432 0.031782 0.018076
C23   C     C_R   0.699785 0.526188 0.988978 -0.012651
C24   C     C_R   0.729547 0.497736 0.885581 0.041411
C25   C     C_R   0.609426 0.436290 0.831692 0.229568
C26   C     C_R   0.516572 0.486704 0.136258 -0.093908
C27   C     C_R   0.776002 0.568485 0.157345 0.241160
Cl1   Cl    Cl    0.924716 0.625619 0.229622 -0.490088
Cl2   Cl    Cl    0.226551 0.010690 0.467483 -0.452614
Cl3   Cl    Cl    0.088465 0.349669 0.353918 -0.433003
Cl4   Cl    Cl    0.933914 0.689611 0.613925 -0.403088
Cl5   Cl    Cl    0.619356 0.315097 0.739765 -0.608695
Cu1   Cu    Cu3+1 0.362000 0.479240 0.482530 1.123333
Cu2   Cu    Cu3+1 0.638000 0.520760 0.517470 1.167423
H1    H     H_    0.373652 0.860578 0.488743 0.226956
H2    H     H_    0.158502 0.529647 0.136612 0.222683
H3    H     H_    0.941069 0.348343 0.926294 0.116443
H4    H     H_    0.699074 0.952276 0.524123 0.157870
H5    H     H_    0.123916 0.568041 0.572417 0.154323
H6    H     H_    0.861702 0.406218 0.446844 0.165122
H7    H     H_    0.925947 0.589771 0.024128 0.199058
H8    H     H_    0.402471 0.443464 0.168674 0.178643
H9    H     H_    0.139855 0.393203 0.785943 0.129865
H10   H     H_    0.621201 0.134250 0.516393 0.155446
H11   H     H_    0.900812 0.460261 0.771817 0.147637
N1    N     N_2   0.845330 0.551960 0.543750 -0.062293
N2    N     N_2   0.154690 0.448120 0.456210 -0.072604
O1    O     O_R   0.426290 0.668220 0.490680 -0.518657
O2    O     O_2   0.362973 0.656900 0.115075 -0.448177
O3    O     O_2   0.977629 0.346092 0.067147 -0.465175
O4    O     O_R   0.659360 0.703290 0.520190 -0.431266
O5    O     O_R   0.326580 0.473880 0.629020 -0.536415
O6    O     O_R   0.559660 0.508940 0.658530 -0.440806
O7    O     O_R   0.340640 0.296710 0.479810 -0.429777
O8    O     O_R   0.573710 0.331780 0.509320 -0.535287
O9    O     O_R   0.440340 0.491060 0.341470 -0.471730
O10   O     O_R   0.673420 0.526120 0.370980 -0.460345
O11   O     O_2   0.983963 0.623918 0.849813 -0.470720

loop_
_geom_bond_atom_site_label_1
_geom_bond_atom_site_label_2
_ccdc_geom_bond_type
C12   C17   A    
C6    C10   S    
Cu2   O10   S    
C2    C4    S    
C23   C24   A    
C1    O1    A    
C6    C7    D    
Cu2   N1    S    
C20   H3    S    
C14   C27   A    
C19   O2    D    
C16   C20   S    
C2    C21   A    
C13   H7    S    
Cu1   Cu2   S    
C15   H9    S    
Cu2   O8    S    
C7    H10   S    
C14   C26   A    
Cu1   O5    S    
C2    C15   A    
C1    O4    A    
C26   H8    S    
Cu2   O4    S    
C16   C17   A    
C25   Cl5   S    
Cu1   O7    S    
Cu1   O9    S    
C10   O7    A    
Cu2   O6    S    
C5    H1    S    
C17   C19   S    
C4    O5    A    
C9    N2    D    
C19   H2    S    
C10   O8    A    
Cu1   N2    S    
C11   C14   S    
C8    N1    D    
C4    O6    A    
C15   C16   A    
C18   H11   S    
C12   C22   A    
Cl3   N2    S    
C9    H5    S    
C6    Cl2   S    
C24   C25   A    
C13   C23   A    
C18   C24   S    
C22   C26   A    
C27   Cl1   S    
C5    C7    S    
Cu1   O1    S    
C21   C25   A    
C22   C23   A    
C13   C27   A    
C20   O3    D    
C8    H6    S    
C3    C5    D    
C11   O10   A    
C12   C21   A    
C18   O11   D    
C11   O9    A    
C3    H4    S    
C8    C9    S    
C1    C3    S    
Cl4   N1    S    
