data_mof_unit_38585.cif
_audit_creation_date              2012-12-10T17:51:26-0500
_audit_creation_method            fapswitch 2.2
_symmetry_space_group_name_H-M    P1
_symmetry_Int_Tables_number       1
_space_group_crystal_system       triclinic
_cell_length_a                    14.722904
_cell_length_b                    14.727748
_cell_length_c                    17.288085
_cell_angle_alpha                 105.725588
_cell_angle_beta                  73.796477
_cell_angle_gamma                 114.718547
_cell_volume                      3218.3266951

loop_
_atom_site_label
_atom_site_type_symbol
_atom_type_description
_atom_site_fract_x
_atom_site_fract_y
_atom_site_fract_z
_atom_type_partial_charge
C1    C     C_R   0.118623 0.687867 0.512747 0.789411
C2    C     C_R   0.881381 0.312071 0.486795 0.785779
C3    C     C_R   0.186130 0.794925 0.513949 -0.049159
C4    C     C_R   0.814158 0.204411 0.480847 -0.054893
C5    C     C_R   0.218637 0.966672 0.503740 -0.190226
C6    C     C_R   0.784279 0.028257 0.473658 -0.190360
C7    C     C_R   0.151007 0.867635 0.509100 -0.194752
C8    C     C_R   0.851055 0.128850 0.474893 -0.197991
C9    C     C_R   0.289560 0.822301 0.513040 -0.242700
C10   C     C_R   0.710241 0.178142 0.484534 -0.245577
C11   C     C_R   0.360616 0.920070 0.502320 0.090105
C12   C     C_R   0.640984 0.077190 0.483345 0.089559
C13   C     C_R   0.322865 0.993244 0.499850 0.159830
C14   C     C_R   0.679760 0.002092 0.478782 0.163755
C15   C     C_R   0.467585 0.946924 0.493552 0.065794
C16   C     C_R   0.534506 0.049253 0.488305 0.064357
C17   C     C_R   0.492852 0.119821 0.487183 -0.215293
C18   C     C_R   0.510088 0.874377 0.487568 -0.217557
C19   C     C_R   0.389374 0.091923 0.492300 -0.222514
C20   C     C_R   0.614021 0.901671 0.479999 -0.227417
C21   C     C_R   0.293768 0.322860 0.369696 -0.334112
C22   C     C_R   0.689767 0.652442 0.649315 -0.324385
C23   C     C_R   0.989278 0.501395 0.652350 0.787194
C24   C     C_R   0.011099 0.499390 0.347710 0.789031
C25   C     C_R   0.220804 0.364029 0.378386 0.301013
C26   C     C_R   0.784037 0.642810 0.616278 0.299645
C27   C     C_R   0.276534 0.478043 0.497994 -0.026155
C28   C     C_R   0.708298 0.499749 0.519009 -0.027991
C29   C     C_R   0.360271 0.445834 0.484385 -0.018859
C30   C     C_R   0.613771 0.515910 0.544991 -0.024721
C31   C     C_R   0.365318 0.365287 0.419407 0.137544
C32   C     C_R   0.606469 0.592897 0.612702 0.127077
C33   C     C_R   0.440338 0.491296 0.530753 0.081163
C34   C     C_R   0.527472 0.461248 0.505644 0.091592
C35   C     C_R   0.525796 0.378645 0.441484 -0.240648
C36   C     C_R   0.437060 0.566451 0.600514 -0.203545
C37   C     C_R   0.445049 0.330325 0.400536 -0.205665
C38   C     C_R   0.518028 0.614940 0.641365 -0.169406
C39   C     C_R   0.983372 0.495473 0.736919 -0.081969
C40   C     C_R   0.018429 0.509489 0.263876 -0.026209
C41   C     C_R   0.061693 0.479845 0.756300 -0.168138
C42   C     C_R   0.937761 0.521332 0.244709 -0.291633
C43   C     C_R   0.056345 0.468586 0.835308 0.021649
C44   C     C_R   0.944890 0.540286 0.168095 0.043622
C45   C     C_R   0.971713 0.476367 0.896275 0.074310
C46   C     C_R   0.032695 0.541055 0.107676 0.156765
C47   C     C_R   0.892705 0.489850 0.876513 -0.113427
C48   C     C_R   0.114105 0.531722 0.127341 -0.202340
C49   C     C_R   0.898420 0.499500 0.797321 -0.211323
C50   C     C_R   0.107444 0.516801 0.205137 -0.190109
C51   C     C_2   0.965203 0.475587 0.982003 -0.207808
C52   C     C_2   0.039053 0.542739 0.022089 -0.155939
Cu1   Cu    Cu3+1 0.916740 0.524770 0.521640 0.934860
Cu2   Cu    Cu3+1 0.083260 0.475230 0.478360 0.935892
H1    H     H_    0.126588 0.474550 0.709286 0.189204
H2    H     H_    0.869689 0.518980 0.290519 0.147889
H3    H     H_    0.538031 0.197308 0.480360 0.142052
H4    H     H_    0.465616 0.794730 0.486596 0.144751
H5    H     H_    0.447378 0.267385 0.350865 0.143020
H6    H     H_    0.512954 0.673640 0.694246 0.145534
H7    H     H_    0.718051 0.439955 0.469506 0.126639
H8    H     H_    0.265454 0.536200 0.548684 0.128031
H9    H     H_    0.300270 0.262035 0.318970 0.140562
H10   H     H_    0.683471 0.713266 0.700099 0.141504
H11   H     H_    0.585988 0.349307 0.421443 0.123729
H12   H     H_    0.372523 0.589298 0.625235 0.139206
H13   H     H_    0.172318 0.512381 0.219250 0.141710
H14   H     H_    0.836222 0.509382 0.783366 0.154001
H15   H     H_    0.108373 0.593594 0.989898 0.146234
H16   H     H_    0.896002 0.424341 0.013949 0.157108
H17   H     H_    0.827345 0.494955 0.923054 0.161744
H18   H     H_    0.182188 0.533793 0.081678 0.138634
H19   H     H_    0.361198 0.148307 0.490167 0.157984
H20   H     H_    0.643083 0.843520 0.475688 0.146145
H21   H     H_    0.685177 0.238875 0.490412 0.146090
H22   H     H_    0.312398 0.765334 0.520766 0.143790
H23   H     H_    0.930832 0.147682 0.473310 0.147821
H24   H     H_    0.072194 0.847765 0.507061 0.139954
H25   H     H_    0.189815 0.021995 0.500429 0.135562
H26   H     H_    0.814144 0.970984 0.470037 0.132427
N1    N     N_R   0.208390 0.438070 0.445820 -0.182342
N2    N     N_R   0.791610 0.561930 0.554180 -0.182434
O1    O     O_R   0.020090 0.662480 0.528530 -0.597870
O2    O     O_R   0.979910 0.337520 0.471470 -0.590661
O3    O     O_R   0.160710 0.620650 0.491980 -0.582899
O4    O     O_R   0.839290 0.379350 0.508020 -0.584981
O5    O     O_R   0.921540 0.523360 0.633990 -0.586736
O6    O     O_R   0.078460 0.476640 0.366010 -0.598066
O7    O     O_R   0.062170 0.481520 0.597440 -0.588789
O8    O     O_R   0.937830 0.518480 0.402560 -0.584500
C53   C     C_3   0.873692 0.735651 0.643379 -0.367694
C54   C     C_3   0.915761 0.725152 0.711207 -0.291258
C55   C     C_3   0.955139 0.826068 0.768735 -0.879705
H27   H     H_    0.015192 0.884324 0.733612 0.261691
H28   H     H_    0.891901 0.852801 0.801510 0.257234
H29   H     H_    0.988221 0.815913 0.814731 0.255451
H30   H     H_    0.855688 0.668800 0.748018 0.217692
H31   H     H_    0.981184 0.700890 0.683781 0.239077
H32   H     H_    0.932393 0.762927 0.591001 0.192604
H33   H     H_    0.848931 0.801599 0.667003 0.165784
C56   C     C_3   0.173165 0.332976 0.302802 -0.360510
C57   C     C_3   0.066107 0.249462 0.309427 -0.295906
C58   C     C_3   0.048782 0.178066 0.227800 -0.887307
H34   H     H_    0.060527 0.221738 0.180216 0.259980
H35   H     H_    0.101913 0.136779 0.207877 0.259000
H36   H     H_    0.969507 0.121500 0.234796 0.254270
H37   H     H_    0.054380 0.203550 0.355305 0.216001
H38   H     H_    0.008036 0.284251 0.327295 0.238784
H39   H     H_    0.179077 0.398919 0.281109 0.192232
H40   H     H_    0.223123 0.303952 0.249656 0.167168
C59   C     C_2   0.860981 0.562845 0.155887 0.320954
H41   H     H_    0.787438 0.540582 0.196641 0.063082
O9    O     O_2   0.873758 0.610106 0.103136 -0.531999
C60   C     C_2   0.136960 0.444647 0.852048 0.318245
H42   H     H_    0.127374 0.421567 0.909190 0.083080
O10   O     O_2   0.215064 0.449449 0.801679 -0.547120

loop_
_geom_bond_atom_site_label_1
_geom_bond_atom_site_label_2
_ccdc_geom_bond_type
C15   C18   A    
Cu2   O6    S    
C55   H27   S    
C49   H14   S    
C29   C33   A    
C27   C29   A    
C2    O2    A    
C59   H41   S    
C4    C8    A    
Cu2   O2    S    
C60   H42   S    
C54   H31   S    
C39   C41   A    
Cu1   Cu2   S    
C21   C31   A    
C56   C57   S    
C22   C32   A    
C35   C37   A    
C3    C7    A    
C43   C60   S    
C36   H12   S    
C45   C51   S    
C56   H39   S    
C15   C16   A    
C46   C52   S    
C33   C36   A    
C34   C35   A    
C41   H1    S    
C52   H15   S    
C42   H2    S    
C11   C15   A    
C18   H4    S    
C59   O9    D    
C12   C16   A    
C16   C17   A    
C23   O7    A    
C57   H38   S    
Cu1   O4    S    
C9    H22   S    
C32   C38   A    
C53   H33   S    
C5    H25   S    
C50   H13   S    
C5    C13   A    
C28   H7    S    
C40   C42   A    
C26   N2    A    
C23   O5    A    
C25   N1    A    
C41   C43   A    
C42   C44   A    
C48   H18   S    
C44   C46   A    
C54   H30   S    
C45   C47   A    
C1    O3    A    
C46   C48   A    
C30   C34   A    
C28   N2    A    
C51   C52   D    
C14   C20   A    
C27   N1    A    
Cu2   O7    S    
C47   C49   A    
C53   C54   S    
C5    C7    A    
C13   C19   A    
C17   C19   A    
C6    C8    A    
C26   C53   S    
C31   C37   A    
Cu1   N2    S    
C1    C3    S    
C2    C4    S    
C3    C9    A    
C27   H8    S    
C6    C14   A    
C43   C45   A    
C10   H21   S    
C6    H26   S    
C19   H19   S    
C33   C34   A    
C20   H20   S    
C57   H37   S    
Cu1   O5    S    
C9    C11   A    
C47   H17   S    
C37   H5    S    
C10   C12   A    
C7    H24   S    
C38   H6    S    
C51   H16   S    
C12   C14   A    
C55   H29   S    
C8    H23   S    
C58   H35   S    
C4    C10   A    
C36   C38   A    
Cu1   O8    S    
C21   C25   A    
C39   C49   A    
C24   O6    A    
C24   O8    A    
Cu2   O3    S    
C60   O10   D    
C1    O1    A    
Cu1   O1    S    
C28   C30   A    
C56   H40   S    
C29   C31   A    
C30   C32   A    
C11   C13   A    
C25   C56   S    
C40   C50   A    
C48   C50   A    
C54   C55   S    
C24   C40   S    
C2    O4    A    
C58   H36   S    
C18   C20   A    
C57   C58   S    
C21   H9    S    
C22   H10   S    
C44   C59   S    
C55   H28   S    
C22   C26   A    
C58   H34   S    
C35   H11   S    
C53   H32   S    
C23   C39   S    
Cu2   N1    S    
C17   H3    S    
