data_mof_unit_63613.cif
_audit_creation_date              2012-12-10T18:22:46-0500
_audit_creation_method            fapswitch 2.2
_symmetry_space_group_name_H-M    P1
_symmetry_Int_Tables_number       1
_space_group_crystal_system       triclinic
_cell_length_a                    40.983831
_cell_length_b                    35.730323
_cell_length_c                    21.488185
_cell_angle_alpha                 89.980015
_cell_angle_beta                  60.317316
_cell_angle_gamma                 90.063569
_cell_volume                      27337.5222832

loop_
_atom_site_label
_atom_site_type_symbol
_atom_type_description
_atom_site_fract_x
_atom_site_fract_y
_atom_site_fract_z
_atom_type_partial_charge
C1    C     C_R   0.927590 0.499808 0.075324 0.952752
C2    C     C_R   0.072362 0.499874 0.924532 0.957818
C3    C     C_R   0.427590 0.999808 0.075324 0.952752
C4    C     C_R   0.572362 0.999874 0.924532 0.957818
C5    C     C_3   0.999089 0.499980 0.189498 -0.206385
C6    C     C_3   0.000993 0.500169 0.810358 -0.208266
C7    C     C_3   0.499089 0.999980 0.189498 -0.206385
C8    C     C_3   0.500993 0.000169 0.810358 -0.208266
C9    C     C_R   0.674961 0.520402 0.288882 0.306711
C10   C     C_R   0.325083 0.520618 0.708668 0.304827
C11   C     C_R   0.174961 0.020402 0.288882 0.306711
C12   C     C_R   0.825083 0.020618 0.708668 0.304827
C13   C     C_R   0.635095 0.522564 0.325459 0.283731
C14   C     C_R   0.364883 0.523421 0.671410 0.282639
C15   C     C_R   0.135095 0.022564 0.325459 0.283731
C16   C     C_R   0.864883 0.023422 0.671410 0.282640
C17   C     C_R   0.614275 0.502331 0.390718 -0.365717
C18   C     C_R   0.385843 0.500630 0.609981 -0.365458
C19   C     C_R   0.114275 0.002331 0.390718 -0.365716
C20   C     C_R   0.885843 0.000630 0.609981 -0.365458
C21   C     C_R   0.633877 0.485736 0.422718 0.305586
C22   C     C_R   0.366487 0.478569 0.583741 0.302768
C23   C     C_R   0.133878 0.985736 0.422718 0.305586
C24   C     C_R   0.866487 0.978569 0.583741 0.302768
C25   C     C_R   0.671647 0.495821 0.397745 0.306015
C26   C     C_R   0.328133 0.485940 0.607963 0.301578
C27   C     C_R   0.171647 0.995821 0.397745 0.306015
C28   C     C_R   0.828133 0.985940 0.607963 0.301578
C29   C     C_R   0.693247 0.509984 0.327570 -0.264765
C30   C     C_R   0.306713 0.505495 0.673156 -0.266210
C31   C     C_R   0.193247 0.009984 0.327570 -0.264765
C32   C     C_R   0.806713 0.005495 0.673156 -0.266210
C33   C     C_1   0.734118 0.512323 0.294506 0.286861
C34   C     C_1   0.265865 0.508930 0.705337 0.277511
C35   C     C_1   0.234118 0.012323 0.294506 0.286861
C36   C     C_1   0.765865 0.008930 0.705337 0.277511
C37   C     C_1   0.768228 0.513341 0.264165 0.267757
C38   C     C_1   0.231786 0.511432 0.735387 0.268657
C39   C     C_1   0.268228 0.013341 0.264165 0.267757
C40   C     C_1   0.731786 0.011432 0.735387 0.268657
C41   C     C_R   0.827592 0.535666 0.160529 0.294205
C42   C     C_R   0.173005 0.534503 0.840199 0.296327
C43   C     C_R   0.327592 0.035666 0.160529 0.294204
C44   C     C_R   0.673005 0.034503 0.840199 0.296326
C45   C     C_R   0.999663 0.500000 0.120764 0.943017
C46   C     C_R   0.000330 0.500041 0.879217 0.943827
C47   C     C_R   0.499663 1.000000 0.120764 0.943017
C48   C     C_R   0.500330 0.000041 0.879217 0.943827
C49   C     C_R   0.864809 0.527018 0.107718 0.252951
C50   C     C_R   0.135556 0.526121 0.892781 0.250852
C51   C     C_R   0.364809 0.027018 0.107718 0.252951
C52   C     C_R   0.635556 0.026121 0.892781 0.250852
C53   C     C_R   0.885662 0.500067 0.121671 -0.357237
C54   C     C_R   0.114189 0.500241 0.877710 -0.360082
C55   C     C_R   0.385662 0.000067 0.121671 -0.357238
C56   C     C_R   0.614189 0.000241 0.877710 -0.360082
C57   C     C_R   0.866952 0.477029 0.183716 0.289144
C58   C     C_R   0.132161 0.478953 0.813409 0.286989
C59   C     C_R   0.366952 0.977029 0.183716 0.289145
C60   C     C_R   0.632161 0.978953 0.813409 0.286989
C61   C     C_R   0.829870 0.486484 0.237199 0.228735
C62   C     C_R   0.169100 0.488739 0.760140 0.236201
C63   C     C_R   0.329870 0.986484 0.237199 0.228735
C64   C     C_R   0.669100 0.988739 0.760140 0.236201
C65   C     C_R   0.809237 0.513192 0.222414 -0.271272
C66   C     C_R   0.190735 0.513000 0.776985 -0.268892
C67   C     C_R   0.309237 0.013192 0.222414 -0.271272
C68   C     C_R   0.690735 0.013000 0.776985 -0.268891
C69   C     C_R   0.000011 0.572517 0.500062 0.968751
C70   C     C_R   0.500011 0.072517 0.500062 0.968751
C71   C     C_R   0.999420 0.500137 0.379997 0.978234
C72   C     C_R   0.000588 0.500215 0.619955 0.976700
C73   C     C_R   0.499420 0.000137 0.379997 0.978234
C74   C     C_R   0.500588 0.000215 0.619955 0.976700
C75   C     C_R   0.999981 0.427705 0.500150 1.007503
C76   C     C_R   0.499981 0.927705 0.500150 1.007503
C77   C     C_R   0.500073 0.572141 0.499880 0.986555
C78   C     C_R   0.000073 0.072141 0.499880 0.986555
C79   C     C_R   0.572356 0.500350 0.428723 0.950551
C80   C     C_R   0.427706 0.500184 0.571331 0.970399
C81   C     C_R   0.072356 0.000350 0.428723 0.950551
C82   C     C_R   0.927706 0.000184 0.571331 0.970399
C83   C     C_3   0.965144 0.510575 0.262007 0.391692
C84   C     C_3   0.034415 0.512373 0.738213 0.398010
C85   C     C_3   0.465144 0.010575 0.262007 0.391692
C86   C     C_3   0.534415 0.012373 0.738213 0.398010
C87   C     C_R   0.500236 0.427795 0.499794 0.886097
C88   C     C_R   0.000236 0.927795 0.499794 0.886097
C89   C     C_R   0.502814 0.327393 0.554060 0.452601
C90   C     C_R   0.498122 0.327335 0.445392 0.451162
C91   C     C_R   0.002813 0.827393 0.554060 0.452600
C92   C     C_R   0.998122 0.827335 0.445392 0.451161
C93   C     C_R   0.503455 0.366604 0.552993 -0.210028
C94   C     C_R   0.497380 0.366543 0.446421 -0.213398
C95   C     C_R   0.003455 0.866604 0.552993 -0.210027
C96   C     C_R   0.997380 0.866543 0.446420 -0.213398
C97   C     C_R   0.500386 0.386467 0.499703 -0.127007
C98   C     C_R   0.000386 0.886467 0.499703 -0.127007
C99   C     C_R   0.500491 0.307779 0.499739 -0.090061
C100  C     C_R   0.000491 0.807779 0.499739 -0.090060
C101  C     C_1   0.500484 0.267564 0.499820 0.091140
C102  C     C_1   0.000484 0.767564 0.499820 0.091140
C103  C     C_1   0.000436 0.733924 0.499880 0.142218
C104  C     C_1   0.500436 0.233924 0.499880 0.142219
C105  C     C_R   0.977507 0.674267 0.563646 0.367587
C106  C     C_R   0.022866 0.674262 0.436150 0.367008
C107  C     C_R   0.477507 0.174267 0.563646 0.367588
C108  C     C_R   0.522866 0.174262 0.436150 0.367007
C109  C     C_R   0.975141 0.634885 0.563300 0.306396
C110  C     C_R   0.024874 0.634862 0.436541 0.307942
C111  C     C_R   0.475141 0.134885 0.563300 0.306396
C112  C     C_R   0.524874 0.134862 0.436541 0.307943
C113  C     C_R   0.000023 0.614514 0.499998 -0.417641
C114  C     C_R   0.500023 0.114514 0.499998 -0.417641
C115  C     C_3   0.991104 0.534464 0.278257 0.299672
C116  C     C_3   0.007377 0.534914 0.722878 0.292701
C117  C     C_3   0.491104 0.034464 0.278257 0.299672
C118  C     C_3   0.507377 0.034914 0.722878 0.292701
C119  C     C_R   0.000319 0.693615 0.499915 -0.240372
C120  C     C_R   0.500319 0.193615 0.499915 -0.240372
C121  C     C_R   0.481357 0.673548 0.470712 0.331314
C122  C     C_R   0.519447 0.673363 0.528558 0.363444
C123  C     C_R   0.981357 0.173548 0.470712 0.331314
C124  C     C_R   0.019447 0.173363 0.528558 0.363444
C125  C     C_R   0.478556 0.634175 0.475493 0.230160
C126  C     C_R   0.522192 0.634016 0.523249 0.284851
C127  C     C_R   0.978556 0.134175 0.475493 0.230160
C128  C     C_R   0.022192 0.134016 0.523249 0.284851
C129  C     C_R   0.500227 0.613831 0.499604 -0.354041
C130  C     C_R   0.000227 0.113831 0.499604 -0.354041
C131  C     C_R   0.500312 0.692897 0.499952 -0.224192
C132  C     C_R   0.000312 0.192897 0.499952 -0.224192
C133  C     C_1   0.500249 0.733282 0.500298 0.201932
C134  C     C_1   0.000249 0.233282 0.500298 0.201932
C135  C     C_1   0.000159 0.267014 0.500486 0.226119
C136  C     C_1   0.500159 0.767014 0.500486 0.226119
C137  C     C_R   0.979330 0.327063 0.474449 0.322721
C138  C     C_R   0.020658 0.327261 0.526742 0.321392
C139  C     C_R   0.479330 0.827063 0.474449 0.322721
C140  C     C_R   0.520658 0.827261 0.526742 0.321392
C141  C     C_R   0.984241 0.366229 0.464571 0.302761
C142  C     C_R   0.015664 0.366418 0.536403 0.301613
C143  C     C_R   0.484241 0.866229 0.464571 0.302761
C144  C     C_R   0.515664 0.866418 0.536403 0.301613
C145  C     C_R   0.999949 0.386188 0.500397 -0.381693
C146  C     C_R   0.499949 0.886188 0.500397 -0.381693
C147  C     C_3   0.998214 0.499814 0.312784 -0.205029
C148  C     C_3   0.001844 0.499935 0.687039 -0.209710
C149  C     C_3   0.498214 0.999814 0.312784 -0.205029
C150  C     C_3   0.501844 0.999935 0.687039 -0.209710
C151  C     C_R   0.000038 0.307496 0.500593 -0.290764
C152  C     C_R   0.500038 0.807496 0.500593 -0.290764
C153  C     C_3   0.971680 0.475647 0.296912 -0.233426
C154  C     C_3   0.029473 0.477128 0.701933 -0.224191
C155  C     C_3   0.471680 0.975647 0.296912 -0.233426
C156  C     C_3   0.529474 0.977128 0.701933 -0.224191
C157  C     C_3   0.005904 0.464639 0.223415 -0.279599
C158  C     C_3   0.995786 0.464518 0.774983 -0.275168
C159  C     C_3   0.505904 0.964639 0.223415 -0.279599
C160  C     C_3   0.495786 0.964518 0.774983 -0.275167
C161  C     C_3   0.032079 0.488717 0.240081 0.415953
C162  C     C_3   0.968552 0.487281 0.759252 0.415352
C163  C     C_3   0.532079 0.988717 0.240081 0.415953
C164  C     C_3   0.468552 0.987281 0.759252 0.415352
C165  C     C_3   0.025278 0.523656 0.206441 0.296240
C166  C     C_3   0.973778 0.522530 0.794226 0.294070
C167  C     C_3   0.525278 0.023656 0.206441 0.296239
C168  C     C_3   0.473778 0.022530 0.794226 0.294070
Cu1   Cu    Cu3+1 0.000000 0.462740 0.000000 1.153635
Cu2   Cu    Cu3+1 0.500000 0.962740 0.000000 1.153635
Cu3   Cu    Cu3+1 0.000000 0.537260 0.000000 1.133318
Cu4   Cu    Cu3+1 0.500000 0.037260 0.000000 1.133317
Cu5   Cu    Cu3+1 0.037270 0.499960 0.462740 1.158658
Cu6   Cu    Cu3+1 0.962730 0.499960 0.537260 1.157578
Cu7   Cu    Cu3+1 0.537270 0.999960 0.462740 1.158658
Cu8   Cu    Cu3+1 0.462730 0.999960 0.537260 1.157578
Cu9   Cu    Cu3+1 0.500000 0.499910 0.562760 1.207147
Cu10  Cu    Cu3+1 0.500000 0.499910 0.437240 1.207588
Cu11  Cu    Cu3+1 1.000000 0.999910 0.562760 1.207147
Cu12  Cu    Cu3+1 0.000000 0.999910 0.437240 1.207588
H1    H     H_    0.506277 0.381356 0.594108 0.200219
H2    H     H_    0.494472 0.381247 0.405348 0.200649
H3    H     H_    0.006276 0.881356 0.594108 0.200219
H4    H     H_    0.994472 0.881247 0.405347 0.200649
H5    H     H_    0.949632 0.456303 0.334906 0.231587
H6    H     H_    0.052390 0.458864 0.663138 0.233077
H7    H     H_    0.449632 0.956303 0.334906 0.231587
H8    H     H_    0.552390 0.958864 0.663138 0.233077
H9    H     H_    0.011544 0.436201 0.199569 0.198904
H10   H     H_    0.991414 0.435829 0.797598 0.199324
H11   H     H_    0.511544 0.936201 0.199569 0.198904
H12   H     H_    0.491414 0.935829 0.797598 0.199324
O1    O     O_R   0.945630 0.468530 0.054370 -0.526989
O2    O     O_R   0.054370 0.468530 0.945630 -0.529740
O3    O     O_R   0.445630 0.968530 0.054370 -0.526989
O4    O     O_R   0.554370 0.968530 0.945630 -0.529740
O5    O     O_R   0.554380 0.499900 0.498630 -0.518887
O6    O     O_R   0.445620 0.499900 0.501370 -0.522316
O7    O     O_R   0.054380 0.999900 0.498630 -0.518887
O8    O     O_R   0.945620 0.999900 0.501370 -0.522316
O9    O     O_R   0.554370 0.499880 0.392640 -0.547104
O10   O     O_R   0.445630 0.499880 0.607360 -0.547008
O11   O     O_R   0.054370 0.999880 0.392640 -0.547105
O12   O     O_R   0.945630 0.999880 0.607360 -0.547008
O13   O     O_R   0.500000 0.445540 0.553030 -0.583049
O14   O     O_R   0.500000 0.445540 0.446970 -0.584145
O15   O     O_R   0.000000 0.945540 0.553030 -0.583049
O16   O     O_R   0.000000 0.945540 0.446970 -0.584145
O17   O     O_R   0.945630 0.531470 0.054380 -0.555907
O18   O     O_R   0.054370 0.531470 0.945620 -0.555319
O19   O     O_R   0.445630 0.031470 0.054380 -0.555907
O20   O     O_R   0.554370 0.031470 0.945620 -0.555319
O21   O     O_R   0.000010 0.468530 0.091570 -0.581768
O22   O     O_R   0.999990 0.468530 0.908430 -0.580507
O23   O     O_R   0.500010 0.968530 0.091570 -0.581768
O24   O     O_R   0.499990 0.968530 0.908430 -0.580507
O25   O     O_R   0.000010 0.531470 0.091580 -0.562562
O26   O     O_R   0.999990 0.531470 0.908420 -0.564466
O27   O     O_R   0.500010 0.031470 0.091580 -0.562562
O28   O     O_R   0.499990 0.031470 0.908420 -0.564466
O29   O     O_R   0.031460 0.554330 0.468560 -0.538505
O30   O     O_R   0.968540 0.554330 0.531440 -0.537084
O31   O     O_R   0.531460 0.054330 0.468560 -0.538505
O32   O     O_R   0.468540 0.054330 0.531440 -0.537084
O33   O     O_R   0.031470 0.499960 0.376970 -0.525546
O34   O     O_R   0.968530 0.499960 0.623030 -0.527806
O35   O     O_R   0.531470 0.999960 0.376970 -0.525546
O36   O     O_R   0.468530 0.999960 0.623030 -0.527806
O37   O     O_R   0.968530 0.499940 0.439910 -0.600281
O38   O     O_R   0.031470 0.499940 0.560090 -0.601357
O39   O     O_R   0.468530 0.999940 0.439910 -0.600281
O40   O     O_R   0.531470 0.999940 0.560090 -0.601357
O41   O     O_R   0.031490 0.445590 0.468510 -0.554666
O42   O     O_R   0.968510 0.445590 0.531490 -0.554336
O43   O     O_R   0.531490 0.945590 0.468510 -0.554666
O44   O     O_R   0.468510 0.945590 0.531490 -0.554336
O45   O     O_R   0.500010 0.554270 0.552980 -0.521162
O46   O     O_R   0.499990 0.554270 0.447020 -0.520418
O47   O     O_R   0.000010 0.054270 0.552980 -0.521162
O48   O     O_R   0.999990 0.054270 0.447020 -0.520418
O49   O     O_3   0.981772 0.569446 0.313253 -0.564257
C169  C     C_3   0.982260 0.597292 0.266414 -0.155938
H13   H     H_    0.967160 0.588597 0.237676 0.177105
H14   H     H_    0.011574 0.605568 0.227737 0.206130
H15   H     H_    0.967835 0.622459 0.298427 0.164298
O50   O     O_3   0.014973 0.570340 0.689496 -0.566633
C170  C     C_3   0.013188 0.598154 0.737511 -0.159999
H16   H     H_    0.028138 0.590020 0.766829 0.175848
H17   H     H_    0.983527 0.605407 0.775730 0.209067
H18   H     H_    0.026977 0.623801 0.706415 0.161178
O51   O     O_3   0.481772 0.069446 0.313253 -0.564257
C171  C     C_3   0.482260 0.097292 0.266414 -0.155938
H19   H     H_    0.467160 0.088598 0.237676 0.177105
H20   H     H_    0.511574 0.105568 0.227737 0.206130
H21   H     H_    0.467835 0.122459 0.298427 0.164298
O52   O     O_3   0.514973 0.070340 0.689496 -0.566633
C172  C     C_3   0.513188 0.098154 0.737511 -0.159999
H22   H     H_    0.528138 0.090020 0.766829 0.175848
H23   H     H_    0.483527 0.105407 0.775730 0.209067
H24   H     H_    0.526977 0.123801 0.706415 0.161178
S1    S     S_3+6 0.690537 0.494869 0.456402 0.125577
O53   O     O_2   0.714977 0.460954 0.440580 -0.161357
O54   O     O_2   0.713549 0.529617 0.444811 -0.240284
O55   O     O_3   0.656460 0.493885 0.542682 -0.439513
H25   H     H_    0.669816 0.491552 0.570314 0.388823
S2    S     S_3+6 0.307482 0.472254 0.555695 0.128293
O56   O     O_2   0.286103 0.436462 0.585604 -0.189796
O57   O     O_2   0.281186 0.502255 0.558657 -0.208591
O58   O     O_3   0.340058 0.465908 0.469313 -0.432393
H26   H     H_    0.326095 0.455539 0.446543 0.390943
S3    S     S_3+6 0.190537 0.994869 0.456402 0.125577
O59   O     O_2   0.214977 0.960954 0.440580 -0.161357
O60   O     O_2   0.213548 0.029617 0.444811 -0.240284
O61   O     O_3   0.156460 0.993885 0.542682 -0.439513
H27   H     H_    0.169816 0.991552 0.570314 0.388823
S4    S     S_3+6 0.807482 0.972254 0.555695 0.128293
O62   O     O_2   0.786103 0.936462 0.585604 -0.189796
O63   O     O_2   0.781186 0.002255 0.558657 -0.208591
O64   O     O_3   0.840058 0.965908 0.469313 -0.432393
H28   H     H_    0.826095 0.955539 0.446543 0.390943
S5    S     S_3+6 0.806374 0.578210 0.155455 0.103396
O65   O     O_2   0.787712 0.572451 0.111259 -0.198348
O66   O     O_2   0.777580 0.591219 0.228989 -0.251082
O67   O     O_3   0.839317 0.611700 0.117258 -0.451411
H29   H     H_    0.826104 0.633274 0.110850 0.390903
S6    S     S_3+6 0.194604 0.576709 0.845723 0.107673
O68   O     O_2   0.212061 0.570994 0.892034 -0.192619
O69   O     O_2   0.224363 0.589192 0.772490 -0.249592
O70   O     O_3   0.162107 0.610653 0.881567 -0.454970
H30   H     H_    0.175428 0.632230 0.887755 0.390145
S7    S     S_3+6 0.306373 0.078210 0.155455 0.103396
O71   O     O_2   0.287712 0.072451 0.111259 -0.198349
O72   O     O_2   0.277580 0.091219 0.228989 -0.251081
O73   O     O_3   0.339317 0.111699 0.117257 -0.451410
H31   H     H_    0.326104 0.133273 0.110849 0.390903
S8    S     S_3+6 0.694604 0.076709 0.845723 0.107673
O74   O     O_2   0.712061 0.070994 0.892034 -0.192618
O75   O     O_2   0.724363 0.089192 0.772490 -0.249592
O76   O     O_3   0.662107 0.110653 0.881567 -0.454970
H32   H     H_    0.675428 0.132230 0.887755 0.390145
S9    S     S_3+6 0.883195 0.542824 0.018011 0.068649
O77   O     O_2   0.905689 0.577967 0.006319 -0.172580
O78   O     O_2   0.908418 0.512885 0.968646 -0.351443
O79   O     O_3   0.849411 0.551028 0.997168 -0.468094
H33   H     H_    0.838499 0.526107 0.998322 0.343397
S10   S     S_3+6 0.117085 0.541745 0.982625 0.064111
O80   O     O_2   0.096011 0.577724 0.993328 -0.172559
O81   O     O_2   0.090527 0.512574 0.032261 -0.355186
O82   O     O_3   0.150780 0.548310 0.004352 -0.472676
H34   H     H_    0.160981 0.523003 0.002935 0.343896
S11   S     S_3+6 0.383195 0.042824 0.018011 0.068649
O83   O     O_2   0.405689 0.077967 0.006319 -0.172580
O84   O     O_2   0.408418 0.012885 0.968646 -0.351443
O85   O     O_3   0.349411 0.051028 0.997168 -0.468095
H35   H     H_    0.338499 0.026107 0.998322 0.343397
S12   S     S_3+6 0.617085 0.041745 0.982625 0.064111
O86   O     O_2   0.596011 0.077724 0.993328 -0.172560
O87   O     O_2   0.590527 0.012574 0.032261 -0.355186
O88   O     O_3   0.650780 0.048310 0.004352 -0.472676
H36   H     H_    0.660981 0.023003 0.002935 0.343897
S13   S     S_3+6 0.887860 0.434046 0.189362 0.089556
O89   O     O_2   0.903057 0.413219 0.119738 -0.256251
O90   O     O_2   0.919419 0.442767 0.203721 -0.277083
O91   O     O_3   0.857238 0.405016 0.253267 -0.418024
H37   H     H_    0.872765 0.384372 0.255413 0.385570
S14   S     S_3+6 0.110723 0.437397 0.803591 0.087201
O92   O     O_2   0.095879 0.414071 0.870394 -0.255467
O93   O     O_2   0.078875 0.448081 0.791402 -0.280413
O94   O     O_3   0.141246 0.410406 0.735475 -0.422179
H38   H     H_    0.125670 0.390628 0.730706 0.385592
S15   S     S_3+6 0.387860 0.934046 0.189362 0.089556
O95   O     O_2   0.403057 0.913219 0.119738 -0.256251
O96   O     O_2   0.419419 0.942767 0.203721 -0.277083
O97   O     O_3   0.357238 0.905016 0.253267 -0.418024
H39   H     H_    0.372765 0.884372 0.255413 0.385570
S16   S     S_3+6 0.610723 0.937397 0.803591 0.087201
O98   O     O_2   0.595879 0.914071 0.870394 -0.255467
O99   O     O_2   0.578875 0.948081 0.791402 -0.280413
O100  O     O_3   0.641246 0.910406 0.735475 -0.422180
H40   H     H_    0.625670 0.890628 0.730706 0.385592
S17   S     S_3+6 0.811511 0.471482 0.327330 0.113600
O101  O     O_2   0.787150 0.437651 0.340421 -0.142285
O102  O     O_2   0.842327 0.462083 0.343386 -0.229246
O103  O     O_3   0.785694 0.505845 0.383279 -0.445827
H41   H     H_    0.803219 0.527236 0.371170 0.340333
S18   S     S_3+6 0.184911 0.479967 0.668208 0.116305
O104  O     O_2   0.210827 0.446908 0.643874 -0.129245
O105  O     O_2   0.152759 0.472326 0.655098 -0.233366
O106  O     O_3   0.207992 0.517803 0.619906 -0.454294
H42   H     H_    0.189712 0.538587 0.640320 0.336453
S19   S     S_3+6 0.311511 0.971482 0.327330 0.113600
O107  O     O_2   0.287150 0.937651 0.340421 -0.142285
O108  O     O_2   0.342327 0.962083 0.343386 -0.229246
O109  O     O_3   0.285694 0.005845 0.383279 -0.445826
H43   H     H_    0.303219 0.027237 0.371170 0.340332
S20   S     S_3+6 0.684911 0.979967 0.668208 0.116305
O110  O     O_2   0.710827 0.946908 0.643874 -0.129245
O111  O     O_2   0.652759 0.972326 0.655098 -0.233366
O112  O     O_3   0.707992 0.017803 0.619906 -0.454294
H44   H     H_    0.689712 0.038588 0.640320 0.336453
O113  O     O_3   0.506827 0.308237 0.605768 -0.567111
C173  C     C_3   0.471506 0.306575 0.668631 -0.263712
H45   H     H_    0.450524 0.291660 0.659039 0.178729
H46   H     H_    0.461149 0.335000 0.690727 0.177573
H47   H     H_    0.474507 0.290548 0.709727 0.192974
O114  O     O_3   0.494103 0.308108 0.393769 -0.567523
C174  C     C_3   0.529363 0.306752 0.330738 -0.266761
H48   H     H_    0.550504 0.292045 0.340089 0.178368
H49   H     H_    0.539515 0.335260 0.308682 0.176704
H50   H     H_    0.526358 0.290671 0.289709 0.193699
O115  O     O_3   0.006827 0.808237 0.605768 -0.567112
C175  C     C_3   0.971506 0.806575 0.668631 -0.263710
H51   H     H_    0.950524 0.791660 0.659039 0.178729
H52   H     H_    0.961148 0.835000 0.690727 0.177573
H53   H     H_    0.974507 0.790548 0.709728 0.192974
O116  O     O_3   0.994103 0.808108 0.393768 -0.567524
C176  C     C_3   0.029363 0.806752 0.330738 -0.266758
H54   H     H_    0.050504 0.792045 0.340089 0.178368
H55   H     H_    0.039516 0.835260 0.308682 0.176703
H56   H     H_    0.026359 0.790671 0.289709 0.193699
O117  O     O_3   0.955678 0.694313 0.625741 -0.503132
C177  C     C_3   0.977495 0.702094 0.658517 -0.168376
H57   H     H_    0.001060 0.721473 0.625421 0.154387
H58   H     H_    0.988565 0.676017 0.669727 0.166521
H59   H     H_    0.959358 0.716057 0.710564 0.188939
O118  O     O_3   0.044679 0.694282 0.373896 -0.504083
C178  C     C_3   0.022631 0.702502 0.341784 -0.165062
H60   H     H_    0.999502 0.722210 0.374989 0.154822
H61   H     H_    0.010918 0.676650 0.331269 0.168161
H62   H     H_    0.040776 0.716260 0.289443 0.188853
O119  O     O_3   0.455678 0.194313 0.625741 -0.503132
C179  C     C_3   0.477495 0.202094 0.658517 -0.168380
H63   H     H_    0.501060 0.221474 0.625421 0.154389
H64   H     H_    0.488565 0.176017 0.669727 0.166522
H65   H     H_    0.459358 0.216058 0.710564 0.188940
O120  O     O_3   0.544679 0.194282 0.373896 -0.504082
C180  C     C_3   0.522631 0.202502 0.341784 -0.165058
H66   H     H_    0.499502 0.222210 0.374989 0.154821
H67   H     H_    0.510918 0.176650 0.331269 0.168160
H68   H     H_    0.540776 0.216260 0.289443 0.188852
S21   S     S_3+6 0.941048 0.611780 0.642607 0.042489
O121  O     O_2   0.910092 0.597554 0.630547 -0.245527
O122  O     O_2   0.959495 0.579342 0.656890 -0.324181
O123  O     O_3   0.921944 0.639491 0.715365 -0.481146
H69   H     H_    0.903569 0.623404 0.754732 0.362055
S22   S     S_3+6 0.057997 0.611583 0.356732 0.040347
O124  O     O_2   0.089278 0.596796 0.367182 -0.247306
O125  O     O_2   0.038534 0.579529 0.343842 -0.325429
O126  O     O_3   0.076777 0.639279 0.283842 -0.484522
H70   H     H_    0.096051 0.623670 0.244960 0.362218
S23   S     S_3+6 0.441048 0.111780 0.642607 0.042489
O127  O     O_2   0.410092 0.097554 0.630547 -0.245527
O128  O     O_2   0.459495 0.079342 0.656890 -0.324181
O129  O     O_3   0.421944 0.139491 0.715365 -0.481146
H71   H     H_    0.403569 0.123404 0.754732 0.362055
S24   S     S_3+6 0.557997 0.111583 0.356732 0.040347
O130  O     O_2   0.589278 0.096796 0.367182 -0.247306
O131  O     O_2   0.538534 0.079529 0.343842 -0.325429
O132  O     O_3   0.576777 0.139279 0.283842 -0.484522
H72   H     H_    0.596051 0.123670 0.244960 0.362218
O133  O     O_3   0.463631 0.693589 0.440911 -0.509354
C181  C     C_3   0.488991 0.697899 0.367020 -0.032437
H73   H     H_    0.499229 0.670438 0.339788 0.162937
H74   H     H_    0.513172 0.715915 0.357656 0.135794
H75   H     H_    0.474154 0.711861 0.342064 0.219935
O134  O     O_3   0.537586 0.693220 0.557784 -0.482837
C182  C     C_3   0.512756 0.696985 0.631988 -0.063528
H76   H     H_    0.503180 0.669294 0.658780 0.159835
H77   H     H_    0.488137 0.714576 0.642634 0.135927
H78   H     H_    0.527828 0.711165 0.656283 0.221010
O135  O     O_3   0.963631 0.193589 0.440911 -0.509354
C183  C     C_3   0.988991 0.197899 0.367020 -0.032437
H79   H     H_    0.999229 0.170438 0.339788 0.162937
H80   H     H_    0.013172 0.215915 0.357656 0.135794
H81   H     H_    0.974154 0.211861 0.342064 0.219935
O136  O     O_3   0.037586 0.193220 0.557784 -0.482837
C184  C     C_3   0.012756 0.196985 0.631988 -0.063529
H82   H     H_    0.003180 0.169294 0.658780 0.159835
H83   H     H_    0.988137 0.214576 0.642634 0.135927
H84   H     H_    0.027828 0.211165 0.656283 0.221010
O137  O     O_3   0.931030 0.522081 0.266879 -0.577880
C185  C     C_3   0.903382 0.525559 0.339450 -0.151065
H85   H     H_    0.911840 0.545921 0.367991 0.177434
H86   H     H_    0.896699 0.497966 0.366949 0.196716
H87   H     H_    0.877282 0.536226 0.342243 0.186456
O138  O     O_3   0.068111 0.525389 0.733382 -0.573107
C186  C     C_3   0.094538 0.532735 0.661203 -0.139347
H88   H     H_    0.084768 0.555187 0.638597 0.174900
H89   H     H_    0.101366 0.507024 0.627957 0.193490
H90   H     H_    0.120857 0.542737 0.658402 0.188762
O139  O     O_3   0.431030 0.022081 0.266879 -0.577880
C187  C     C_3   0.403382 0.025559 0.339450 -0.151065
H91   H     H_    0.411840 0.045921 0.367991 0.177434
H92   H     H_    0.396699 0.997966 0.366949 0.196716
H93   H     H_    0.377282 0.036226 0.342243 0.186456
O140  O     O_3   0.568111 0.025389 0.733382 -0.573106
C188  C     C_3   0.594538 0.032735 0.661203 -0.139347
H94   H     H_    0.584768 0.055187 0.638597 0.174900
H95   H     H_    0.601366 0.007024 0.627957 0.193490
H96   H     H_    0.620857 0.042737 0.658402 0.188762
S25   S     S_3+6 0.447275 0.611761 0.451665 0.096203
O141  O     O_2   0.469544 0.597477 0.376223 -0.212998
O142  O     O_2   0.427439 0.579406 0.500618 -0.272321
O143  O     O_3   0.414472 0.641536 0.455888 -0.419618
H97   H     H_    0.398570 0.647294 0.507497 0.378618
S26   S     S_3+6 0.554394 0.611357 0.544186 0.083410
O144  O     O_2   0.533068 0.595863 0.618955 -0.259211
O145  O     O_2   0.574097 0.579993 0.492554 -0.275490
O146  O     O_3   0.587208 0.641384 0.539421 -0.430997
H98   H     H_    0.602503 0.626658 0.554672 0.388742
S27   S     S_3+6 0.947275 0.111761 0.451665 0.096203
O147  O     O_2   0.969544 0.097477 0.376223 -0.212998
O148  O     O_2   0.927439 0.079406 0.500618 -0.272321
O149  O     O_3   0.914472 0.141536 0.455888 -0.419618
H99   H     H_    0.898570 0.147294 0.507497 0.378618
S28   S     S_3+6 0.054394 0.111357 0.544186 0.083410
O150  O     O_2   0.033068 0.095863 0.618955 -0.259211
O151  O     O_2   0.074097 0.079993 0.492554 -0.275490
O152  O     O_3   0.087208 0.141384 0.539421 -0.430997
H100  H     H_    0.102503 0.126658 0.554672 0.388742
S29   S     S_3+6 0.946365 0.302626 0.457951 0.094807
O153  O     O_2   0.966642 0.286280 0.383866 -0.257124
O154  O     O_2   0.928198 0.271490 0.511352 -0.254019
O155  O     O_3   0.912249 0.331502 0.465286 -0.426577
H101  H     H_    0.897751 0.316657 0.448328 0.390917
S30   S     S_3+6 0.053596 0.303066 0.543557 0.096424
O156  O     O_2   0.033235 0.286591 0.617605 -0.258600
O157  O     O_2   0.071968 0.272039 0.490148 -0.244004
O158  O     O_3   0.087552 0.332160 0.536557 -0.426857
H102  H     H_    0.102009 0.317419 0.553709 0.390588
S31   S     S_3+6 0.446365 0.802626 0.457951 0.094807
O159  O     O_2   0.466642 0.786280 0.383866 -0.257124
O160  O     O_2   0.428198 0.771490 0.511352 -0.254019
O161  O     O_3   0.412249 0.831502 0.465286 -0.426578
H103  H     H_    0.397751 0.816657 0.448328 0.390918
S32   S     S_3+6 0.553596 0.803066 0.543557 0.096424
O162  O     O_2   0.533235 0.786591 0.617605 -0.258600
O163  O     O_2   0.571968 0.772039 0.490148 -0.244004
O164  O     O_3   0.587552 0.832160 0.536557 -0.426857
H104  H     H_    0.602009 0.817419 0.553709 0.390588
S33   S     S_3+6 0.975037 0.390232 0.402192 0.044361
O165  O     O_2   0.938507 0.410954 0.442505 -0.260383
O166  O     O_2   0.006243 0.417667 0.361175 -0.350085
O167  O     O_3   0.973121 0.361298 0.342421 -0.438361
H105  H     H_    0.967648 0.377727 0.311574 0.371403
S34   S     S_3+6 0.024727 0.390616 0.598791 0.045839
O168  O     O_2   0.061230 0.411500 0.558554 -0.259005
O169  O     O_2   0.993462 0.417928 0.639542 -0.345452
O170  O     O_3   0.026579 0.361809 0.658820 -0.439616
H106  H     H_    0.032152 0.378310 0.689440 0.370748
S35   S     S_3+6 0.475037 0.890232 0.402192 0.044361
O171  O     O_2   0.438507 0.910954 0.442505 -0.260383
O172  O     O_2   0.506243 0.917667 0.361175 -0.350085
O173  O     O_3   0.473121 0.861298 0.342421 -0.438361
H107  H     H_    0.467648 0.877727 0.311574 0.371403
S36   S     S_3+6 0.524727 0.890616 0.598791 0.045839
O174  O     O_2   0.561230 0.911499 0.558554 -0.259005
O175  O     O_2   0.493462 0.917928 0.639542 -0.345452
O176  O     O_3   0.526579 0.861809 0.658820 -0.439616
H108  H     H_    0.532152 0.878310 0.689440 0.370748
O177  O     O_3   0.066745 0.478276 0.234212 -0.554119
C189  C     C_3   0.085660 0.453100 0.176966 -0.214614
H109  H     H_    0.086901 0.463344 0.126951 0.178524
H110  H     H_    0.072253 0.425019 0.191651 0.193813
H111  H     H_    0.114966 0.450094 0.166021 0.196785
O178  O     O_3   0.934387 0.475035 0.764929 -0.551918
C190  C     C_3   0.915856 0.450588 0.823682 -0.211100
H112  H     H_    0.914216 0.462181 0.873197 0.177793
H113  H     H_    0.929855 0.422813 0.810850 0.192874
H114  H     H_    0.886684 0.446391 0.834518 0.196493
O179  O     O_3   0.566745 0.978276 0.234212 -0.554119
C191  C     C_3   0.585660 0.953100 0.176966 -0.214614
H115  H     H_    0.586901 0.963344 0.126951 0.178524
H116  H     H_    0.572253 0.925019 0.191652 0.193813
H117  H     H_    0.614966 0.950094 0.166021 0.196784
O180  O     O_3   0.434387 0.975035 0.764929 -0.551918
C192  C     C_3   0.415856 0.950588 0.823682 -0.211102
H118  H     H_    0.414216 0.962181 0.873197 0.177793
H119  H     H_    0.429855 0.922813 0.810849 0.192875
H120  H     H_    0.386684 0.946391 0.834518 0.196494
O181  O     O_3   0.050832 0.549610 0.156552 -0.541859
C193  C     C_3   0.081631 0.554936 0.167593 -0.026174
H121  H     H_    0.102283 0.532023 0.142189 0.200319
H122  H     H_    0.073379 0.556755 0.224833 0.181084
H123  H     H_    0.095730 0.581584 0.141725 0.194115
O182  O     O_3   0.947036 0.547474 0.844328 -0.537873
C194  C     C_3   0.916710 0.551935 0.831547 -0.031384
H124  H     H_    0.896044 0.529017 0.857561 0.193762
H125  H     H_    0.925447 0.552921 0.773948 0.181266
H126  H     H_    0.902418 0.578716 0.855814 0.192905
O183  O     O_3   0.550832 0.049610 0.156552 -0.541859
C195  C     C_3   0.581631 0.054936 0.167593 -0.026173
H127  H     H_    0.602283 0.032023 0.142189 0.200319
H128  H     H_    0.573379 0.056755 0.224833 0.181084
H129  H     H_    0.595730 0.081584 0.141725 0.194115
O184  O     O_3   0.447036 0.047474 0.844328 -0.537873
C196  C     C_3   0.416710 0.051935 0.831547 -0.031384
H130  H     H_    0.396045 0.029017 0.857561 0.193762
H131  H     H_    0.425447 0.052921 0.773948 0.181266
H132  H     H_    0.402418 0.078716 0.855814 0.192905
S37   S     S_3+6 0.701744 0.529152 0.195130 0.109720
O185  O     O_2   0.678914 0.520784 0.159517 -0.202623
O186  O     O_2   0.713209 0.569598 0.183761 -0.148585
O187  O     O_3   0.740340 0.502058 0.157099 -0.548543
H133  H     H_    0.752190 0.507144 0.105061 0.389524
S38   S     S_3+6 0.298413 0.533207 0.800707 0.112519
O188  O     O_2   0.321444 0.528703 0.837093 -0.204854
O189  O     O_2   0.286461 0.573307 0.805801 -0.143281
O190  O     O_3   0.260238 0.505644 0.843166 -0.546558
H134  H     H_    0.251035 0.509462 0.894886 0.391679
S39   S     S_3+6 0.201744 0.029152 0.195130 0.109720
O191  O     O_2   0.178914 0.020784 0.159517 -0.202623
O192  O     O_2   0.213209 0.069598 0.183761 -0.148585
O193  O     O_3   0.240340 0.002058 0.157099 -0.548543
H135  H     H_    0.252190 0.007144 0.105061 0.389524
S40   S     S_3+6 0.798413 0.033207 0.800707 0.112519
O194  O     O_2   0.821444 0.028703 0.837093 -0.204854
O195  O     O_2   0.786461 0.073307 0.805801 -0.143281
O196  O     O_3   0.760238 0.005644 0.843166 -0.546558
H136  H     H_    0.751035 0.009462 0.894886 0.391679
S41   S     S_3+6 0.611852 0.552838 0.293283 0.109235
O197  O     O_2   0.598385 0.530093 0.251535 -0.224127
O198  O     O_2   0.578783 0.571339 0.354975 -0.287079
O199  O     O_3   0.640255 0.587080 0.240660 -0.424676
H137  H     H_    0.625519 0.600303 0.222265 0.384936
S42   S     S_3+6 0.388027 0.556487 0.699203 0.099275
O200  O     O_2   0.400888 0.536765 0.745050 -0.219647
O201  O     O_2   0.421519 0.573108 0.635393 -0.305511
O202  O     O_3   0.359651 0.592095 0.745745 -0.431887
H138  H     H_    0.374142 0.606907 0.762768 0.383579
S43   S     S_3+6 0.111852 0.052838 0.293283 0.109235
O203  O     O_2   0.098385 0.030093 0.251535 -0.224128
O204  O     O_2   0.078783 0.071339 0.354975 -0.287079
O205  O     O_3   0.140255 0.087080 0.240660 -0.424676
H139  H     H_    0.125519 0.100303 0.222265 0.384936
S44   S     S_3+6 0.888027 0.056487 0.699203 0.099275
O206  O     O_2   0.900888 0.036765 0.745050 -0.219647
O207  O     O_2   0.921519 0.073108 0.635393 -0.305511
O208  O     O_3   0.859651 0.092095 0.745745 -0.431887
H140  H     H_    0.874142 0.106907 0.762768 0.383579
S45   S     S_3+6 0.613412 0.448226 0.485362 0.082508
O209  O     O_2   0.590607 0.463564 0.559931 -0.206342
O210  O     O_2   0.588276 0.425505 0.467433 -0.337505
O211  O     O_3   0.646972 0.419903 0.482054 -0.444396
H141  H     H_    0.633337 0.401133 0.520285 0.386402
S46   S     S_3+6 0.388959 0.438540 0.529387 0.076773
O212  O     O_2   0.410716 0.449989 0.451964 -0.213382
O213  O     O_2   0.415486 0.421831 0.551048 -0.348874
O214  O     O_3   0.357466 0.405469 0.539598 -0.440669
H142  H     H_    0.372360 0.385501 0.505270 0.384249
S47   S     S_3+6 0.113412 0.948225 0.485362 0.082508
O215  O     O_2   0.090607 0.963564 0.559931 -0.206342
O216  O     O_2   0.088276 0.925506 0.467433 -0.337506
O217  O     O_3   0.146972 0.919903 0.482054 -0.444396
H143  H     H_    0.133337 0.901133 0.520286 0.386402
S48   S     S_3+6 0.888959 0.938540 0.529387 0.076773
O218  O     O_2   0.910716 0.949989 0.451964 -0.213382
O219  O     O_2   0.915486 0.921831 0.551048 -0.348874
O220  O     O_3   0.857466 0.905469 0.539598 -0.440668
H144  H     H_    0.872360 0.885501 0.505270 0.384249

loop_
_geom_bond_atom_site_label_1
_geom_bond_atom_site_label_2
_ccdc_geom_bond_type
C181  H74   S    
C182  H76   S    
C70   C114  S    
C55   C59   A    
S23   O128  D    
C188  H94   S    
C108  C120  A    
S7    O71   D    
Cu6   O30   S    
Cu10  O46   S    
O208  H140  S    
C178  H62   S    
S28   O151  D    
S9    O77   D    
O136  C184  S    
C192  H120  S    
C78   O47   A    
C89   C99   A    
C196  H130  S    
C14   S42   S    
O67   H29   S    
C121  C131  A    
C154  C158  S    
C84   C154  S    
C180  H67   S    
Cu2   O3    S    
C12   S40   S    
C2    C54   S    
C196  H132  S    
C7    C159  S    
S43   O204  D    
S3    O59   D    
C29   C33   S    
C139  C152  A    
C175  H51   S    
O61   H27   S    
C85   C155  S    
C9    C13   A    
C87   O13   A    
C176  H56   S    
C8    C168  S    
C115  O49   S    
C93   H1    S    
C123  C127  A    
C195  H129  S    
O179  C191  S    
C94   H2    S    
O91   H37   S    
C79   O9    A    
O214  H142  S    
C45   O21   A    
S14   O92   D    
C91   C100  A    
C115  C165  S    
C121  O133  S    
C140  C152  A    
C141  C145  A    
C108  C112  A    
S25   O142  D    
C76   C146  S    
C4    C56   S    
S31   O160  D    
C116  C166  S    
C88   O16   A    
Cu6   O42   S    
C41   C49   A    
S48   O218  D    
C136  C152  S    
C63   C67   A    
C25   C29   A    
Cu11  O15   S    
C169  H15   S    
S39   O192  D    
C27   C31   A    
C164  C168  S    
C9    S37   S    
S44   O206  D    
C179  H64   S    
C89   O113  S    
C84   O138  S    
C73   O35   A    
C62   C66   A    
S36   O174  D    
Cu1   O1    S    
Cu2   O23   S    
S46   O214  S    
S34   O168  D    
O146  H98   S    
C1    O17   A    
S20   O112  S    
C17   C21   A    
S12   O86   D    
S5    O67   S    
C1    O1    A    
C186  H89   S    
O193  H135  S    
C83   C115  S    
C74   O40   A    
C10   C30   A    
Cu7   Cu8   S    
C156  C160  S    
C16   C20   A    
S14   O94   S    
C70   O31   A    
C77   C129  S    
S46   O213  D    
C42   S6    S    
C183  H79   S    
C99   C101  S    
Cu7   O43   S    
C77   O46   A    
C188  H96   S    
S22   O125  D    
C178  H60   S    
Cu3   O17   S    
C63   S19   S    
C107  C120  A    
O167  H105  S    
Cu9   O45   S    
C184  H84   S    
C4    O4    A    
C107  O119  S    
Cu11  O7    S    
S6    O70   S    
O178  C190  S    
C164  O180  S    
C189  H110  S    
S16   O98   D    
C57   C61   A    
C138  C151  A    
Cu1   O21   S    
C59   C63   A    
C175  H53   S    
C60   C64   A    
C148  C162  S    
S40   O194  D    
C149  C155  S    
C155  H7    S    
S24   O130  D    
S6    O69   D    
C95   H3    S    
O149  H99   S    
O170  H106  S    
C47   O27   A    
C49   C53   A    
Cu10  O14   S    
C174  H50   S    
C8    C86   S    
S41   O197  D    
C10   S38   S    
Cu3   O26   S    
C61   C65   A    
C191  H115  S    
C132  C134  S    
S13   O89   D    
C44   S8    S    
O112  H44   S    
Cu7   O31   S    
C117  C149  S    
S45   O209  D    
S48   O220  S    
C161  C165  S    
C171  H19   S    
C26   S2    S    
C190  H114  S    
C71   C147  S    
O133  C181  S    
C20   C82   S    
C123  C132  A    
S36   O175  D    
C163  C167  S    
S19   O107  D    
S44   O208  S    
Cu12  O11   S    
C112  C114  A    
S21   O121  D    
S19   O109  S    
C21   S45   S    
S25   O141  D    
C182  H77   S    
C69   C113  S    
C173  H46   S    
S12   O88   S    
Cu12  O8    S    
C32   C36   S    
S7    O72   D    
C158  H10   S    
S1    O53   D    
C173  H45   S    
C59   S15   S    
C92   C96   A    
C124  C132  A    
S30   O158  S    
C172  H22   S    
C7    C167  S    
C1    C53   S    
C86   C156  S    
C43   S7    S    
C139  C143  A    
S8    O76   S    
C57   S13   S    
O140  C188  S    
S42   O202  S    
C37   C65   S    
C184  H83   S    
Cu11  O47   S    
S9    O79   S    
C51   C55   A    
Cu4   O28   S    
C44   C52   A    
C195  H128  S    
S35   O173  S    
C84   C116  S    
Cu9   O5    S    
S33   O165  D    
Cu1   Cu3   S    
S30   O156  D    
C11   C15   A    
S16   O100  S    
C11   S39   S    
S32   O163  D    
O155  H101  S    
C6    C158  S    
C91   O115  S    
O70   H30   S    
S17   O102  D    
C3    O19   A    
Cu8   O36   S    
C80   O10   A    
C30   C34   S    
C155  C159  S    
S40   O196  S    
C12   C16   A    
C64   S20   S    
C194  H126  S    
O123  H69   S    
C10   C14   A    
C90   O114  S    
O97   H39   S    
O143  H97   S    
O85   H35   S    
S37   O186  D    
O88   H36   S    
C86   O140  S    
S41   O199  S    
C121  C125  A    
O181  C193  S    
C142  S34   S    
C125  C129  A    
S18   O105  D    
O135  C183  S    
C191  H117  S    
S13   O91   S    
S20   O111  D    
S29   O153  D    
C71   O37   A    
O190  H134  S    
C76   O44   A    
S45   O211  S    
S2    O57   D    
C42   C50   A    
C171  H21   S    
C116  O50   S    
S26   O144  D    
S11   O84   D    
C126  S26   S    
C181  H73   S    
S32   O162  D    
S35   O171  D    
C93   C97   A    
C122  C131  A    
C73   O39   A    
S21   O123  S    
S18   O106  S    
S25   O143  S    
C123  O135  S    
C105  C109  A    
S38   O188  D    
O79   H33   S    
S39   O193  S    
Cu7   O40   S    
Cu8   O32   S    
C193  H123  S    
C18   C22   A    
C107  C111  A    
C24   C28   A    
C161  O177  S    
C187  H91   S    
C178  H61   S    
S2    O58   S    
S1    O55   S    
C26   C30   A    
C134  C135  T    
C83   C153  S    
C192  H119  S    
C150  C164  S    
C13   C17   A    
C172  H24   S    
C49   S9    S    
O173  H107  S    
C78   C130  S    
C180  H66   S    
C193  H122  S    
C183  H80   S    
C137  S29   S    
C175  H52   S    
C89   C93   A    
C102  C103  T    
S15   O97   S    
C176  H55   S    
C44   C68   A    
C189  H109  S    
C91   C95   A    
O139  C187  S    
O103  H41   S    
C181  H75   S    
C43   C67   A    
S37   O185  D    
Cu10  O9    S    
C108  O120  S    
C58   S14   S    
S14   O93   D    
C69   O29   A    
C185  H85   S    
C19   C81   S    
C88   C98   S    
S38   O190  S    
C58   C62   A    
S3    O61   S    
C23   S47   S    
C6    C166  S    
C177  H57   S    
C46   O26   A    
C106  C119  A    
C71   O33   A    
C90   C99   A    
C27   S3    S    
O152  H100  S    
C140  S32   S    
Cu4   O19   S    
Cu5   O29   S    
S48   O219  D    
O51   C171  S    
O187  H133  S    
C15   C19   A    
C50   C54   A    
C61   S17   S    
C160  C164  S    
S44   O207  D    
C139  S31   S    
O73   H31   S    
Cu2   O24   S    
O134  C182  S    
Cu12  O48   S    
S34   O169  D    
O115  C175  S    
C115  C147  S    
S29   O155  S    
Cu7   O35   S    
C75   O42   A    
S12   O87   D    
O182  C194  S    
C118  C150  S    
O114  C174  S    
C162  O178  S    
C21   C25   A    
O50   C170  S    
C109  S21   S    
O132  H72   S    
C110  S22   S    
C47   O23   A    
C70   O32   A    
O64   H28   S    
C124  C128  A    
S34   O170  S    
S8    O75   D    
S39   O191  D    
C72   O34   A    
O58   H26   S    
S23   O129  S    
C77   O45   A    
C188  H95   S    
C142  C145  A    
C127  S27   S    
S24   O132  S    
C148  C154  S    
C187  H93   S    
C62   S18   S    
C125  S25   S    
S28   O150  D    
C50   S10   S    
Cu5   O41   S    
C90   C94   A    
C51   S11   S    
O199  H137  S    
C170  H17   S    
O106  H42   S    
C117  O51   S    
C144  S36   S    
C103  C119  S    
C124  O136  S    
S10   O82   S    
C6    C84   S    
O196  H136  S    
C159  H11   S    
O176  H108  S    
O120  C180  S    
C160  H12   S    
C144  C146  A    
C147  C161  S    
C143  C146  A    
C169  H14   S    
C116  C148  S    
Cu3   O18   S    
C162  C166  S    
C83   O137  S    
C177  H59   S    
Cu4   O20   S    
O82   H34   S    
Cu8   O39   S    
C5    C45   S    
C33   C37   T    
C186  H88   S    
C2    O2    A    
S24   O131  D    
C35   C39   T    
S15   O95   D    
C8    C48   S    
C87   O14   A    
S43   O205  S    
C154  H6    S    
O100  H40   S    
S4    O64   S    
C28   C32   A    
S37   O187  S    
C80   O6    A    
C169  H13   S    
C86   C118  S    
S30   O157  D    
Cu3   O25   S    
S9    O78   D    
C72   O38   A    
S16   O99   D    
C191  H116  S    
C101  C104  T    
C5    C157  S    
C138  C142  A    
O129  H71   S    
S31   O161  S    
C31   C35   S    
C180  H68   S    
S36   O176  S    
S5    O66   D    
C78   O48   A    
C88   O15   A    
O205  H139  S    
C64   C68   A    
C168  O184  S    
O184  C196  S    
C171  H20   S    
C48   O28   A    
C165  O181  S    
C190  H113  S    
C137  C141  A    
C53   C57   A    
C52   S12   S    
C73   C149  S    
C140  C144  A    
C179  H63   S    
C122  O134  S    
C128  C130  A    
C81   O7    A    
C141  S33   S    
S19   O108  D    
Cu1   O2    S    
S26   O146  S    
C128  S28   S    
C94   C97   A    
S27   O148  D    
O118  C178  S    
Cu6   O34   S    
C186  H90   S    
C43   C51   A    
C7    C85   S    
C13   S41   S    
C117  C167  S    
C135  C151  S    
C118  C168  S    
O211  H141  S    
C194  H124  S    
Cu9   O13   S    
C111  C114  A    
S32   O164  S    
C153  C157  S    
S46   O212  D    
C3    O3    A    
Cu11  Cu12  S    
C56   C60   A    
C138  S30   S    
S47   O217  S    
Cu9   Cu10  S    
C22   C26   A    
S23   O127  D    
S22   O124  D    
C105  C119  A    
Cu2   Cu4   S    
C24   S48   S    
S28   O152  S    
C190  H112  S    
S40   O195  D    
C104  C120  S    
C173  H47   S    
Cu2   O4    S    
S11   O83   D    
C48   O24   A    
O138  C186  S    
C79   O5    A    
S35   O172  D    
C184  H82   S    
C45   O25   A    
O94   H38   S    
C14   C18   A    
C19   C23   A    
C174  H48   S    
C17   C79   S    
S27   O147  D    
S18   O104  D    
C95   C98   A    
O119  C179  S    
C81   O11   A    
Cu5   Cu6   S    
C75   C145  S    
Cu1   O22   S    
C194  H125  S    
O117  C177  S    
O49   C169  S    
C41   S5    S    
S6    O68   D    
C5    C83   S    
C28   S4    S    
O164  H104  S    
C22   S46   S    
C16   S44   S    
C25   S1    S    
S41   O198  D    
C69   O30   A    
C156  H8    S    
C106  O118  S    
S42   O201  D    
C60   S16   S    
C36   C40   T    
C112  S24   S    
O126  H70   S    
C38   C66   S    
S13   O90   D    
S22   O126  S    
C133  C136  T    
C74   O36   A    
O220  H144  S    
C149  C163  S    
C23   C27   A    
S45   O210  D    
O177  C189  S    
C9    C29   A    
C92   O116  S    
C147  C153  S    
C40   C68   S    
C150  C156  S    
C12   C32   A    
C167  O183  S    
C3    C55   S    
C96   H4    S    
C179  H65   S    
S21   O122  D    
S10   O80   D    
C196  H131  S    
C183  H81   S    
C182  H78   S    
S38   O189  D    
C2    O18   A    
S42   O200  D    
C74   C150  S    
C20   C24   A    
C166  O182  S    
S7    O73   S    
O180  C192  S    
C187  H92   S    
Cu5   O38   S    
S27   O149  S    
O183  C195  S    
S1    O54   D    
O76   H32   S    
O55   H25   S    
C41   C65   A    
C46   O22   A    
S5    O65   D    
C72   C148  S    
C111  S23   S    
O202  H138  S    
C96   C98   A    
C172  H23   S    
C122  C126  A    
C85   C117  S    
C82   O8    A    
S47   O215  D    
S31   O159  D    
O52   C172  S    
C192  H118  S    
C100  C102  S    
C163  O179  S    
S4    O62   D    
S15   O96   D    
C110  C113  A    
C176  H54   S    
Cu4   O27   S    
C118  O52   S    
C18   C80   S    
C195  H127  S    
S4    O63   D    
O109  H43   S    
C5    C165  S    
S33   O166  D    
C159  C163  S    
S33   O167  S    
C185  H86   S    
S10   O81   D    
C15   S43   S    
O116  C176  S    
C92   C100  A    
C42   C66   A    
C54   C58   A    
S17   O103  S    
S3    O60   D    
O161  H103  S    
S8    O74   D    
C177  H58   S    
C6    C46   S    
S47   O216  D    
C126  C129  A    
C39   C67   S    
C85   O139  S    
C193  H121  S    
C7    C47   S    
C157  C161  S    
C131  C133  S    
C189  H111  S    
C170  H16   S    
C109  C113  A    
O113  C173  S    
S26   O145  D    
C4    O20   A    
O158  H102  S    
C185  H87   S    
C127  C130  A    
C143  S35   S    
C82   O12   A    
O137  C185  S    
Cu8   O44   S    
C153  H5    S    
S20   O110  D    
S29   O154  D    
C75   O41   A    
C76   O43   A    
C174  H49   S    
Cu10  O6    S    
O217  H143  S    
Cu6   O37   S    
C157  H9    S    
S2    O56   D    
C158  C162  S    
C11   C31   A    
S43   O203  D    
Cu11  O12   S    
C106  C110  A    
S11   O85   S    
Cu5   O33   S    
S17   O101  D    
Cu9   O10   S    
C137  C151  A    
C105  O117  S    
C34   C38   T    
Cu12  O16   S    
C52   C56   A    
C170  H18   S    
C87   C97   S    
C8    C160  S    
