data_mof_unit_63641.cif
_audit_creation_date              2012-10-26T18:11:27-0400
_audit_creation_method            fapswitch 2.2
_symmetry_space_group_name_H-M    P1
_symmetry_Int_Tables_number       1
_space_group_crystal_system       triclinic
_cell_length_a                    18.760607
_cell_length_b                    18.715902
_cell_length_c                    18.791168
_cell_angle_alpha                 109.309862
_cell_angle_beta                  109.828417
_cell_angle_gamma                 109.267425
_cell_volume                      5079.51775719

loop_
_atom_site_label
_atom_site_type_symbol
_atom_type_description
_atom_site_fract_x
_atom_site_fract_y
_atom_site_fract_z
_atom_type_partial_charge
C1    C     C_R   0.618908 0.619049 0.500025 0.528860
C2    C     C_R   0.685843 0.686233 0.500182 -0.031162
C3    C     C_R   0.707706 0.542589 0.775820 0.369371
C4    C     C_R   0.380847 0.500106 0.380413 0.588782
C5    C     C_R   0.772806 0.543336 0.840954 -0.013973
C6    C     C_R   0.817340 0.500331 0.817640 -0.001059
C7    C     C_R   0.796894 0.457156 0.730107 -0.037859
C8    C     C_R   0.732241 0.458105 0.666595 -0.170530
C9    C     C_R   0.687491 0.500350 0.688671 0.017084
C10   C     C_R   0.239792 0.318872 0.494744 0.317927
C11   C     C_R   0.175337 0.253849 0.493387 -0.182988
C12   C     C_3   0.188414 0.416422 0.192525 -0.000308
C13   C     C_R   0.185690 0.184769 0.498840 -0.105837
C14   C     C_R   0.259920 0.179630 0.503565 0.380960
C15   C     C_R   0.323428 0.243454 0.502678 0.348422
C16   C     C_R   0.380925 0.380987 0.499705 0.630996
C17   C     C_R   0.313895 0.313662 0.499176 -0.027921
C18   C     C_R   0.003138 0.619238 0.121940 0.541478
C19   C     C_R   0.123311 0.499086 0.122364 0.553358
C20   C     C_R   0.005832 0.381081 0.886846 0.528933
C21   C     C_R   0.884438 0.499984 0.884305 0.542327
C22   C     C_R   0.001119 0.881598 0.382048 0.527911
C23   C     C_3   0.218053 0.463414 0.290052 0.371312
C24   C     C_R   0.881168 0.881295 0.500148 0.588625
C25   C     C_R   0.999171 0.118677 0.618166 0.588348
C26   C     C_R   0.118868 0.118421 0.499534 0.560534
C27   C     C_R   0.037122 0.772058 0.201163 -0.119064
C28   C     C_R   0.619814 0.499972 0.620274 0.571724
C29   C     C_R   0.038044 0.837865 0.265050 -0.009822
C30   C     C_R   0.003282 0.816781 0.315811 0.050407
C31   C     C_R   0.969965 0.732286 0.303523 -0.141963
C32   C     C_R   0.969658 0.667620 0.240050 -0.145337
C33   C     C_R   0.003037 0.687099 0.188462 -0.001538
C34   C     C_3   0.313419 0.499973 0.312193 0.045647
C35   C     C_R   0.085629 0.316181 0.830427 -0.029282
C36   C     C_R   0.080955 0.250543 0.762303 -0.167096
C37   C     C_R   0.000843 0.186429 0.686149 0.023047
C38   C     C_R   0.923602 0.185997 0.677187 0.379252
C39   C     C_R   0.926537 0.249016 0.744672 -0.110401
C40   C     C_3   0.316511 0.582234 0.309468 -0.209811
C41   C     C_R   0.006576 0.314319 0.820349 -0.041772
C42   C     C_3   0.219669 0.545261 0.287030 -0.107228
C43   C     C_3   0.191035 0.498266 0.189497 -0.054016
C44   C     C_3   0.286931 0.535549 0.210972 -0.137219
C45   C     C_R   0.753247 0.761983 0.579066 -0.085626
C46   C     C_3   0.284160 0.453748 0.215004 0.334614
C47   C     C_3   0.793299 0.590741 0.934456 -0.219499
C48   C     C_3   0.726122 0.534148 0.949558 -0.271783
C49   C     C_3   0.744472 0.581924 0.042525 -0.447018
C50   C     C_3   0.841686 0.408555 0.701994 -0.237390
C51   C     C_3   0.914061 0.464665 0.691901 -0.295635
C52   C     C_3   0.962046 0.417804 0.667250 -0.431764
C53   C     C_3   0.079286 0.929680 0.279564 -0.235629
C54   C     C_3   0.015265 0.940314 0.213080 -0.306933
C55   C     C_3   0.055676 0.033588 0.229394 -0.433481
C56   C     C_R   0.818244 0.825665 0.579513 0.384975
C57   C     C_3   0.172360 0.387204 0.913800 -0.231065
C58   C     C_3   0.252520 0.377129 0.922576 -0.311679
C59   C     C_3   0.334564 0.450856 0.008911 -0.426879
C60   C     C_3   0.115074 0.322420 0.125309 -0.217353
C61   C     C_3   0.134733 0.257112 0.148121 -0.278721
C62   C     C_3   0.060573 0.163610 0.081644 -0.449093
C63   C     C_R   0.814348 0.814788 0.500542 0.040531
C64   C     C_R   0.746107 0.739817 0.421544 -0.193441
C65   C     C_R   0.682700 0.674974 0.421480 -0.148144
Cu1   Cu    Cu3+1 0.500500 0.438200 0.438680 1.046848
Cu2   Cu    Cu3+1 0.499500 0.561800 0.561320 1.097852
Cu3   Cu    Cu3+1 0.942090 0.438180 0.003770 0.946978
Cu4   Cu    Cu3+1 0.065710 0.561750 0.003750 0.925613
Cu5   Cu    Cu3+1 0.062280 0.999890 0.562170 1.060493
Cu6   Cu    Cu3+1 0.937720 0.999930 0.437650 0.995671
F1    F     F_    0.663869 0.582781 0.798001 -0.628951
F2    F     F_    0.229057 0.385717 0.489857 -0.556383
F3    F     F_    0.269920 0.112044 0.507177 -0.573615
F4    F     F_    0.395151 0.237989 0.507385 -0.569258
F5    F     F_    0.845252 0.123295 0.604473 -0.599909
F6    F     F_    0.318637 0.407051 0.179315 -0.647278
F7    F     F_    0.184213 0.426985 0.332291 -0.581302
F8    F     F_    0.883582 0.898595 0.656430 -0.608486
H1    H     H_    0.191686 0.582437 0.315554 0.148468
H2    H     H_    0.866257 0.247881 0.737303 0.147242
H3    H     H_    0.314369 0.564785 0.177208 0.137071
H4    H     H_    0.756223 0.771026 0.640222 0.154002
H5    H     H_    0.742870 0.730965 0.360329 0.128763
H6    H     H_    0.809487 0.597077 0.089865 0.166022
H7    H     H_    0.742667 0.643548 0.056055 0.165588
H8    H     H_    0.694147 0.539889 0.051090 0.150905
H9    H     H_    0.659294 0.516689 0.903416 0.217810
H10   H     H_    0.728175 0.472803 0.937756 0.182176
H11   H     H_    0.859907 0.609239 0.981929 0.131819
H12   H     H_    0.630540 0.616803 0.360101 0.150950
H13   H     H_    0.793102 0.653230 0.948466 0.187444
H14   H     H_    0.995373 0.406271 0.720060 0.166085
H15   H     H_    0.915554 0.354303 0.605666 0.174355
H16   H     H_    0.012101 0.458794 0.657699 0.161494
H17   H     H_    0.885273 0.479679 0.640295 0.166511
H18   H     H_    0.961934 0.527249 0.754267 0.191413
H19   H     H_    0.869614 0.388780 0.749279 0.152949
H20   H     H_    0.792667 0.346957 0.638882 0.160982
H21   H     H_    0.072804 0.080347 0.295409 0.173215
H22   H     H_    0.115464 0.050780 0.223932 0.163221
H23   H     H_    0.716966 0.425526 0.599491 0.151590
H24   H     H_    0.008078 0.039340 0.180196 0.150838
H25   H     H_    0.996849 0.894693 0.145974 0.160734
H26   H     H_    0.954987 0.924432 0.217648 0.189752
H27   H     H_    0.101448 0.978685 0.346683 0.188823
H28   H     H_    0.138887 0.944093 0.273789 0.167186
H29   H     H_    0.348344 0.514991 0.013017 0.148388
H30   H     H_    0.326201 0.450639 0.064484 0.217588
H31   H     H_    0.391278 0.441812 0.013691 0.163032
H32   H     H_    0.241468 0.313826 0.919615 0.187610
H33   H     H_    0.263972 0.379250 0.868833 0.166192
H34   H     H_    0.118067 0.258115 0.489586 0.177732
H35   H     H_    0.186003 0.451112 0.917393 0.174230
H36   H     H_    0.165141 0.388822 0.970613 0.155476
H37   H     H_    0.998856 0.155482 0.080818 0.166051
H38   H     H_    0.051081 0.147061 0.015431 0.178579
H39   H     H_    0.076819 0.117819 0.099500 0.150243
H40   H     H_    0.195968 0.262703 0.149227 0.222326
H41   H     H_    0.143592 0.271374 0.213781 0.219298
H42   H     H_    0.053246 0.315800 0.123282 0.176716
H43   H     H_    0.107327 0.308707 0.060087 0.149720
H44   H     H_    0.063225 0.787395 0.161476 0.132936
H45   H     H_    0.370236 0.650196 0.358616 0.146917
H46   H     H_    0.943637 0.716365 0.342849 0.115281
H47   H     H_    0.943587 0.602531 0.231508 0.142476
H48   H     H_    0.139249 0.248752 0.766804 0.132793
O1    O     O_R   0.590610 0.537990 0.448230 -0.518506
O2    O     O_R   0.948100 0.909770 0.357840 -0.533639
O3    O     O_R   0.962410 0.909720 0.552480 -0.469379
O4    O     O_R   0.589770 0.642360 0.551790 -0.523293
O5    O     O_R   0.857220 0.909750 0.447330 -0.505970
O6    O     O_R   0.051900 0.090060 0.641980 -0.516733
O7    O     O_R   0.946710 0.090090 0.536830 -0.453601
O8    O     O_R   0.142780 0.090070 0.552500 -0.453152
O9    O     O_R   0.037590 0.090110 0.447350 -0.536833
O10   O     O_R   0.409550 0.447810 0.357350 -0.475461
O11   O     O_R   0.408710 0.552190 0.460910 -0.494572
O12   O     O_R   0.055400 0.642330 0.093210 -0.508406
O13   O     O_R   0.410230 0.357640 0.448210 -0.477905
O14   O     O_R   0.409390 0.462010 0.551770 -0.456718
O15   O     O_R   0.591290 0.447810 0.539090 -0.524968
O16   O     O_R   0.590450 0.552190 0.642650 -0.442812
O17   O     O_R   0.951000 0.537980 0.093230 -0.514271
O18   O     O_R   0.042570 0.447790 0.094640 -0.508751
O19   O     O_R   0.146970 0.552140 0.094620 -0.506733
O20   O     O_R   0.952400 0.357600 0.914310 -0.503065
O21   O     O_R   0.056800 0.461950 0.914290 -0.524378
O22   O     O_R   0.860830 0.447790 0.912900 -0.508344
O23   O     O_R   0.965230 0.552140 0.912880 -0.513451
O24   O     O_R   0.053290 0.909730 0.462990 -0.496429

loop_
_geom_bond_atom_site_label_1
_geom_bond_atom_site_label_2
_ccdc_geom_bond_type
Cu4   O12   S    
C15   F4    S    
C42   H1    S    
C27   C29   A    
C47   H13   S    
C49   H8    S    
C3    F1    S    
C35   C36   A    
C1    O1    A    
C2    C65   A    
Cu2   O16   S    
Cu6   O7    S    
C20   C41   S    
C7    C8    A    
C39   C41   A    
C38   F5    S    
C53   C54   S    
C27   C33   A    
C5    C47   S    
C12   C23   S    
C50   H20   S    
C29   C30   A    
C56   F8    S    
C58   H33   S    
Cu4   O23   S    
C14   F3    S    
C54   H25   S    
C36   C37   A    
C12   C43   S    
C44   H3    S    
C30   C31   A    
C10   F2    S    
C61   H40   S    
C10   C17   A    
C55   H24   S    
Cu5   O3    S    
C59   H31   S    
C52   H16   S    
C15   C17   A    
C1    C2    S    
C32   H47   S    
Cu2   O11   S    
C24   O5    A    
C64   H5    S    
C62   H38   S    
Cu3   O22   S    
C25   C37   S    
C4    O10   A    
C22   O24   A    
C53   H27   S    
C47   C48   S    
C45   C56   A    
C44   C46   S    
C8    C9    A    
C55   H21   S    
Cu5   O6    S    
C48   H9    S    
C52   H15   S    
Cu5   Cu6   S    
C26   O8    A    
C21   O22   A    
C25   O6    A    
C51   H17   S    
C40   C42   S    
Cu1   Cu2   S    
Cu6   O5    S    
C13   C14   A    
C61   H41   S    
Cu4   O19   S    
C18   O12   A    
C35   C41   A    
C19   C43   S    
C60   H42   S    
C51   H18   S    
C2    C45   A    
C38   C39   A    
C40   H45   S    
C4    C34   S    
C50   H19   S    
C19   O19   A    
C51   C52   S    
C49   H6    S    
C45   H4    S    
C39   H2    S    
C57   H36   S    
Cu6   O9    S    
C27   H44   S    
C16   C17   S    
C3    C5    A    
C58   C59   S    
C6    C21   S    
C58   H32   S    
C60   C61   S    
C43   C44   S    
C62   H37   S    
C37   C38   A    
C3    C9    A    
Cu6   O2    S    
C53   H28   S    
C31   C32   A    
C23   C34   S    
C20   O21   A    
C50   C51   S    
C56   C63   A    
C52   H14   S    
C28   O16   A    
C19   O18   A    
C21   O23   A    
C60   H43   S    
C25   O7    A    
C23   C42   S    
C6    C7    A    
Cu3   O20   S    
C34   C46   S    
C12   C46   S    
C48   C49   S    
C24   C63   S    
C48   H10   S    
C22   O2    A    
Cu5   O8    S    
C20   O20   A    
C47   H11   S    
C34   C40   S    
C13   C26   S    
C36   H48   S    
C28   O15   A    
C42   C43   S    
C31   H46   S    
Cu2   O14   S    
C16   O13   A    
C65   H12   S    
C54   C55   S    
C22   C30   S    
C54   H26   S    
C49   H7    S    
Cu3   Cu4   S    
Cu2   O4    S    
Cu5   O24   S    
C7    C50   S    
C1    O4    A    
C46   F6    S    
C57   H35   S    
Cu1   O15   S    
C55   H22   S    
C59   H29   S    
C35   C57   S    
C64   C65   A    
C18   O17   A    
C16   O14   A    
C32   C33   A    
C11   C13   A    
C57   C58   S    
C5    C6    A    
Cu1   O10   S    
C29   C53   S    
C59   H30   S    
Cu1   O1    S    
Cu3   O17   S    
C23   F7    S    
C61   C62   S    
C11   H34   S    
C18   C33   S    
C62   H39   S    
C26   O9    A    
C10   C11   A    
C4    O11   A    
C63   C64   A    
C12   C60   S    
C24   O3    A    
C40   C44   S    
Cu1   O13   S    
Cu4   O21   S    
C14   C15   A    
C8    H23   S    
Cu3   O18   S    
C9    C28   S    
