data_mof_unit_18038.cif
_audit_creation_date              2012-10-26T21:08:04-0400
_audit_creation_method            fapswitch 2.2
_symmetry_space_group_name_H-M    P1
_symmetry_Int_Tables_number       1
_space_group_crystal_system       triclinic
_cell_length_a                    15.875918
_cell_length_b                    10.91711
_cell_length_c                    9.638955
_cell_angle_alpha                 90.293285
_cell_angle_beta                  90.778661
_cell_angle_gamma                 94.843597
_cell_volume                      1664.46284331

loop_
_atom_site_label
_atom_site_type_symbol
_atom_type_description
_atom_site_fract_x
_atom_site_fract_y
_atom_site_fract_z
_atom_type_partial_charge
C1    C     C_R   0.490153 0.262615 0.500161 0.545977
C2    C     C_R   0.480688 0.066768 0.882080 -0.070116
C3    C     C_R   0.527210 0.964763 0.878486 0.274978
C4    C     C_R   0.340064 0.499565 0.499187 0.533766
C5    C     C_R   0.535450 0.902341 0.753188 -0.040938
C6    C     C_R   0.500332 0.943532 0.628503 -0.047518
C7    C     C_R   0.474385 0.063326 0.629504 0.002048
C8    C     C_R   0.475177 0.127952 0.502956 -0.048209
C9    C     C_R   0.470328 0.061765 0.378360 -0.067556
C10   C     C_R   0.469567 0.934394 0.379069 0.248559
C11   C     C_R   0.492437 0.873534 0.502542 -0.005345
C12   C     C_3   0.083339 0.500693 0.498105 0.075656
C13   C     C_R   0.635603 0.641793 0.139966 0.278273
C14   C     C_R   0.707624 0.679961 0.063166 -0.077973
C15   C     C_R   0.703830 0.678567 0.921129 0.202382
C16   C     C_R   0.499448 0.738527 0.500669 0.547891
C17   C     C_R   0.630024 0.633219 0.855649 -0.054063
C18   C     C_R   0.564511 0.566079 0.926032 0.067523
C19   C     C_R   0.565443 0.568233 0.075268 0.155773
C20   C     C_R   0.439208 0.433599 0.072736 0.344515
C21   C     C_R   0.439038 0.435589 0.924246 0.009854
C22   C     C_R   0.659910 0.500489 0.500855 0.564339
C23   C     C_3   0.979272 0.606802 0.566034 -0.105135
C24   C     C_3   0.966787 0.404986 0.565339 0.257563
C25   C     C_3   0.020391 0.399338 0.433399 -0.153361
C26   C     C_1   0.250433 0.500061 0.497635 0.018088
C27   C     C_1   0.749594 0.502274 0.502465 0.027863
C28   C     C_3   0.029392 0.504442 0.628459 0.238868
C29   C     C_3   0.916736 0.504886 0.501087 0.004327
C30   C     C_3   0.032881 0.600215 0.433981 0.221378
C31   C     C_3   0.969529 0.501259 0.367366 -0.140644
C32   C     C_1   0.174951 0.500480 0.497436 0.048217
C33   C     C_1   0.825139 0.503759 0.502479 0.029392
C34   C     C_R   0.453802 0.115803 0.757942 -0.114568
Cl1   Cl    Cl    0.576847 0.917313 0.029747 -0.536505
Cl2   Cl    Cl    0.787381 0.749402 0.824884 -0.596593
Cu1   Cu    Cu3+1 0.499990 0.499990 0.640660 0.963244
Cu2   Cu    Cu3+1 0.500010 0.500010 0.359340 1.095625
H1    H     H_    0.037379 0.314087 0.381320 0.139111
H2    H     H_    0.469262 0.111861 0.979560 0.146403
H3    H     H_    0.402542 0.806784 0.281544 0.338670
H4    H     H_    0.338873 0.318785 0.075330 0.297342
H5    H     H_    0.683287 0.744046 0.294925 0.314096
H6    H     H_    0.977980 0.255522 0.664580 0.343514
H7    H     H_    0.022225 0.749516 0.334198 0.335004
H8    H     H_    0.012343 0.507747 0.824775 0.351515
H9    H     H_    0.574705 0.828635 0.752876 0.153684
H10   H     H_    0.762833 0.726930 0.113262 0.148174
H11   H     H_    0.625092 0.657816 0.750127 0.193436
H12   H     H_    0.388958 0.383815 0.866709 0.101152
H13   H     H_    0.944296 0.502790 0.259462 0.145162
H14   H     H_    0.962597 0.691616 0.619408 0.170444
H15   H     H_    0.463302 0.108258 0.280313 0.180242
H16   H     H_    0.417538 0.194891 0.763279 0.132019
N1    N     N_R   0.500800 0.501210 0.147910 -0.194120
N2    N     N_R   0.500830 0.501290 0.852040 -0.263767
O1    O     O_R   0.499990 0.319640 0.618810 -0.507768
O2    O     O_3   0.377942 0.363045 0.143351 -0.666406
O3    O     O_3   0.630131 0.694564 0.268326 -0.607763
O4    O     O_3   0.930185 0.303292 0.636759 -0.651105
O5    O     O_3   0.069941 0.702360 0.363923 -0.660848
O6    O     O_3   0.061831 0.503139 0.763942 -0.669712
O7    O     O_R   0.500000 0.319660 0.381240 -0.475178
O8    O     O_R   0.379070 0.499980 0.618770 -0.506751
O9    O     O_R   0.379080 0.500000 0.381190 -0.448528
O10   O     O_R   0.500000 0.680340 0.618760 -0.541991
O11   O     O_R   0.500010 0.680360 0.381190 -0.405061
O12   O     O_R   0.620920 0.500000 0.618810 -0.512126
O13   O     O_R   0.620930 0.500020 0.381230 -0.467422
O14   O     O_3   0.446246 0.873277 0.257636 -0.608996

loop_
_geom_bond_atom_site_label_1
_geom_bond_atom_site_label_2
_ccdc_geom_bond_type
C25   C31   S    
C21   N2    A    
C4    C26   S    
C24   C25   S    
C23   C30   S    
C2    H2    S    
C26   C32   T    
C6    C7    A    
C13   O3    S    
C18   N2    A    
C1    C8    S    
C9    C10   A    
C4    O8    A    
C22   O13   A    
Cu2   O9    S    
H5    O3    S    
C12   C25   S    
C24   O4    S    
C12   C30   S    
Cu1   O10   S    
C2    C34   A    
C17   C18   A    
C8    C9    A    
Cu2   O13   S    
C7    C8    A    
C29   C31   S    
C16   O11   A    
C23   C28   S    
C25   H1    S    
C5    H9    S    
C30   C31   S    
C22   O12   A    
C23   H14   S    
C5    C6    A    
H6    O4    S    
C20   N1    A    
C23   C29   S    
H7    O5    S    
C21   H12   S    
Cu1   Cu2   S    
H8    O6    S    
C34   H16   S    
C2    C3    A    
C22   C27   S    
C12   C32   S    
C4    O9    A    
C7    C34   A    
C3    Cl1   S    
C9    H15   S    
C10   C11   A    
C13   C19   A    
C1    O1    A    
C20   O2    S    
Cu1   O12   S    
C29   C33   S    
C15   Cl2   S    
C24   C29   S    
Cu1   O8    S    
C16   O10   A    
Cu2   O11   S    
C10   O14   S    
Cu2   O7    S    
C11   C16   S    
C30   O5    S    
C17   H11   S    
C6    C11   A    
C15   C17   A    
C19   N1    A    
C14   C15   A    
C18   C19   A    
C14   H10   S    
H4    O2    S    
C12   C28   S    
C20   C21   A    
C13   C14   A    
Cu1   N2    S    
Cu1   O1    S    
C1    O7    A    
C27   C33   T    
Cu2   N1    S    
C24   C28   S    
C31   H13   S    
H3    O14   S    
C3    C5    A    
C28   O6    S    
