data_mof_unit_50321.cif
_audit_creation_date              2012-12-10T17:21:39-0500
_audit_creation_method            fapswitch 2.2
_symmetry_space_group_name_H-M    P1
_symmetry_Int_Tables_number       1
_space_group_crystal_system       triclinic
_cell_length_a                    10.752117
_cell_length_b                    10.87275
_cell_length_c                    9.605808
_cell_angle_alpha                 88.442352
_cell_angle_beta                  89.511725
_cell_angle_gamma                 92.912013
_cell_volume                      1121.04811889

loop_
_atom_site_label
_atom_site_type_symbol
_atom_type_description
_atom_site_fract_x
_atom_site_fract_y
_atom_site_fract_z
_atom_type_partial_charge
C1    C     C_R   0.505652 0.262393 0.502665 0.850981
C2    C     C_3   0.877514 0.494754 0.497625 -0.073113
C3    C     C_3   0.933774 0.617995 0.555531 0.054871
C4    C     C_3   0.928120 0.480456 0.346129 0.282428
C5    C     C_R   0.501157 0.103230 0.768604 -0.183779
C6    C     C_R   0.453395 0.037671 0.884951 -0.266192
C7    C     C_R   0.387502 0.924582 0.869874 0.373297
C8    C     C_R   0.382444 0.871550 0.737097 0.443509
C9    C     C_R   0.448036 0.931262 0.622445 -0.079571
C10   C     C_R   0.487109 0.056153 0.633543 0.012001
C11   C     C_R   0.509865 0.127612 0.508787 -0.107087
C12   C     C_R   0.259901 0.497256 0.500142 0.904785
C13   C     C_R   0.521305 0.068785 0.382144 -0.256539
C14   C     C_R   0.511241 0.941126 0.375885 0.382708
C15   C     C_R   0.476889 0.870926 0.497149 -0.105352
C16   C     C_R   0.666686 0.662646 0.138003 -0.050324
C17   C     C_R   0.748975 0.742224 0.063195 -0.187635
C18   C     C_R   0.749318 0.742671 0.919674 -0.234313
C19   C     C_R   0.667544 0.663397 0.850098 -0.128174
C20   C     C_R   0.582355 0.580127 0.922060 0.161651
C21   C     C_R   0.582134 0.579955 0.071603 0.180028
C22   C     C_R   0.421674 0.424651 0.078795 -0.040598
C23   C     C_R   0.490316 0.736940 0.498633 0.855254
C24   C     C_R   0.420485 0.423709 0.932054 0.441519
C25   C     C_R   0.739626 0.497546 0.499369 0.796593
C26   C     C_3   0.065538 0.386551 0.594472 0.278462
C27   C     C_3   0.920626 0.386080 0.592924 0.207338
C28   C     C_3   0.077333 0.616758 0.555419 -0.529734
C29   C     C_3   0.071781 0.480005 0.346990 0.269016
C30   C     C_3   0.121411 0.493903 0.498897 -0.108398
Cu1   Cu    Cu3+1 0.499990 0.499990 0.640660 0.936168
Cu2   Cu    Cu3+1 0.500010 0.500010 0.359340 0.988403
H1    H     H_    0.901242 0.561767 0.281532 0.079653
H2    H     H_    0.812465 0.804497 0.117311 0.181442
H3    H     H_    0.888890 0.400295 0.702157 0.031980
H4    H     H_    0.901930 0.627112 0.665618 0.127621
H5    H     H_    0.108838 0.561504 0.283107 0.059029
N1    N     N_R   0.501200 0.501210 0.147910 -0.242615
N2    N     N_R   0.501250 0.501290 0.852040 -0.251486
O1    O     O_R   0.499990 0.319640 0.618810 -0.628862
O2    O     O_R   0.500000 0.319660 0.381240 -0.568924
O3    O     O_R   0.317680 0.499970 0.618790 -0.591743
O4    O     O_R   0.317700 0.499990 0.381210 -0.563427
O5    O     O_R   0.500000 0.680340 0.618760 -0.581278
O6    O     O_R   0.500010 0.680360 0.381190 -0.551543
O7    O     O_R   0.682300 0.500010 0.618790 -0.645222
O8    O     O_R   0.682320 0.500030 0.381210 -0.578631
H6    H     H_    0.097084 0.403206 0.703230 0.057915
H7    H     H_    0.119043 0.695797 0.491790 0.253864
O9    O     O_3   0.897016 0.719854 0.475090 -0.709604
H8    H     H_    0.814470 0.741923 0.511102 0.313583
H9    H     H_    0.540948 0.122274 0.286938 0.160531
H10   H     H_    0.553687 0.187878 0.788452 0.190033
H11   H     H_    0.464140 0.077561 0.986528 0.151374
O10   O     O_3   0.329138 0.863944 0.982646 -0.735788
H12   H     H_    0.339006 0.915431 0.065868 0.351932
O11   O     O_3   0.306161 0.768155 0.713542 -0.736036
H13   H     H_    0.268936 0.735117 0.802318 0.360775
O12   O     O_3   0.533706 0.884029 0.251992 -0.721560
H14   H     H_    0.561628 0.946390 0.179621 0.318483
H15   H     H_    0.357847 0.362835 0.137945 0.182137
O13   O     O_3   0.109015 0.273224 0.552505 -0.605433
H16   H     H_    0.097468 0.214690 0.633283 0.340798
H17   H     H_    0.672374 0.670783 0.247616 0.209179
H18   H     H_    0.813310 0.805143 0.861428 0.168801
H19   H     H_    0.675495 0.671897 0.740102 0.187919
O14   O     O_3   0.334193 0.342094 0.875761 -0.762429
H20   H     H_    0.344669 0.342809 0.774827 0.384096
O15   O     O_3   0.869673 0.271998 0.548496 -0.607791
H21   H     H_    0.785033 0.260138 0.590291 0.307968
H22   H     H_    0.110170 0.628235 0.663886 0.200535
O16   O     O_3   0.113562 0.371743 0.288675 -0.607913
H23   H     H_    0.113369 0.384672 0.185947 0.312956
O17   O     O_3   0.875752 0.372352 0.287760 -0.617647
H24   H     H_    0.877940 0.385597 0.185050 0.307120

loop_
_geom_bond_atom_site_label_1
_geom_bond_atom_site_label_2
_ccdc_geom_bond_type
O10   H12   S    
C16   C21   A    
C23   O6    A    
Cu1   O3    S    
Cu2   O6    S    
C19   C20   A    
C1    C11   S    
C7    O10   S    
C7    C8    A    
C18   H18   S    
C14   O12   S    
C26   C27   S    
O13   H16   S    
C5    H10   S    
C3    C28   S    
C12   O4    A    
C5    C6    A    
C22   N1    A    
C24   N2    A    
Cu1   O1    S    
C19   H19   S    
C18   C19   A    
C12   O3    A    
C1    O1    A    
C21   N1    A    
C8    C9    A    
Cu1   O7    S    
Cu2   O2    S    
C2    C27   S    
Cu2   N1    S    
C9    C10   A    
C25   O8    A    
C4    O17   S    
C4    C29   S    
C24   O14   S    
C26   H6    S    
C29   O16   S    
C15   C23   S    
O12   H14   S    
C13   C14   A    
C6    H11   S    
C3    O9    S    
O9    H8    S    
Cu1   O5    S    
O14   H20   S    
O17   H24   S    
C20   N2    A    
C16   C17   A    
C27   H3    S    
C23   O5    A    
C2    C4    S    
C29   C30   S    
C8    O11   S    
C13   H9    S    
C28   H7    S    
Cu1   Cu2   S    
C17   C18   A    
C1    O2    A    
C26   C30   S    
Cu2   O8    S    
C22   C24   A    
C28   H22   S    
C17   H2    S    
C4    H1    S    
C12   C30   S    
O16   H23   S    
C27   O15   S    
C6    C7    A    
C28   C30   S    
C2    C3    S    
C26   O13   S    
C5    C10   A    
C22   H15   S    
C11   C13   A    
O11   H13   S    
C3    H4    S    
Cu2   O4    S    
Cu1   N2    S    
C2    C25   S    
C9    C15   A    
O15   H21   S    
C10   C11   A    
C20   C21   A    
C29   H5    S    
C14   C15   A    
C16   H17   S    
C25   O7    A    
