data_mof_unit_28303.cif
_audit_creation_date              2012-12-11T14:43:37-0500
_audit_creation_method            fapswitch 2.2
_symmetry_space_group_name_H-M    P1
_symmetry_Int_Tables_number       1
_space_group_crystal_system       triclinic
_cell_length_a                    20.989225
_cell_length_b                    7.089319
_cell_length_c                    16.338776
_cell_angle_alpha                 90.031988
_cell_angle_beta                  93.054978
_cell_angle_gamma                 90.141192
_cell_volume                      2427.73558787

loop_
_atom_site_label
_atom_site_type_symbol
_atom_type_description
_atom_site_fract_x
_atom_site_fract_y
_atom_site_fract_z
_atom_type_partial_charge
O1    O     O_R   0.564840 0.505290 0.579830 -0.525658
O2    O     O_R   0.435160 0.005290 0.420170 -0.527688
O3    O     O_R   0.556720 0.179930 0.409350 -0.533391
O4    O     O_R   0.443280 0.679930 0.590650 -0.534862
C1    C     C_R   0.570412 0.345951 0.381214 0.751655
C2    C     C_R   0.429494 0.845839 0.618766 0.753481
O5    O     O_R   0.572280 0.175810 0.578530 -0.526006
O6    O     O_R   0.427720 0.675810 0.421470 -0.530087
O7    O     O_R   0.450830 0.001920 0.590540 -0.536924
O8    O     O_R   0.549170 0.501920 0.409460 -0.537396
C3    C     C_R   0.589897 0.345276 0.605332 0.814471
C4    C     C_R   0.410093 0.844866 0.394866 0.824282
O9    O     O_3   0.460130 0.338030 0.503750 -0.378680
O10   O     O_3   0.539870 0.838030 0.496250 -0.375968
V1    V     V_3+5 0.507400 0.064560 0.499310 1.580185
V2    V     V_3+5 0.492600 0.564560 0.500690 1.575240
C5    C     C_R   0.142402 0.912041 0.169034 -0.222098
C6    C     C_R   0.858857 0.410507 0.829198 -0.163002
C7    C     C_R   0.357884 0.862437 0.329817 -0.157838
C8    C     C_R   0.642623 0.364220 0.670019 -0.154605
C9    C     C_R   0.317715 0.018910 0.203931 0.183760
C10   C     C_R   0.685889 0.532911 0.791655 0.107366
C11   C     C_R   0.368728 0.971849 0.260242 0.252739
C12   C     C_R   0.633893 0.484506 0.737017 0.296352
C13   C     C_R   0.296695 0.789726 0.341271 0.308893
C14   C     C_R   0.702736 0.282610 0.660164 0.314069
C15   C     C_R   0.244138 0.839975 0.286163 -0.104241
C16   C     C_R   0.756053 0.332853 0.714285 -0.069523
C17   C     C_R   0.255851 0.941982 0.213291 -0.092302
C18   C     C_R   0.745815 0.443372 0.785280 -0.141735
C19   C     C_R   0.205534 0.964853 0.152069 0.354243
C20   C     C_R   0.796871 0.466075 0.846033 0.344106
C21   C     C_R   0.129437 0.849007 0.247837 0.024497
C22   C     C_R   0.871056 0.338869 0.751610 -0.011000
C23   C     C_R   0.179982 0.803673 0.305239 0.388094
C24   C     C_R   0.819831 0.289868 0.695515 0.392787
C25   C     C_R   0.384847 0.923225 0.837606 0.235920
C26   C     C_R   0.616130 0.416897 0.162545 0.238017
C27   C     C_R   0.390095 0.861828 0.691129 -0.241266
C28   C     C_R   0.610170 0.361867 0.309282 -0.241272
C29   C     C_R   0.083069 0.920767 0.733795 0.264853
C30   C     C_R   0.917258 0.427497 0.265754 0.260007
C31   C     C_R   0.118856 0.964356 0.666705 0.244077
C32   C     C_R   0.881520 0.472880 0.332590 0.245517
C33   C     C_R   0.185199 0.978227 0.675193 0.348292
C34   C     C_R   0.815155 0.483585 0.324234 0.347818
C35   C     C_R   0.218194 0.911615 0.747921 -0.049257
C36   C     C_R   0.782203 0.411122 0.252443 -0.052560
C37   C     C_R   0.182322 0.876633 0.818521 -0.094603
C38   C     C_R   0.817948 0.372189 0.182055 -0.090039
C39   C     C_R   0.286040 0.884747 0.753164 -0.031232
C40   C     C_R   0.714445 0.382961 0.247728 -0.030466
C41   C     C_R   0.318150 0.886834 0.831400 -0.091021
C42   C     C_R   0.682464 0.378858 0.169642 -0.079446
C43   C     C_R   0.283456 0.837830 0.899881 0.432213
C44   C     C_R   0.716480 0.319419 0.102380 0.384755
C45   C     C_R   0.216539 0.812138 0.890475 0.029282
C46   C     C_R   0.783718 0.299293 0.111255 0.061413
C47   C     C_R   0.322441 0.843869 0.684141 0.304183
C48   C     C_R   0.677885 0.346513 0.317062 0.304763
C49   C     C_R   0.419797 0.920291 0.766335 0.072631
C50   C     C_R   0.580712 0.416167 0.233377 0.076137
C51   C     C_R   0.114042 0.899825 0.812499 -0.187990
C52   C     C_R   0.886128 0.399665 0.187517 -0.195701
O11   O     O_R   0.950790 0.256670 0.090520 -0.533413
O12   O     O_R   0.049210 0.756670 0.909480 -0.533223
O13   O     O_R   0.927720 0.590370 0.921470 -0.524970
O14   O     O_R   0.072280 0.090370 0.078530 -0.542516
C53   C     C_R   0.910927 0.421571 0.894154 0.812417
C54   C     C_R   0.089353 0.921882 0.105415 0.736636
O15   O     O_R   0.943270 0.586180 0.090640 -0.523091
O16   O     O_R   0.056730 0.086180 0.909360 -0.530328
O17   O     O_R   0.064850 0.759970 0.079840 -0.522025
O18   O     O_R   0.935150 0.259970 0.920160 -0.532218
C55   C     C_R   0.926008 0.415167 0.114667 0.753943
C56   C     C_R   0.073866 0.915420 0.885133 0.722030
O19   O     O_3   0.039850 0.428050 0.996240 -0.365104
O20   O     O_3   0.960150 0.928050 0.003760 -0.356229
V3    V     V_3+5 0.992610 0.701540 0.000700 1.584096
V4    V     V_3+5 0.007390 0.201540 0.999300 1.553796
O21   O     O_3   0.220199 0.029461 0.075446 -0.623958
H1    H     H_    0.182377 0.032187 0.036969 0.291613
O22   O     O_3   0.787881 0.532208 0.923956 -0.625982
H2    H     H_    0.744147 0.499162 0.938132 0.317418
O23   O     O_3   0.290687 0.778207 0.613252 -0.589000
H3    H     H_    0.321187 0.749154 0.571047 0.316832
O24   O     O_3   0.709479 0.286401 0.388909 -0.588223
H4    H     H_    0.679000 0.263371 0.431848 0.314780
O25   O     O_3   0.017651 0.906278 0.720216 -0.600746
H5    H     H_    0.998709 0.843952 0.767312 0.307171
O26   O     O_3   0.982803 0.418546 0.278937 -0.601342
H6    H     H_    0.001874 0.353555 0.232625 0.306673
O27   O     O_3   0.215497 0.068905 0.613370 -0.580650
H7    H     H_    0.253985 0.132924 0.637848 0.308787
O28   O     O_3   0.784757 0.577207 0.385082 -0.581818
H8    H     H_    0.746253 0.639197 0.359901 0.309167
I1    I     I_    0.071597 0.023880 0.551185 -0.056318
I2    I     I_    0.928821 0.540615 0.447323 -0.056202
I3    I     I_    0.178894 0.597094 0.965640 -0.308614
I4    I     I_    0.823283 0.085095 0.037624 -0.278985
I5    I     I_    0.032659 0.856192 0.283166 -0.263682
I6    I     I_    0.967587 0.339829 0.715893 -0.270374
I7    I     I_    0.332944 0.252352 0.122881 -0.192701
I8    I     I_    0.677651 0.789806 0.860673 -0.265105
O29   O     O_3   0.167536 0.740889 0.382830 -0.588962
H9    H     H_    0.125390 0.678067 0.381199 0.345636
O30   O     O_3   0.831364 0.217675 0.619166 -0.590894
H10   H     H_    0.873451 0.155084 0.621435 0.347163
O31   O     O_3   0.430276 0.033008 0.249626 -0.615782
H11   H     H_    0.435928 0.050026 0.190347 0.348743
O32   O     O_3   0.573525 0.555028 0.746888 -0.615403
H12   H     H_    0.569314 0.584663 0.805563 0.348168
O33   O     O_3   0.289839 0.670987 0.406984 -0.608951
H13   H     H_    0.262916 0.563540 0.387145 0.339031
O34   O     O_3   0.707907 0.155972 0.596852 -0.608281
H14   H     H_    0.733973 0.048873 0.618504 0.340477
I9    I     I_    0.518024 0.006155 0.771116 -0.238033
I10   I     I_    0.482253 0.496922 0.226667 -0.236619
O35   O     O_3   0.316897 0.780421 0.970510 -0.590931
H15   H     H_    0.288928 0.786332 0.017146 0.352305
O36   O     O_3   0.681732 0.247181 0.035171 -0.599270
H16   H     H_    0.709005 0.233720 0.988228 0.322900
I11   I     I_    0.432922 0.009167 0.951227 -0.112109
I12   I     I_    0.571011 0.506290 0.047755 -0.135973

loop_
_geom_bond_atom_site_label_1
_geom_bond_atom_site_label_2
_ccdc_geom_bond_type
O14   V4    S    
C29   O25   S    
O24   H4    S    
O27   H7    S    
C28   C48   A    
C15   C17   A    
C38   C52   A    
O28   H8    S    
O1    C3    A    
O16   C56   A    
C33   O27   S    
C2    O7    A    
O15   V3    S    
O21   H1    S    
C10   I8    S    
C35   C37   A    
C43   O35   S    
O23   H3    S    
O5    C3    A    
O12   V3    S    
C22   I6    S    
C5    C21   A    
C21   I5    S    
O33   H13   S    
O20   V4    S    
C51   C56   S    
O34   H14   S    
C45   I3    S    
C28   C50   A    
C30   O26   S    
C33   C35   A    
C14   O34   S    
C40   C48   A    
C25   I11   S    
C32   I2    S    
C34   O28   S    
C8    C12   A    
C40   C42   A    
O30   H10   S    
C18   C20   A    
C25   C41   A    
C6    C53   S    
C36   C38   A    
O12   C56   A    
C5    C54   S    
O6    V2    S    
O11   V4    S    
O18   V4    S    
C24   O30   S    
C29   C31   A    
C12   O32   S    
C30   C32   A    
C11   O31   S    
C48   O24   S    
C32   C34   A    
C34   C36   A    
C37   C51   A    
C41   C43   A    
C27   C49   A    
C42   C44   A    
C3    C8    S    
C49   I9    S    
C38   C46   A    
O13   V3    S    
O4    C2    A    
O26   H6    S    
O20   V3    S    
C35   C39   A    
O5    V1    S    
C15   C23   A    
C9    C17   A    
O16   V4    S    
C39   C41   A    
O4    V2    S    
C7    C11   A    
C47   O23   S    
C23   O29   S    
C13   O33   S    
C6    C22   A    
O22   H2    S    
C26   C42   A    
O6    C4    A    
C27   C47   A    
C54   O17   A    
O17   V3    S    
O19   V3    S    
C46   I4    S    
C53   O18   A    
O1    V2    S    
O2    V1    S    
C31   C33   A    
O36   H16   S    
C9    C11   A    
C5    C19   A    
C10   C12   A    
C1    C28   S    
C6    C20   A    
C29   C51   A    
C30   C52   A    
O3    V1    S    
O2    C4    A    
O19   V4    S    
C20   O22   S    
C10   C18   A    
O32   H12   S    
O10   V1    S    
C31   I1    S    
O3    C1    A    
O11   C55   A    
C37   C45   A    
C25   C49   A    
O35   H15   S    
C13   C15   A    
O29   H9    S    
C14   C16   A    
C19   O21   S    
C44   O36   S    
C43   C45   A    
O7    V1    S    
C1    O8    A    
C17   C19   A    
O8    V2    S    
O31   H11   S    
O15   C55   A    
C8    C14   A    
C4    C7    S    
C16   C18   A    
C21   C23   A    
C52   C55   S    
C44   C46   A    
C22   C24   A    
C7    C13   A    
C50   I10   S    
C9    I7    S    
C36   C40   A    
C39   C47   A    
C16   C24   A    
O14   C54   A    
O9    V2    S    
C2    C27   S    
O13   C53   A    
O25   H5    S    
C26   I12   S    
C26   C50   A    
