data_mof_unit_47774.cif
_audit_creation_date              2013-03-05T15:43:32-0500
_audit_creation_method            fapswitch 2.2
_symmetry_space_group_name_H-M    P1
_symmetry_Int_Tables_number       1
_space_group_crystal_system       triclinic
_cell_length_a                    10.046878
_cell_length_b                    10.656727
_cell_length_c                    13.046937
_cell_angle_alpha                 91.505759
_cell_angle_beta                  73.876238
_cell_angle_gamma                 92.178921
_cell_volume                      1340.7960742

loop_
_atom_site_label
_atom_site_type_symbol
_atom_site_description
_atom_site_fract_x
_atom_site_fract_y
_atom_site_fract_z
_atom_type_partial_charge
O1    O     O_R   0.386950 0.680940 0.500020 -0.549077
O2    O     O_R   0.613110 0.680900 0.499980 -0.644594
C1    C     C_R   0.502328 0.737551 0.501274 0.856889
O3    O     O_R   0.330780 0.500000 0.653640 -0.553596
O4    O     O_R   0.556930 0.499960 0.653610 -0.608996
C2    C     C_R   0.431167 0.535164 0.696190 0.998211
Zn1   Zn    Zn3+2 0.349000 0.500030 0.500020 1.023627
Zn2   Zn    Zn3+2 0.651000 0.499970 0.499980 0.933323
O5    O     O_R   0.386890 0.319100 0.500020 -0.571781
O6    O     O_R   0.613050 0.319060 0.499980 -0.650185
O7    O     O_R   0.443070 0.500040 0.346390 -0.637526
O8    O     O_R   0.669220 0.500000 0.346360 -0.617174
C3    C     C_R   0.501647 0.262970 0.488989 0.883116
C4    C     C_R   0.573499 0.497547 0.296335 0.879634
C5    C     C_R   0.801929 0.514946 0.017564 0.448242
H1    H     H_    0.829601 0.477079 0.169254 0.202973
C6    C     C_R   0.614847 0.505355 0.180273 -0.184089
C7    C     C_R   0.277927 0.656933 0.852240 0.407472
C8    C     C_R   0.251746 0.700529 0.958723 0.151171
C9    C     C_R   0.347050 0.676851 0.017303 0.294756
C10   C     C_R   0.472999 0.617395 0.965759 -0.019195
C11   C     C_R   0.510457 0.609591 0.854941 -0.106458
C12   C     C_R   0.567271 0.572386 0.018455 0.004010
C13   C     C_R   0.708531 0.553241 0.960890 -0.063774
C14   C     C_R   0.750106 0.573983 0.849854 0.165137
C15   C     C_R   0.652989 0.618403 0.800773 0.202145
C16   C     C_R   0.518599 0.527310 0.122637 0.260825
C17   C     C_R   0.755165 0.498845 0.126603 -0.326093
C18   C     C_R   0.404421 0.600286 0.802240 -0.264419
C19   C     C_2   0.619804 0.069282 0.452833 -0.251540
C20   C     C_2   0.509765 0.134953 0.451486 0.271249
H2    H     H_    0.707338 0.110789 0.476667 0.140620
C21   C     C_2   0.613979 0.934331 0.438814 0.165476
C22   C     C_2   0.509717 0.870385 0.507823 0.231646
C23   C     C_2   0.081449 0.403964 0.469449 0.234294
N1    N     N_2   0.148270 0.498670 0.498870 -0.209960
H3    H     H_    0.089780 0.564260 0.549257 0.196020
C24   C     C_2   0.924981 0.400400 0.497567 -0.082628
N2    N     N_2   0.852610 0.498640 0.498840 -0.064836
H4    H     H_    0.870291 0.310353 0.513262 0.141025
Cl1   Cl    Cl    0.377451 0.071853 0.397222 -0.562444
N3    N     N_2   0.713399 0.872476 0.353371 -0.305092
H5    H     H_    0.674654 0.797245 0.317962 0.230193
C25   C     C_3   0.815965 0.948771 0.278548 -0.722638
H6    H     H_    0.887663 0.886917 0.220554 0.235128
H7    H     H_    0.878182 0.007125 0.321113 0.243721
H8    H     H_    0.764588 0.009756 0.234218 0.255586
Cl2   Cl    Cl    0.391995 0.938427 0.621294 -0.577469
N4    N     N_2   0.157325 0.302264 0.410432 -0.243015
H9    H     H_    0.255482 0.327598 0.365354 0.276342
C26   C     C_3   0.085447 0.213753 0.356544 -0.746390
H10   H     H_    0.160229 0.148116 0.305768 0.286386
H11   H     H_    0.034870 0.263862 0.304540 0.211788
H12   H     H_    0.007354 0.156971 0.415807 0.244182
N5    N     N_2   0.925329 0.604345 0.450581 -0.260658
H13   H     H_    0.878059 0.686711 0.480482 0.251773
C27   C     C_3   0.965000 0.601317 0.334823 -0.622168
H14   H     H_    0.063632 0.656188 0.304879 0.254162
H15   H     H_    0.884798 0.644992 0.304877 0.236437
H16   H     H_    0.980930 0.503972 0.302289 0.223234
N6    N     N_2   0.879252 0.530346 0.785761 -0.228176
H17   H     H_    0.932080 0.586290 0.723831 0.248490
C28   C     C_3   0.874937 0.398626 0.756317 -0.661222
H18   H     H_    0.979346 0.370467 0.708240 0.252354
H19   H     H_    0.798944 0.380833 0.709593 0.212546
H20   H     H_    0.843730 0.339771 0.828627 0.260385
Cl3   Cl    Cl    0.980271 0.490437 0.962576 -0.604260
N7    N     N_2   0.378851 0.479300 0.156948 -0.289160
H21   H     H_    0.315351 0.511632 0.228007 0.284202
C29   C     C_3   0.360885 0.347305 0.134103 -0.764257
H22   H     H_    0.248682 0.322313 0.152021 0.250699
H23   H     H_    0.408337 0.289620 0.183497 0.249605
H24   H     H_    0.409559 0.326305 0.048229 0.257253
Cl4   Cl    Cl    0.161870 0.692348 0.778239 -0.535568
Cl5   Cl    Cl    0.324423 0.751570 0.143721 -0.656540
N8    N     N_2   0.127989 0.765549 0.006811 -0.241566
H25   H     H_    0.081856 0.743095 0.085390 0.259097
C30   C     C_3   0.138911 0.899585 0.989673 -0.630760
H26   H     H_    0.035578 0.940772 0.022773 0.224285
H27   H     H_    0.174996 0.919941 0.903104 0.284374
H28   H     H_    0.212411 0.944634 0.030331 0.249799
N9    N     N_2   0.697160 0.688217 0.704721 -0.275313
H29   H     H_    0.793209 0.668962 0.655940 0.217486
C31   C     C_3   0.677073 0.821945 0.719220 -0.711822
H30   H     H_    0.710245 0.868250 0.640524 0.239703
H31   H     H_    0.740195 0.862581 0.770459 0.245057
H32   H     H_    0.566027 0.841239 0.756375 0.268310

loop_
_geom_bond_atom_site_label_1
_geom_bond_atom_site_label_2
_geom_bond_distance
_ccdc_geom_bond_type
H1    C17   1.083452 S    
C24   H4    1.082784 S    
N5    H13   1.029069 S    
C28   H19   1.109924 S    
C11   C18   1.418717 A    
Zn1   N1    2.020427 S    
C8    C9    1.414068 A    
C31   H32   1.110760 S    
C5    C17   1.381851 A    
Zn1   O7    1.964350 S    
C21   N3    1.438021 S    
N1    H3    1.028864 S    
C31   H31   1.111756 S    
C24   N2    1.294318 D    
O7    C4    1.292584 A    
C30   H27   1.110692 S    
C27   H15   1.109733 S    
C7    C8    1.409785 A    
N6    C28   1.447805 S    
O5    C3    1.289790 A    
C16   N7    1.428904 S    
C31   H30   1.110330 S    
N2    N5    1.385037 S    
C23   N1    1.299190 D    
N7    H21   1.027946 S    
N4    C26   1.449434 S    
C23   N4    1.428828 S    
C12   C13   1.428927 A    
C29   H22   1.109252 S    
Zn2   N2    2.022057 S    
C12   C16   1.401682 A    
C25   H8    1.111041 S    
C28   H20   1.110663 S    
C15   N9    1.426855 S    
C10   C11   1.390266 A    
C4    C6    1.458437 S    
N3    C25   1.447484 S    
O3    Zn1   1.961341 S    
C25   H7    1.109484 S    
C26   H10   1.109869 S    
C6    C16   1.409114 A    
C23   C24   1.511007 S    
C13   C14   1.412693 A    
O3    C2    1.318015 A    
C30   H26   1.110229 S    
C27   H16   1.110720 S    
C1    C22   1.416276 S    
C14   C15   1.408645 A    
C9    Cl5   1.772738 S    
C26   H11   1.111254 S    
C7    Cl4   1.764115 S    
C19   C20   1.335141 D    
Zn2   O8    1.961341 S    
C5    Cl3   1.762139 S    
C29   H24   1.111450 S    
C21   C22   1.351456 D    
C7    C18   1.407924 A    
C14   N6    1.421922 S    
N8    H25   1.031349 S    
N7    C29   1.445189 S    
C5    C13   1.422735 A    
O8    C4    1.302825 A    
N4    H9    1.028239 S    
N9    C31   1.447035 S    
C10   C12   1.418941 A    
C22   Cl2   1.775566 S    
N3    H5    1.031691 S    
C25   H6    1.110436 S    
Zn1   O5    1.979491 S    
C8    N8    1.424468 S    
C20   Cl1   1.774906 S    
C19   C21   1.445972 S    
O1    Zn1   1.950977 S    
C6    C17   1.392532 A    
C3    C20   1.434730 S    
O2    Zn2   1.979489 S    
N8    C30   1.446913 S    
O6    C3    1.290093 A    
O4    Zn2   1.964350 S    
C26   H12   1.109554 S    
N5    C27   1.450842 S    
O2    C1    1.282055 A    
C19   H2    1.086676 S    
C30   H28   1.111031 S    
C27   H14   1.108801 S    
O4    C2    1.296562 A    
N6    H17   1.026185 S    
C28   H18   1.110159 S    
C2    C18   1.491792 S    
C9    C10   1.421566 A    
Zn2   O6    1.950977 S    
N9    H29   1.022470 S    
C11   C15   1.410695 A    
C29   H23   1.110963 S    
O1    C1    1.290266 A    
