data_mof_unit_9856.cif
_audit_creation_date              2013-03-05T15:51:06-0500
_audit_creation_method            fapswitch 2.2
_symmetry_space_group_name_H-M    P1
_symmetry_Int_Tables_number       1
_space_group_crystal_system       triclinic
_cell_length_a                    10.543097
_cell_length_b                    12.095986
_cell_length_c                    12.85419
_cell_angle_alpha                 93.726032
_cell_angle_beta                  91.489044
_cell_angle_gamma                 87.272362
_cell_volume                      1633.53449244

loop_
_atom_site_label
_atom_site_type_symbol
_atom_site_description
_atom_site_fract_x
_atom_site_fract_y
_atom_site_fract_z
_atom_type_partial_charge
O1    O     O_R   0.506270 0.421700 0.658830 -0.595711
O2    O     O_R   0.493730 0.578300 0.341170 -0.589584
O3    O     O_R   0.491200 0.609310 0.646410 -0.560552
O4    O     O_R   0.508800 0.390690 0.353590 -0.562560
C1    C     C_R   0.498253 0.522161 0.699807 1.030886
C2    C     C_R   0.501773 0.477828 0.300303 1.037786
O5    O     O_R   0.693580 0.406210 0.506230 -0.533196
O6    O     O_R   0.306420 0.593790 0.493770 -0.535943
O7    O     O_R   0.678510 0.593830 0.493810 -0.599674
O8    O     O_R   0.321490 0.406170 0.506190 -0.599985
C3    C     C_R   0.741629 0.500775 0.498441 1.035582
C4    C     C_R   0.258389 0.499256 0.501911 1.034228
Zn1   Zn    Zn3+2 0.510060 0.374730 0.508290 1.137699
Zn2   Zn    Zn3+2 0.489940 0.625270 0.491710 1.138558
C5    C     C_3   0.959196 0.501382 0.597992 0.083634
C6    C     C_3   0.040778 0.498586 0.402890 0.078482
C7    C     C_3   0.038775 0.590418 0.555114 0.330648
C8    C     C_3   0.961270 0.409562 0.445820 0.325301
C9    C     C_3   0.124636 0.497581 0.502575 -0.351270
C10   C     C_3   0.875393 0.502421 0.498273 -0.353160
C11   C     C_3   0.044347 0.408717 0.545667 0.164782
C12   C     C_3   0.955697 0.591295 0.455231 0.160213
C13   C     C_R   0.512351 0.464056 0.189618 -0.185151
C14   C     C_R   0.488356 0.535187 0.810723 -0.178222
C15   C     C_R   0.355136 0.582974 0.957680 0.402841
C16   C     C_R   0.641794 0.409412 0.041375 0.422165
C17   C     C_R   0.383565 0.595024 0.853136 0.267253
C18   C     C_R   0.620789 0.408627 0.148623 0.272836
C19   C     C_R   0.571414 0.470815 0.870457 0.421837
C20   C     C_R   0.426802 0.524962 0.129061 0.429918
C21   C     C_R   0.554237 0.469184 0.977873 -0.165095
C22   C     C_R   0.445046 0.526918 0.021854 -0.171391
N1    N     N_R   0.523490 0.207800 0.519350 -0.183146
N2    N     N_R   0.476510 0.792200 0.480650 -0.183669
C23   C     C_R   0.376775 0.949928 0.402182 0.167547
C24   C     C_R   0.623923 0.049908 0.597042 0.168427
C25   C     C_R   0.390019 0.833881 0.412094 0.487244
C26   C     C_R   0.611050 0.165918 0.586927 0.484647
C27   C     C_R   0.549766 0.859403 0.544565 0.372929
C28   C     C_R   0.449695 0.140702 0.455766 0.374179
C29   C     C_R   0.544154 0.976993 0.536208 -0.223519
C30   C     C_R   0.455839 0.023002 0.463594 -0.223119
O9    O     O_3   0.084049 0.683130 0.612591 -0.622647
H1    H     H_    0.007558 0.724557 0.640283 0.407916
O10   O     O_3   0.916160 0.316637 0.388600 -0.627382
H2    H     H_    0.992657 0.275455 0.360636 0.408598
N3    N     N_R   0.910538 0.505495 0.703359 0.261142
O11   O     O_R   0.939952 0.426098 0.764354 -0.227484
O12   O     O_R   0.837208 0.589008 0.736888 -0.298984
N4    N     N_R   0.089229 0.494273 0.297458 0.259263
O13   O     O_R   0.059322 0.573354 0.236227 -0.228705
O14   O     O_R   0.162264 0.410568 0.263904 -0.297340
N5    N     N_R   0.095029 0.310626 0.595579 0.279679
O15   O     O_R   0.059680 0.212601 0.562853 -0.245746
O16   O     O_R   0.172869 0.321149 0.675394 -0.318564
N6    N     N_R   0.904961 0.689417 0.405395 0.279848
O17   O     O_R   0.939461 0.787512 0.438741 -0.245528
O18   O     O_R   0.827440 0.678922 0.325367 -0.317127
O19   O     O_3   0.330021 0.586774 0.178388 -0.606899
H3    H     H_    0.337236 0.664378 0.159380 0.390721
O20   O     O_3   0.667663 0.408866 0.820928 -0.603281
H4    H     H_    0.651492 0.330269 0.831461 0.385451
O21   O     O_3   0.708877 0.362127 0.216655 -0.688952
H5    H     H_    0.795007 0.366111 0.188576 0.385537
O22   O     O_3   0.306191 0.658102 0.789119 -0.684571
H6    H     H_    0.263328 0.718821 0.832426 0.381480
O23   O     O_3   0.237604 0.618091 0.996095 -0.663179
H7    H     H_    0.173581 0.616464 0.938267 0.384433
O24   O     O_3   0.748673 0.355609 0.998791 -0.662462
H8    H     H_    0.767795 0.286953 0.035466 0.369439
N7    N     N_R   0.372889 0.190830 0.376992 0.247666
O25   O     O_R   0.256021 0.223531 0.395697 -0.303584
O26   O     O_R   0.414814 0.191524 0.282752 -0.288482
N8    N     N_R   0.625046 0.809615 0.624439 0.248103
O27   O     O_R   0.582080 0.810765 0.718484 -0.290754
O28   O     O_R   0.741576 0.775051 0.606765 -0.302415
O29   O     O_3   0.687360 0.240151 0.641697 -0.673050
H9    H     H_    0.753433 0.200899 0.683060 0.384778
O30   O     O_3   0.315211 0.759377 0.356033 -0.669836
H10   H     H_    0.250845 0.798371 0.312837 0.383618
N9    N     N_R   0.280474 0.991451 0.332491 0.229284
O31   O     O_R   0.164998 0.008660 0.365160 -0.249210
O32   O     O_R   0.300162 0.984429 0.232721 -0.290588
N10   N     N_R   0.720977 0.008165 0.665951 0.229233
O33   O     O_R   0.703312 0.016583 0.766014 -0.294282
O34   O     O_R   0.835534 0.988967 0.631798 -0.249813

loop_
_geom_bond_atom_site_label_1
_geom_bond_atom_site_label_2
_geom_bond_distance
_ccdc_geom_bond_type
C11   N5    1.457987 S    
C28   N7    1.427982 S    
N2    C25   1.354447 A    
C29   C30   1.421604 A    
C15   O23   1.383552 S    
C14   C17   1.394857 A    
C5    N3    1.457737 S    
O7    Zn2   2.006123 S    
N9    O31   1.301157 A    
C23   N9    1.431189 S    
N3    O12   1.300126 A    
O10   H2    0.990645 S    
O5    C3    1.283635 A    
C25   O30   1.381024 S    
N8    O28   1.299656 A    
O1    C1    1.292508 A    
C9    C11   1.538549 S    
C6    N4    1.457605 S    
C8    C11   1.535249 S    
N6    O17   1.300308 A    
C27   N8    1.428042 S    
O4    Zn1   2.009981 S    
C23   C30   1.429862 A    
C14   C19   1.393026 A    
C21   C22   1.427789 A    
N4    O14   1.300155 A    
O20   H4    0.992268 S    
C15   C22   1.417639 A    
C28   C30   1.432044 A    
O19   H3    0.992079 S    
C24   C29   1.429491 A    
O2    C2    1.292151 A    
N9    O32   1.301155 A    
N5    O16   1.300580 A    
C5    C10   1.538182 S    
C19   O20   1.376876 S    
C3    C10   1.411444 S    
N1    C28   1.368535 A    
N8    O27   1.300939 A    
O23   H7    0.990871 S    
C13   C20   1.391756 A    
N10   O33   1.301168 A    
O4    C2    1.292048 A    
N7    O26   1.300920 A    
C12   N6    1.458008 S    
O29   H9    0.987655 S    
N2    C27   1.368306 A    
C6    C12   1.533751 S    
O9    H1    0.990689 S    
C7    O9    1.398666 S    
Zn1   N1    2.031357 S    
C17   O22   1.382830 S    
N3    O11   1.300049 A    
C5    C11   1.533731 S    
O6    C4    1.283883 A    
C20   O19   1.378977 S    
N4    O13   1.300064 A    
C13   C18   1.395247 A    
O7    C3    1.284021 A    
O3    Zn2   2.009983 S    
O8    C4    1.283850 A    
C10   C12   1.538462 S    
O30   H10   0.987570 S    
O1    Zn1   1.981882 S    
C8    O10   1.398515 S    
C5    C7    1.534529 S    
O6    Zn2   1.990858 S    
C23   C25   1.417665 A    
C16   C21   1.419576 A    
N1    C26   1.354404 A    
N10   O34   1.301157 A    
O3    C1    1.292989 A    
O8    Zn1   2.006123 S    
Zn2   N2    2.031357 S    
N5    O15   1.300327 A    
C26   O29   1.380715 S    
C15   C17   1.402675 A    
C16   C18   1.402644 A    
C7    C12   1.535641 S    
C24   C26   1.417432 A    
N7    O25   1.299664 A    
C19   C21   1.398759 A    
C20   C22   1.398234 A    
C1    C14   1.430178 S    
C24   N10   1.431236 S    
C6    C9    1.538131 S    
C2    C13   1.428329 S    
C4    C9    1.411542 S    
C7    C9    1.540461 S    
N6    O18   1.300591 A    
C8    C10   1.540287 S    
O24   H8    0.991242 S    
O2    Zn2   1.981880 S    
O21   H5    0.990290 S    
C18   O21   1.384059 S    
O5    Zn1   1.990856 S    
C27   C29   1.431673 A    
C6    C8    1.534263 S    
O22   H6    0.990907 S    
C16   O24   1.381626 S    
