data_mof_unit_67719.cif
_audit_creation_date              2012-12-10T19:48:33-0500
_audit_creation_method            fapswitch 2.2
_symmetry_space_group_name_H-M    P1
_symmetry_Int_Tables_number       1
_space_group_crystal_system       triclinic
_cell_length_a                    11.16041
_cell_length_b                    10.729797
_cell_length_c                    9.450891
_cell_angle_alpha                 92.588118
_cell_angle_beta                  91.415005
_cell_angle_gamma                 91.517403
_cell_volume                      1129.80336552

loop_
_atom_site_label
_atom_site_type_symbol
_atom_type_description
_atom_site_fract_x
_atom_site_fract_y
_atom_site_fract_z
_atom_type_partial_charge
C1    C     C_R   0.500345 0.259408 0.497657 0.803395
C2    C     C_3   0.458672 0.031291 0.374011 0.049328
C3    C     C_3   0.499222 0.877668 0.504978 -0.031842
C4    C     C_3   0.500782 0.122333 0.495022 -0.031844
C5    C     C_3   0.386774 0.954307 0.478298 -0.220225
C6    C     C_3   0.613230 0.045694 0.521701 -0.220236
C7    C     C_3   0.531723 0.608506 0.056316 -0.077057
C8    C     C_3   0.468275 0.391494 0.943682 -0.077065
C9    C     C_3   0.427222 0.579553 0.952019 0.114348
C10   C     C_3   0.572777 0.420446 0.047980 0.114351
C11   C     C_3   0.605339 0.528616 0.952462 -0.096635
C12   C     C_R   0.499657 0.740592 0.502342 0.803395
C13   C     C_3   0.394661 0.471384 0.047537 -0.096639
C14   C     C_R   0.262030 0.499820 0.497754 0.783628
C15   C     C_R   0.737970 0.500180 0.502246 0.783624
C16   C     C_R   0.138525 0.535306 0.011875 -0.209479
C17   C     C_R   0.861474 0.464684 0.988122 -0.209481
C18   C     C_R   0.131259 0.542802 0.158871 0.032384
C19   C     C_R   0.868739 0.457191 0.841126 0.032386
C20   C     C_R   0.100080 0.435524 0.231865 0.061215
C21   C     C_R   0.899920 0.564469 0.768137 0.061216
C22   C     C_R   0.082929 0.320266 0.155056 -0.241257
C23   C     C_R   0.872234 0.498601 0.506368 -0.082771
C24   C     C_R   0.917075 0.679724 0.844950 -0.241262
C25   C     C_R   0.100687 0.311483 0.007695 0.058254
C26   C     C_R   0.899314 0.688505 0.992308 0.058253
C27   C     C_R   0.129708 0.420136 0.937960 -0.179288
C28   C     C_R   0.870291 0.579851 0.062040 -0.179289
C29   C     C_R   0.929798 0.447895 0.388086 -0.229989
C30   C     C_R   0.070202 0.552101 0.611917 -0.229985
C31   C     C_1   0.361090 0.682490 0.893230 0.261108
C32   C     C_1   0.638908 0.317509 0.106771 0.261112
C33   C     C_1   0.158342 0.660317 0.234047 0.263137
C34   C     C_R   0.127766 0.501398 0.493632 -0.082771
C35   C     C_1   0.841657 0.339678 0.765947 0.263142
C36   C     C_R   0.072489 0.195984 0.919780 0.092210
C37   C     C_R   0.144362 0.163820 0.804080 -0.141329
C38   C     C_R   0.107281 0.068940 0.705266 -0.113537
C39   C     C_R   0.998735 0.004522 0.721122 -0.133846
C40   C     C_R   0.927984 0.033409 0.837275 -0.098883
C41   C     C_R   0.964364 0.128737 0.936317 -0.119048
C42   C     C_R   0.927511 0.804003 0.080221 0.092213
C43   C     C_R   0.855633 0.836175 0.195918 -0.141329
C44   C     C_R   0.892709 0.931062 0.294723 -0.113536
C45   C     C_R   0.944834 0.547376 0.622733 0.020368
C46   C     C_R   0.001259 0.995479 0.278866 -0.133850
C47   C     C_R   0.072017 0.966582 0.162719 -0.098875
C48   C     C_R   0.035639 0.871249 0.063682 -0.119049
C49   C     C_1   0.583650 0.933447 0.766516 0.260701
C50   C     C_1   0.416358 0.066552 0.233478 0.260696
C51   C     C_R   0.055166 0.452621 0.377269 0.020366
C52   C     C_3   0.429579 0.046737 0.601533 -0.202194
C53   C     C_3   0.570426 0.953264 0.398467 -0.202194
C54   C     C_3   0.541333 0.968710 0.625988 0.049332
Cu1   Cu    Cu3+1 0.500030 0.499990 0.643150 0.962683
Cu2   Cu    Cu3+1 0.499970 0.500010 0.356850 0.962684
H1    H     H_    0.139788 0.416173 0.824803 0.155534
H2    H     H_    0.948385 0.760340 0.790991 0.137070
H3    H     H_    0.875836 0.407628 0.300025 0.159679
H4    H     H_    0.124165 0.592365 0.699981 0.159677
H5    H     H_    0.374522 0.086579 0.687349 0.145226
H6    H     H_    0.625481 0.913420 0.312651 0.145224
H7    H     H_    0.293703 0.917114 0.462725 0.166179
H8    H     H_    0.706296 0.082896 0.537273 0.166186
H9    H     H_    0.227121 0.215438 0.787704 0.114518
H10   H     H_    0.161151 0.047307 0.614405 0.122843
H11   H     H_    0.969066 0.933005 0.642671 0.122730
H12   H     H_    0.860212 0.583812 0.175197 0.155536
H13   H     H_    0.843911 0.983391 0.849421 0.157244
H14   H     H_    0.905806 0.152944 0.022294 0.147088
H15   H     H_    0.772872 0.784557 0.212294 0.114520
H16   H     H_    0.838835 0.952700 0.385582 0.122843
H17   H     H_    0.030927 0.067003 0.357309 0.122725
H18   H     H_    0.156098 0.016596 0.150573 0.157239
H19   H     H_    0.094201 0.847037 0.977709 0.147085
H20   H     H_    0.558834 0.700376 0.107736 0.140293
H21   H     H_    0.441158 0.299630 0.892257 0.140298
H22   H     H_    0.680164 0.576190 0.902488 0.170746
H23   H     H_    0.319836 0.423809 0.097511 0.170745
H24   H     H_    0.150620 0.618766 0.954658 0.149098
H25   H     H_    0.849378 0.381223 0.045335 0.149101
H26   H     H_    0.051625 0.239649 0.209019 0.137064
N1    N     N_3   0.500090 0.499970 0.858290 -0.190889
N2    N     N_3   0.499910 0.500030 0.141710 -0.190887
N3    N     N_1   0.310393 0.764537 0.846404 -0.320018
N4    N     N_1   0.689603 0.235462 0.153598 -0.320017
N5    N     N_1   0.182184 0.752645 0.297321 -0.314188
N6    N     N_1   0.817817 0.247352 0.702669 -0.314194
N7    N     N_1   0.616107 0.905217 0.877513 -0.312956
N8    N     N_1   0.383903 0.094779 0.122475 -0.312951
O1    O     O_R   0.500060 0.316850 0.620870 -0.586524
O2    O     O_R   0.499940 0.683150 0.379130 -0.586522
O3    O     O_R   0.500000 0.316860 0.379090 -0.573631
O4    O     O_R   0.500000 0.683140 0.620910 -0.573629
O5    O     O_R   0.319670 0.500010 0.620890 -0.592763
O6    O     O_R   0.680330 0.499990 0.379110 -0.592763
O7    O     O_R   0.319620 0.500010 0.379110 -0.582650
O8    O     O_R   0.680380 0.499990 0.620890 -0.582651

loop_
_geom_bond_atom_site_label_1
_geom_bond_atom_site_label_2
_ccdc_geom_bond_type
Cu1   Cu2   S    
C13   H23   S    
C8    C13   S    
C31   N3    T    
C8    N1    S    
C30   C45   A    
C7    C11   S    
C13   N2    S    
C34   C51   A    
C4    C52   S    
C23   C45   A    
C23   C29   A    
C36   C37   A    
C28   H12   S    
C24   C26   A    
C20   C51   S    
C52   H5    S    
C38   C39   A    
C3    C54   S    
C49   C54   S    
C5    H7    S    
C7    C9    S    
C53   H6    S    
C6    H8    S    
C9    C13   S    
Cu1   O1    S    
C3    C12   S    
C2    C50   S    
C50   N8    T    
C29   H3    S    
C52   C54   S    
C22   C25   A    
C37   H9    S    
C5    C52   S    
C18   C20   A    
C16   C27   A    
C15   C23   S    
C7    N2    S    
C1    O1    A    
C48   H19   S    
C12   O4    A    
C36   C41   A    
Cu2   O7    S    
C6    C54   S    
Cu1   O4    S    
C44   C46   A    
Cu2   N2    S    
C21   C45   S    
Cu2   O3    S    
C40   H13   S    
C30   C34   A    
C24   H2    S    
C38   H10   S    
Cu1   O5    S    
C27   H1    S    
C39   C40   A    
C11   N1    S    
C30   H4    S    
C16   H24   S    
C2    C4    S    
C43   C44   A    
C37   C38   A    
C11   H22   S    
C35   N6    T    
C47   C48   A    
C32   N4    T    
C16   C18   A    
C42   C48   A    
C9    N1    S    
C8    C10   S    
C40   C41   A    
C20   C22   A    
C8    H21   S    
C4    C6    S    
C42   C43   A    
C15   O8    A    
Cu1   N1    S    
C22   H26   S    
C14   O5    A    
C15   O6    A    
C26   C42   S    
C14   O7    A    
C29   C51   A    
Cu2   O6    S    
C46   C47   A    
C43   H15   S    
C19   C21   A    
C17   C28   A    
C39   H11   S    
C12   O2    A    
C47   H18   S    
C49   N7    T    
C3    C5    S    
C2    C53   S    
C14   C34   S    
C7    H20   S    
C25   C27   A    
C26   C28   A    
C1    C4    S    
C33   N5    T    
C19   C35   S    
C3    C53   S    
Cu1   O8    S    
C10   N2    S    
C17   C19   A    
C44   H16   S    
C17   H25   S    
C18   C33   S    
C10   C11   S    
C9    C31   S    
C25   C36   S    
C2    C5    S    
C10   C32   S    
Cu2   O2    S    
C1    O3    A    
C21   C24   A    
C6    C53   S    
C46   H17   S    
C41   H14   S    
