data_mof_unit_15931.cif
_audit_creation_date              2012-12-10T18:43:07-0500
_audit_creation_method            fapswitch 2.2
_symmetry_space_group_name_H-M    P1
_symmetry_Int_Tables_number       1
_space_group_crystal_system       triclinic
_cell_length_a                    18.121397
_cell_length_b                    18.077304
_cell_length_c                    18.062671
_cell_angle_alpha                 119.940935
_cell_angle_beta                  89.992208
_cell_angle_gamma                 59.984217
_cell_volume                      4186.45600701

loop_
_atom_site_label
_atom_site_type_symbol
_atom_type_description
_atom_site_fract_x
_atom_site_fract_y
_atom_site_fract_z
_atom_type_partial_charge
C1    C     C_R   0.891771 0.216858 0.608335 0.576431
C2    C     C_3   0.550838 0.897170 0.948009 0.005709
C3    C     C_3   0.452187 0.034730 0.081959 0.011964
C4    C     C_3   0.547915 0.965202 0.917911 0.010816
C5    C     C_3   0.036118 0.401652 0.472458 0.221329
C6    C     C_3   0.964294 0.598066 0.527693 0.223732
C7    C     C_3   0.084980 0.456107 0.506603 0.003611
C8    C     C_3   0.915608 0.543720 0.493641 0.011095
C9    C     C_3   0.051901 0.499053 0.448343 0.010127
C10   C     C_3   0.948400 0.500786 0.551789 0.009553
C11   C     C_3   0.003708 0.444053 0.414870 0.239053
C12   C     C_R   0.108218 0.783145 0.391663 0.576746
C13   C     C_3   0.996718 0.555790 0.585396 0.236199
C14   C     C_3   0.994591 0.032836 0.447123 0.238827
C15   C     C_3   0.005377 0.967180 0.552867 0.238991
C16   C     C_R   0.608429 0.782967 0.891606 0.580117
C17   C     C_R   0.391584 0.217019 0.108357 0.581274
C18   C     C_3   0.962832 0.965561 0.439353 0.229080
C19   C     C_3   0.037140 0.034453 0.560634 0.228307
C20   C     C_3   0.051798 0.897436 0.449144 0.011512
C21   C     C_3   0.948175 0.102573 0.550843 0.011642
C22   C     C_3   0.084059 0.965379 0.456993 0.005143
C23   C     C_3   0.505321 0.408786 0.459688 0.000374
C24   C     C_3   0.915911 0.034635 0.542991 0.005446
C25   C     C_3   0.982644 0.430409 0.984914 0.209131
C26   C     C_3   0.017351 0.569610 0.015085 0.209406
C27   C     C_3   0.956409 0.527145 0.078854 0.193159
C28   C     C_3   0.043583 0.472876 0.921144 0.193643
C29   C     C_3   0.051981 0.500241 0.051017 0.003805
C30   C     C_3   0.948014 0.499775 0.948983 0.003781
C31   C     C_3   0.077412 0.403587 0.956271 0.192927
C32   C     C_3   0.922582 0.596433 0.043727 0.192803
C33   C     C_3   0.585461 0.438279 0.991675 0.249906
C34   C     C_3   0.494742 0.589662 0.539995 0.016116
C35   C     C_3   0.414536 0.561706 0.008306 0.250009
C36   C     C_3   0.523095 0.403289 0.961117 0.236152
C37   C     C_3   0.476902 0.596697 0.038862 0.236277
C38   C     C_3   0.447931 0.501240 0.051847 0.023255
C39   C     C_3   0.552066 0.498746 0.948134 0.023339
C40   C     C_R   0.608671 0.499770 0.891526 0.554496
C41   C     C_R   0.391329 0.500224 0.108467 0.554485
C42   C     C_3   0.510914 0.536971 0.083426 -0.194104
C43   C     C_3   0.489084 0.463014 0.916554 -0.194057
C44   C     C_R   0.891766 0.499889 0.608558 0.579906
C45   C     C_3   0.446769 0.966946 0.989211 0.233201
C46   C     C_R   0.108240 0.500125 0.391456 0.583218
C47   C     C_R   0.891191 0.500093 0.891800 0.581761
C48   C     C_R   0.108808 0.499910 0.108200 0.581805
C49   C     C_R   0.608655 0.499478 0.608285 0.570169
C50   C     C_R   0.391340 0.500414 0.391713 0.576351
C51   C     C_3   0.585041 0.416740 0.447428 0.232722
C52   C     C_3   0.415217 0.581972 0.552379 0.239163
C53   C     C_3   0.528160 0.506533 0.437104 0.231153
C54   C     C_3   0.471818 0.492330 0.562971 0.226003
C55   C     C_3   0.448030 0.499906 0.449288 0.010442
C56   C     C_3   0.553310 0.033003 0.010667 0.233593
C57   C     C_3   0.551994 0.499185 0.550675 0.008353
C58   C     C_3   0.634395 0.502355 0.360747 -0.061110
C59   C     C_3   0.378772 0.472314 0.627809 -0.087028
C60   C     C_3   0.849483 0.994716 0.374865 -0.084659
C61   C     C_3   0.150468 0.005386 0.625135 -0.080879
C62   C     C_3   0.033263 0.998973 0.305954 -0.081630
C63   C     C_3   0.966660 0.001067 0.694033 -0.081400
C64   C     C_3   0.834859 0.564510 0.168393 -0.076767
C65   C     C_3   0.165104 0.435545 0.831590 -0.080146
C66   C     C_3   0.008389 0.299245 0.998050 -0.094145
C67   C     C_3   0.443868 0.034417 0.959682 0.227102
C68   C     C_3   0.991604 0.700775 0.001948 -0.094380
C69   C     C_3   0.169705 0.234905 0.826900 -0.078923
C70   C     C_3   0.830274 0.765135 0.173079 -0.078886
C71   C     C_3   0.606787 0.230504 0.839415 -0.078228
C72   C     C_3   0.393201 0.769486 0.160553 -0.078070
C73   C     C_3   0.687936 0.340247 0.035113 -0.103054
C74   C     C_3   0.312068 0.659700 0.964834 -0.103125
C75   C     C_3   0.689954 0.262162 0.309092 -0.100418
C76   C     C_3   0.308876 0.722258 0.694990 -0.076514
C77   C     C_3   0.378678 0.002899 0.847061 -0.040520
C78   C     C_3   0.556223 0.965512 0.040169 0.227768
C79   C     C_3   0.621653 0.996804 0.152621 -0.042812
C80   C     C_3   0.305247 0.001612 0.024481 -0.098782
C81   C     C_3   0.694842 0.998381 0.975524 -0.098197
C82   C     C_3   0.150464 0.224228 0.381539 -0.064756
C83   C     C_3   0.853523 0.776334 0.623598 -0.061522
C84   C     C_3   0.973750 0.331566 0.307009 -0.071074
C85   C     C_3   0.038436 0.654389 0.692187 -0.092526
C86   C     C_3   0.449226 0.102788 0.051874 0.005781
H1    H     H_    0.517878 0.566842 0.151701 0.119087
H2    H     H_    0.793180 0.009375 0.417451 0.173674
H3    H     H_    0.844720 0.963747 0.305737 0.110764
H4    H     H_    0.206766 0.990450 0.582270 0.174962
H5    H     H_    0.159011 0.930473 0.599823 0.172608
H6    H     H_    0.155375 0.036537 0.694210 0.113445
H7    H     H_    0.041627 0.924026 0.280055 0.168254
H8    H     H_    0.100400 0.984940 0.293604 0.153899
H9    H     H_    0.999034 0.027520 0.265810 0.118539
H10   H     H_    0.899462 0.015234 0.706334 0.154131
H11   H     H_    0.958447 0.075944 0.719961 0.168277
H12   H     H_    0.482123 0.433144 0.848278 0.118179
H13   H     H_    0.000776 0.972464 0.734186 0.119283
H14   H     H_    0.848111 0.486298 0.134800 0.153397
H15   H     H_    0.792844 0.604760 0.138493 0.153319
H16   H     H_    0.794546 0.611151 0.240566 0.154252
H17   H     H_    0.207133 0.395314 0.861499 0.154396
H18   H     H_    0.151834 0.513764 0.865167 0.152407
H19   H     H_    0.205411 0.388901 0.759415 0.150582
H20   H     H_    0.012535 0.344936 0.065821 0.168458
H21   H     H_    0.077327 0.232824 0.948576 0.146959
H22   H     H_    0.973512 0.265836 0.004521 0.114334
H23   H     H_    0.690177 0.418317 0.313067 0.127872
H24   H     H_    0.922676 0.767215 0.051435 0.146676
H25   H     H_    0.987431 0.655094 0.934190 0.168152
H26   H     H_    0.026495 0.734159 0.995450 0.114088
H27   H     H_    0.196143 0.245058 0.779859 0.164085
H28   H     H_    0.105853 0.242292 0.819246 0.163869
H29   H     H_    0.219786 0.153960 0.806061 0.118672
H30   H     H_    0.894115 0.757782 0.180726 0.164004
H31   H     H_    0.803864 0.754974 0.220130 0.164475
H32   H     H_    0.780164 0.846072 0.193908 0.117495
H33   H     H_    0.669543 0.227649 0.837900 0.166323
H34   H     H_    0.646321 0.535238 0.426599 0.178140
H35   H     H_    0.577330 0.247092 0.791159 0.142286
H36   H     H_    0.625984 0.151774 0.816145 0.167692
H37   H     H_    0.422635 0.752886 0.208812 0.143438
H38   H     H_    0.330435 0.772362 0.162050 0.166119
H39   H     H_    0.374029 0.848210 0.183832 0.167352
H40   H     H_    0.652457 0.302740 0.027858 0.168155
H41   H     H_    0.663896 0.407056 0.106720 0.119125
H42   H     H_    0.760807 0.281326 0.017022 0.125122
H43   H     H_    0.336087 0.592875 0.893241 0.119106
H44   H     H_    0.347571 0.697172 0.972043 0.168485
H45   H     H_    0.636405 0.543135 0.331782 0.147557
H46   H     H_    0.239201 0.718637 0.982929 0.124591
H47   H     H_    0.639334 0.297649 0.281147 0.155083
H48   H     H_    0.689531 0.199001 0.304744 0.150991
H49   H     H_    0.757582 0.225371 0.265225 0.113006
H50   H     H_    0.365883 0.726676 0.713139 0.156715
H51   H     H_    0.294567 0.686432 0.722695 0.131202
H52   H     H_    0.248234 0.803627 0.728755 0.123020
H53   H     H_    0.320233 0.004433 0.868345 0.121948
H54   H     H_    0.441280 0.922027 0.811679 0.170586
H55   H     H_    0.367916 0.022297 0.796946 0.156752
H56   H     H_    0.409337 0.387451 0.589247 0.190797
H57   H     H_    0.559385 0.077834 0.187642 0.173262
H58   H     H_    0.680541 0.994597 0.131334 0.119093
H59   H     H_    0.631770 0.977828 0.203022 0.156281
H60   H     H_    0.280323 0.079061 0.038497 0.152691
H61   H     H_    0.293776 0.009296 0.088973 0.157339
H62   H     H_    0.263935 0.976798 0.988425 0.108901
H63   H     H_    0.706425 0.990791 0.911094 0.157769
H64   H     H_    0.719728 0.920888 0.961383 0.153068
H65   H     H_    0.736108 0.023158 0.011725 0.108702
H66   H     H_    0.203445 0.211506 0.413851 0.193373
H67   H     H_    0.331960 0.506802 0.596787 0.164313
H68   H     H_    0.163019 0.241492 0.333549 0.154004
H69   H     H_    0.156475 0.149722 0.341043 0.141106
H70   H     H_    0.848677 0.761510 0.675622 0.160184
H71   H     H_    0.796024 0.787286 0.597806 0.190382
H72   H     H_    0.847202 0.851037 0.657920 0.146542
H73   H     H_    0.914239 0.371630 0.364701 0.161657
H74   H     H_    0.026166 0.252979 0.289984 0.133803
H75   H     H_    0.951000 0.320256 0.247551 0.119588
H76   H     H_    0.047721 0.671486 0.642992 0.170964
H77   H     H_    0.105212 0.598893 0.690649 0.150933
H78   H     H_    0.337490 0.509386 0.696936 0.113245
H79   H     H_    0.004532 0.728778 0.760747 0.112011
H80   H     H_    0.840799 0.069773 0.400518 0.169776
I1    I     I_    0.218492 0.901733 0.386965 -0.429730
I2    I     I_    0.781440 0.098300 0.612937 -0.433822
I3    I     I_    0.505433 0.271629 0.392912 -0.402814
I4    I     I_    0.488845 0.730080 0.602436 -0.360268
I5    I     I_    0.380821 0.094746 0.214741 -0.373891
I6    I     I_    0.619742 0.904807 0.785134 -0.376698
I7    I     I_    0.220315 0.390124 0.510910 -0.387863
I8    I     I_    0.782248 0.608557 0.484529 -0.361332
O1    O     O_3   0.750010 0.499980 0.749990 -0.499299
O2    O     O_R   0.305750 0.265450 0.132730 -0.523654
O3    O     O_R   0.867280 0.265410 0.571220 -0.489940
O4    O     O_R   0.132720 0.734590 0.428780 -0.489977
O5    O     O_R   0.571230 0.734580 0.867270 -0.491343
O6    O     O_R   0.428770 0.265420 0.132730 -0.490021
O7    O     O_R   0.694200 0.438470 0.867270 -0.499900
O8    O     O_R   0.305800 0.561530 0.132730 -0.499966
O9    O     O_R   0.867340 0.561470 0.694210 -0.497808
O10   O     O_R   0.132660 0.438530 0.305790 -0.498518
O11   O     O_R   0.867310 0.438430 0.867270 -0.501173
O12   O     O_3   0.249990 0.500020 0.250010 -0.499255
O13   O     O_R   0.132690 0.561570 0.132730 -0.501369
O14   O     O_R   0.694200 0.438520 0.571220 -0.499900
O15   O     O_R   0.305800 0.561480 0.428780 -0.499409
O16   O     O_R   0.867340 0.561440 0.867270 -0.507586
O17   O     O_R   0.132660 0.438560 0.132730 -0.507581
O18   O     O_R   0.571190 0.561530 0.694210 -0.522958
O19   O     O_R   0.428810 0.438470 0.305790 -0.523106
O20   O     O_3   0.550434 0.515843 0.368663 -0.550015
O21   O     O_3   0.447423 0.488880 0.634889 -0.558492
O22   O     O_3   0.932912 0.918212 0.369810 -0.549495
O23   O     O_R   0.571190 0.561490 0.867270 -0.523819
O24   O     O_3   0.067026 0.081854 0.630184 -0.551287
O25   O     O_3   0.981012 0.077433 0.398387 -0.526425
O26   O     O_3   0.018943 0.922594 0.601611 -0.526782
O27   O     O_3   0.916598 0.556302 0.164448 -0.561084
O28   O     O_3   0.083378 0.443724 0.835546 -0.562261
O29   O     O_3   0.959414 0.360522 0.966367 -0.548013
O30   O     O_3   0.040581 0.639497 0.033630 -0.547945
O31   O     O_3   0.160309 0.304955 0.916579 -0.559619
O32   O     O_3   0.839682 0.695060 0.083403 -0.559424
O33   O     O_3   0.543142 0.303788 0.927446 -0.547219
O34   O     O_R   0.428810 0.438510 0.132730 -0.524661
O35   O     O_3   0.456857 0.696195 0.072529 -0.547103
O36   O     O_3   0.678164 0.372239 0.976743 -0.537707
O37   O     O_3   0.321834 0.627750 0.023236 -0.537842
O38   O     O_3   0.677676 0.334907 0.398904 -0.535907
O39   O     O_3   0.323629 0.667685 0.601033 -0.531128
O40   O     O_3   0.382410 0.079581 0.922553 -0.532290
O41   O     O_3   0.617734 0.920247 0.077211 -0.531318
O42   O     O_3   0.396962 0.923362 0.970171 -0.533753
O43   O     O_3   0.603097 0.076614 0.029736 -0.533542
O44   O     O_3   0.064299 0.302056 0.448660 -0.539579
O45   O     O_R   0.867310 0.438490 0.571220 -0.511755
O46   O     O_3   0.935865 0.697546 0.550916 -0.538553
O47   O     O_3   0.010992 0.388313 0.322730 -0.529994
O48   O     O_3   0.985288 0.615443 0.678390 -0.535485
O49   O     O_R   0.132690 0.561510 0.428780 -0.511025
O50   O     O_R   0.867280 0.265380 0.694210 -0.517855
O51   O     O_R   0.132720 0.734620 0.305790 -0.518066
O52   O     O_R   0.694250 0.734550 0.867270 -0.523292
Zn1   Zn    Zn3+2 0.618190 0.587870 0.793920 1.002872
Zn2   Zn    Zn3+2 0.381810 0.412130 0.206080 1.004478
Zn3   Zn    Zn3+2 0.793940 0.412090 0.793920 1.017134
Zn4   Zn    Zn3+2 0.206060 0.587910 0.206080 1.017394
Zn5   Zn    Zn3+2 0.793970 0.587840 0.793920 1.016982
Zn6   Zn    Zn3+2 0.206030 0.412160 0.206080 1.018211
Zn7   Zn    Zn3+2 0.793940 0.412130 0.618200 1.023300
Zn8   Zn    Zn3+2 0.206060 0.587870 0.381800 1.025831

loop_
_geom_bond_atom_site_label_1
_geom_bond_atom_site_label_2
_ccdc_geom_bond_type
C25   C31   S    
C7    C13   S    
C12   O4    A    
C64   O27   S    
C1    C21   S    
O1    Zn3   S    
C74   H46   S    
C68   O30   S    
C58   H23   S    
C14   C18   S    
C71   H36   S    
C2    C4    S    
C77   H54   S    
C13   O48   S    
C79   O41   S    
C11   O47   S    
C6    C9    S    
C84   H74   S    
C75   H48   S    
C56   C78   S    
C80   O42   S    
C49   O18   A    
C76   H51   S    
C34   C52   S    
C15   C19   S    
C49   O14   A    
C16   O52   A    
C33   C39   S    
C53   O20   S    
C1    O50   A    
C18   C24   S    
C33   C42   S    
C14   C21   S    
C24   I2    S    
C62   O25   S    
C31   O31   S    
C84   O47   S    
C68   H26   S    
C50   O19   A    
C75   H49   S    
O12   Zn6   S    
C40   O23   A    
C70   H31   S    
C5    C10   S    
C81   H64   S    
O2    Zn6   S    
C33   C36   S    
O1    Zn1   S    
C63   O26   S    
O16   Zn5   S    
C64   H16   S    
C46   O10   A    
C37   C42   S    
C50   O15   A    
C35   O37   S    
C48   O17   A    
C63   H13   S    
C59   H78   S    
O6    Zn2   S    
C19   C21   S    
O13   Zn4   S    
C1    O3    A    
C76   O39   S    
O8    Zn4   S    
C80   H61   S    
C79   H57   S    
C65   O28   S    
C79   H58   S    
C59   H56   S    
O7    Zn3   S    
O17   Zn6   S    
O1    Zn7   S    
C83   H71   S    
C45   C67   S    
C34   C57   S    
C43   H12   S    
C26   C29   S    
C51   C57   S    
C47   O11   A    
C35   C43   S    
C85   O48   S    
C66   H21   S    
C18   C20   S    
C34   I4    S    
C52   C55   S    
C71   O33   S    
C9    C46   S    
C59   H67   S    
C15   O26   S    
C62   H9    S    
C4    C56   S    
C3    C86   S    
C85   H76   S    
C82   H66   S    
C64   H15   S    
C44   O45   A    
C66   H20   S    
C51   O38   S    
C65   H19   S    
C56   O43   S    
C84   H73   S    
C52   C54   S    
C77   O40   S    
C5    O44   S    
C53   C55   S    
C2    C45   S    
C60   H2    S    
C15   C20   S    
C69   H28   S    
O51   Zn4   S    
C75   O38   S    
O1    Zn5   S    
C29   C48   S    
C18   O22   S    
C17   C86   S    
C73   O36   S    
C19   C22   S    
O10   Zn6   S    
C38   C41   S    
C79   H59   S    
C16   O5    A    
C39   C40   S    
O4    Zn8   S    
C26   C32   S    
C6    C8    S    
C83   H70   S    
C59   O21   S    
C60   H3    S    
C10   C44   S    
C63   H10   S    
C58   O20   S    
C60   H80   S    
C46   O49   A    
O18   Zn1   S    
C68   H25   S    
C82   H68   S    
C37   C39   S    
C61   O24   S    
C26   O30   S    
C56   C86   S    
C2    C78   S    
O49   Zn8   S    
C4    C67   S    
C33   O36   S    
C30   C47   S    
C23   C51   S    
C72   O35   S    
C82   O44   S    
C64   H14   S    
C58   H45   S    
C81   O43   S    
C12   C20   S    
C75   H47   S    
C36   C43   S    
C21   C24   S    
O12   Zn2   S    
C68   H24   S    
C17   O2    A    
C23   C55   S    
O15   Zn8   S    
C9    C11   S    
C44   O9    A    
C37   O35   S    
C48   O13   A    
C6    O46   S    
C66   O29   S    
O23   Zn1   S    
C17   O6    A    
C8    C10   S    
C15   C24   S    
C20   C22   S    
C62   H8    S    
C72   H37   S    
C85   H77   S    
C41   O8    A    
C74   H43   S    
C70   O32   S    
C58   H34   S    
C82   H69   S    
C32   O32   S    
C74   H44   S    
O9    Zn5   S    
C2    C16   S    
C61   H4    S    
C60   O22   S    
C23   C54   S    
C5    C7    S    
C40   O7    A    
C25   C30   S    
C7    C9    S    
C69   H29   S    
C67   C86   S    
C54   O21   S    
C4    I6    S    
C35   C37   S    
C27   C32   S    
C27   O27   S    
C19   O24   S    
C69   O31   S    
C71   H35   S    
C28   C31   S    
C23   I3    S    
C77   H53   S    
O19   Zn2   S    
C66   H22   S    
C25   O29   S    
C10   C13   S    
C78   O41   S    
C49   C57   S    
C39   C43   S    
C61   H6    S    
C5    C11   S    
O12   Zn4   S    
C76   H52   S    
C25   C27   S    
C73   H42   S    
O11   Zn3   S    
C14   O25   S    
C74   O37   S    
C26   C28   S    
C50   C55   S    
C71   H33   S    
C72   H39   S    
C28   O28   S    
C14   C22   S    
C47   O16   A    
C36   C38   S    
C73   H40   S    
C85   H79   S    
C28   C30   S    
C29   C31   S    
C73   H41   S    
O50   Zn3   S    
O34   Zn2   S    
C6    C13   S    
C30   C32   S    
C83   O46   S    
C3    I5    S    
C12   O51   A    
C83   H72   S    
C27   C29   S    
C70   H32   S    
C8    C11   S    
C81   H63   S    
C7    I7    S    
C41   O34   A    
C80   H60   S    
C52   O39   S    
C3    C45   S    
C8    I8    S    
C45   O42   S    
O5    Zn1   S    
O3    Zn7   S    
C77   H55   S    
O14   Zn7   S    
C76   H50   S    
C38   C42   S    
C61   H5    S    
C80   H62   S    
C81   H65   S    
C34   C53   S    
C63   H11   S    
C69   H27   S    
C62   H7    S    
C70   H30   S    
O45   Zn7   S    
C65   H17   S    
C35   C38   S    
C67   O40   S    
C42   H1    S    
C65   H18   S    
C51   C53   S    
C3    C78   S    
C36   O33   S    
C72   H38   S    
C84   H75   S    
O52   Zn5   S    
O12   Zn8   S    
C54   C57   S    
C22   I1    S    
