data_mof_unit_23328.cif
_audit_creation_date              2013-03-05T15:53:04-0500
_audit_creation_method            fapswitch 2.2
_symmetry_space_group_name_H-M    P1
_symmetry_Int_Tables_number       1
_space_group_crystal_system       triclinic
_cell_length_a                    6.951368
_cell_length_b                    20.437939
_cell_length_c                    24.437902
_cell_angle_alpha                 89.497902
_cell_angle_beta                  90.42854
_cell_angle_gamma                 89.395875
_cell_volume                      3471.50686064

loop_
_atom_site_label
_atom_site_type_symbol
_atom_site_description
_atom_site_fract_x
_atom_site_fract_y
_atom_site_fract_z
_atom_type_partial_charge
O1    O     O_R   0.507320 0.423560 0.460500 -0.567833
O2    O     O_R   0.170760 0.556250 0.437010 -0.597948
O3    O     O_R   0.004030 0.576440 0.539500 -0.568220
C1    C     C_R   0.338807 0.576374 0.421010 0.999710
O4    O     O_R   0.177370 0.422820 0.454110 -0.599413
O5    O     O_R   0.010680 0.442050 0.556720 -0.584094
C2    C     C_R   0.346500 0.399125 0.443166 1.046941
O6    O     O_R   0.500680 0.557950 0.443280 -0.586010
O7    O     O_3   0.340380 0.506470 0.533650 -0.260120
V1    V     V_3+5 0.064130 0.498800 0.493760 1.226817
O8    O     O_R   0.681160 0.443750 0.562990 -0.597818
C3    C     C_R   0.850944 0.423698 0.578904 1.008263
O9    O     O_R   0.674560 0.577180 0.545890 -0.598575
C4    C     C_R   0.842637 0.600892 0.556817 1.009709
V2    V     V_3+5 0.564560 0.501200 0.506240 1.227730
O10   O     O_3   0.838180 0.493530 0.466350 -0.260576
C5    C     C_R   0.973178 0.838137 0.911596 -0.094196
C6    C     C_R   0.846250 0.660919 0.590088 -0.203967
C7    C     C_R   0.977749 0.719947 0.909768 -0.165246
C8    C     C_R   0.988698 0.778041 0.938861 -0.168563
C9    C     C_R   0.948638 0.839920 0.854426 -0.240131
C10   C     C_R   0.935719 0.781189 0.823670 0.107634
C11   C     C_R   0.950712 0.720931 0.852782 0.179368
C12   C     C_R   0.905315 0.779937 0.765460 0.055431
C13   C     C_R   0.903750 0.718616 0.737164 0.085913
C14   C     C_R   0.904354 0.660801 0.768947 -0.104479
C15   C     C_R   0.931530 0.661886 0.825258 -0.258392
C16   C     C_R   0.865536 0.837521 0.735086 -0.189895
C17   C     C_R   0.818129 0.835160 0.679895 -0.190874
C18   C     C_R   0.822240 0.776153 0.651662 0.141479
C19   C     C_R   0.880843 0.717292 0.678581 -0.012770
C20   C     C_R   0.767006 0.775972 0.596429 -0.151337
C21   C     C_R   0.770740 0.718339 0.566805 -0.221937
C22   C     C_R   0.911758 0.660675 0.645117 0.356795
H1    H     H_    0.932924 0.615887 0.847707 0.141016
H2    H     H_    0.720112 0.718977 0.524747 0.130376
H3    H     H_    0.778343 0.880346 0.658935 0.135399
H4    H     H_    0.988528 0.673935 0.932030 0.116533
H5    H     H_    0.008025 0.776140 0.982886 0.108254
H6    H     H_    0.941806 0.887667 0.835414 0.099580
H7    H     H_    0.870733 0.614023 0.751603 0.188567
H8    H     H_    0.858933 0.885188 0.753429 0.129368
H9    H     H_    0.716502 0.820482 0.576321 0.133574
C23   C     C_3   0.846479 0.307540 0.768845 -0.145433
C24   C     C_3   0.036130 0.273082 0.787404 -0.162945
H10   H     H_    0.138632 0.291828 0.818435 0.118668
H11   H     H_    0.792058 0.355192 0.784150 0.125918
H12   H     H_    0.227305 0.265847 0.707623 0.125280
C25   C     C_1   0.960622 0.121810 0.875261 -0.294217
C26   C     C_1   0.863752 0.378218 0.624749 -0.250801
C27   C     C_3   0.739654 0.241488 0.773158 -0.168405
C28   C     C_3   0.929092 0.207658 0.791102 0.215614
C29   C     C_3   0.788356 0.226985 0.712621 -0.151447
C30   C     C_3   0.895392 0.292408 0.708923 0.214081
C31   C     C_3   0.978006 0.192528 0.731178 -0.146160
C32   C     C_3   0.084830 0.258579 0.726865 -0.147860
C33   C     C_1   0.947323 0.160334 0.837231 -0.035547
C34   C     C_1   0.877115 0.339718 0.662791 -0.014127
H13   H     H_    0.032433 0.144880 0.715867 0.128312
H14   H     H_    0.685858 0.208241 0.681587 0.132119
H15   H     H_    0.597173 0.234224 0.792397 0.121068
C35   C     C_3   0.540257 0.725601 0.214463 -0.158105
C36   C     C_3   0.347539 0.693068 0.230228 -0.142720
H16   H     H_    0.293881 0.646012 0.214058 0.125472
H17   H     H_    0.646394 0.705679 0.185084 0.118090
H18   H     H_    0.103454 0.768848 0.202924 0.120412
C37   C     C_1   0.348810 0.621974 0.374987 -0.258078
C38   C     C_1   0.475437 0.877994 0.124998 -0.292975
C39   C     C_3   0.581138 0.739661 0.275698 -0.152869
C40   C     C_3   0.388659 0.707723 0.290880 0.215934
C41   C     C_3   0.476762 0.806825 0.269716 -0.152131
C42   C     C_3   0.435641 0.792173 0.209062 0.217209
C43   C     C_3   0.284046 0.774294 0.285478 -0.159140
C44   C     C_3   0.243163 0.760233 0.224244 -0.162800
C45   C     C_1   0.364318 0.660460 0.336950 -0.024439
C46   C     C_1   0.459958 0.839466 0.163010 -0.034777
H19   H     H_    0.177909 0.794216 0.314857 0.122695
H20   H     H_    0.530422 0.853879 0.285889 0.125843
H21   H     H_    0.720845 0.731043 0.297019 0.121809
C47   C     C_R   0.466866 0.161721 0.088650 -0.095962
C48   C     C_R   0.352679 0.338778 0.410261 -0.257294
C49   C     C_R   0.441942 0.279695 0.090376 -0.163260
C50   C     C_R   0.460909 0.221842 0.061198 -0.168197
C51   C     C_R   0.455973 0.159744 0.146105 -0.233949
C52   C     C_R   0.434894 0.218214 0.176990 0.105418
C53   C     C_R   0.427311 0.278445 0.147638 0.177178
C54   C     C_R   0.415712 0.219167 0.235525 0.057629
C55   C     C_R   0.399693 0.280319 0.263612 0.117194
C56   C     C_R   0.378829 0.337748 0.231764 -0.108452
C57   C     C_R   0.396982 0.337008 0.175251 -0.257594
C58   C     C_R   0.402807 0.161147 0.266678 -0.203405
C59   C     C_R   0.360305 0.162637 0.322054 -0.085142
C60   C     C_R   0.341785 0.221932 0.350028 -0.048467
C61   C     C_R   0.384346 0.281535 0.322305 -0.033442
C62   C     C_R   0.287132 0.222445 0.405768 0.383749
C63   C     C_R   0.287847 0.281196 0.434449 -0.326266
C64   C     C_R   0.409601 0.338956 0.354894 0.371159
H22   H     H_    0.381473 0.382730 0.152737 0.142046
H23   H     H_    0.240015 0.281818 0.476577 0.171804
H24   H     H_    0.345919 0.116175 0.343083 0.171199
H25   H     H_    0.435509 0.325672 0.067956 0.116259
H26   H     H_    0.468885 0.223908 0.016952 0.108114
H27   H     H_    0.463242 0.112017 0.165119 0.100865
H28   H     H_    0.335253 0.383618 0.249453 0.187664
H29   H     H_    0.415081 0.113257 0.248966 0.128287
O11   O     O_R   0.323550 0.942140 0.056770 -0.588707
O12   O     O_R   0.647080 0.077200 0.045890 -0.590997
O13   O     O_R   0.813610 0.057920 0.943260 -0.589031
C65   C     C_R   0.477749 0.101045 0.056634 0.924559
O14   O     O_R   0.653470 0.943760 0.063000 -0.591321
O15   O     O_R   0.820050 0.923540 0.960490 -0.589584
C66   C     C_R   0.485426 0.923642 0.079002 0.977379
O16   O     O_R   0.317110 0.076520 0.039540 -0.588777
O17   O     O_3   0.483830 0.993580 0.966380 -0.271689
V3    V     V_3+5 0.760140 0.001190 0.006240 1.165767
O18   O     O_R   0.149510 0.922740 0.954070 -0.591545
C67   C     C_R   0.981198 0.898905 0.943441 0.924008
O19   O     O_R   0.143120 0.056170 0.936970 -0.592758
C68   C     C_R   0.973366 0.076287 0.921088 0.979963
V4    V     V_3+5 0.259690 0.998700 0.993700 1.166047
O20   O     O_3   0.986130 0.006420 0.033620 -0.271002
Cl1   Cl    Cl    0.060262 0.593898 0.666095 -0.692101
Cl2   Cl    Cl    0.543289 0.407200 0.332004 -0.687130
N1    N     N_R   0.221399 0.164477 0.433300 0.233988
O21   O     O_R   0.267137 0.154053 0.484395 -0.384984
O22   O     O_R   0.088904 0.128772 0.410914 -0.398831

loop_
_geom_bond_atom_site_label_1
_geom_bond_atom_site_label_2
_geom_bond_distance
_ccdc_geom_bond_type
C62   N1    1.437760 S    
C13   C19   1.439804 A    
C31   C32   1.550719 S    
C60   C61   1.423578 A    
V3    O20   1.707646 S    
C50   H26   1.083573 S    
C54   C58   1.407550 A    
C43   C44   1.550993 S    
C4    C6    1.478059 S    
O2    C1    1.304138 A    
C7    C8    1.391715 A    
C27   H15   1.110362 S    
C1    O6    1.297096 A    
C21   H2    1.083831 S    
O19   V4    1.973025 S    
O17   V3    2.154817 S    
O11   C66   1.297146 A    
C52   C53   1.419589 A    
V4    O20   2.148692 S    
C14   C15   1.388028 A    
C35   C36   1.551513 S    
O13   V3    1.958994 S    
N1    O22   1.301427 A    
C16   C17   1.387398 A    
C31   H13   1.110062 S    
O5    C3    1.296828 A    
C18   C19   1.420451 A    
V2    O10   2.148654 S    
H18   C44   1.110338 S    
C63   H23   1.084372 S    
C5    C8    1.394960 A    
C25   C33   1.215138 T    
O18   C67   1.297445 A    
C38   C66   1.457017 S    
C39   C41   1.551122 S    
C58   H29   1.076512 S    
O19   C68   1.300868 A    
O8    V2    1.973209 S    
C49   H25   1.083928 S    
C62   C63   1.395689 A    
C24   C32   1.550573 S    
C47   C65   1.473645 S    
O1    V2    1.990846 S    
C11   C15   1.393832 A    
O7    V1    2.154877 S    
C23   H11   1.110066 S    
C65   O16   1.296600 A    
C52   C54   1.437961 A    
C60   C62   1.417004 A    
O9    C4    1.296453 A    
O12   C65   1.298742 A    
O13   C68   1.296921 A    
C47   C50   1.394872 A    
C29   H14   1.110115 S    
C30   C32   1.539875 S    
C29   C31   1.550959 S    
C55   C61   1.439496 A    
C27   C28   1.539901 S    
C26   C34   1.215062 T    
C12   C13   1.436782 A    
C42   C44   1.541299 S    
C53   C57   1.394045 A    
C58   C59   1.387835 A    
O4    C2    1.297404 A    
C8    H5    1.083564 S    
C24   C28   1.539352 S    
C15   H1    1.084255 S    
C13   C14   1.408302 A    
C49   C53   1.403841 A    
C5    C9    1.406336 A    
O18   V4    1.993748 S    
C35   C39   1.551009 S    
C27   C29   1.550555 S    
C7    C11   1.403793 A    
C17   C18   1.394782 A    
C7    H4    1.083920 S    
C23   C30   1.539090 S    
O16   V4    1.995444 S    
C36   C40   1.540021 S    
C40   C43   1.540116 S    
C19   C22   1.438020 A    
C35   C42   1.540140 S    
C42   C46   1.488847 S    
C51   C52   1.425822 A    
C6    C22   1.416530 A    
O12   V3    1.995474 S    
O3    C4    1.298653 A    
C23   C27   1.550723 S    
C2    C48   1.478660 S    
O6    V2    1.964027 S    
O9    V2    1.993821 S    
C56   H28   1.077316 S    
C10   C12   1.437078 A    
C39   H21   1.110338 S    
C37   C45   1.218538 T    
O2    V1    1.963827 S    
C23   C24   1.550976 S    
C59   H24   1.081680 S    
C41   C43   1.551476 S    
C30   C34   1.482640 S    
H12   C32   1.110364 S    
C35   H17   1.110090 S    
O11   V4    1.963832 S    
O1    C2    1.298833 A    
C12   C16   1.409705 A    
O5    V1    1.958823 S    
C1    C37   1.456890 S    
C3    C26   1.451086 S    
O8    C3    1.300875 A    
C28   C31   1.539122 S    
C29   C30   1.539323 S    
C36   C44   1.551139 S    
C5    C67   1.472755 S    
C38   C46   1.218590 T    
C61   C64   1.435600 A    
O15   C67   1.296420 A    
C20   C21   1.388094 A    
O7    V2    1.703558 S    
C41   C42   1.540028 S    
C64   Cl2   1.772955 S    
O3    V1    1.991489 S    
V1    O10   1.707736 S    
C47   C51   1.406943 A    
C18   C20   1.400617 A    
C25   C68   1.451265 S    
C9    H6    1.077560 S    
C48   C64   1.412564 A    
C16   H8    1.076633 S    
C59   C60   1.401799 A    
C20   H9    1.084028 S    
C39   C40   1.541283 S    
C6    C21   1.395453 A    
O14   C66   1.304096 A    
C28   C33   1.482742 S    
C36   H16   1.110052 S    
C24   H10   1.110110 S    
O4    V1    1.995485 S    
C55   C56   1.408241 A    
C54   C55   1.434864 A    
C22   Cl1   1.772346 S    
C49   C50   1.391685 A    
C48   C63   1.393006 A    
C17   H3    1.084406 S    
C40   C45   1.488789 S    
C51   H27   1.077317 S    
C43   H19   1.110088 S    
C10   C11   1.419341 A    
O15   V3    1.991519 S    
C56   C57   1.387944 A    
C9    C10   1.425074 A    
O14   V3    1.963861 S    
C57   H22   1.084237 S    
C41   H20   1.110049 S    
O17   V4    1.702252 S    
C14   H7    1.076382 S    
N1    O21   1.301364 A    
