data_mof_unit_49534.cif
_audit_creation_date              2012-12-10T19:24:59-0500
_audit_creation_method            fapswitch 2.2
_symmetry_space_group_name_H-M    P1
_symmetry_Int_Tables_number       1
_space_group_crystal_system       triclinic
_cell_length_a                    15.698726
_cell_length_b                    10.512706
_cell_length_c                    9.792706
_cell_angle_alpha                 89.517295
_cell_angle_beta                  90.381996
_cell_angle_gamma                 90.245155
_cell_volume                      1616.04223759

loop_
_atom_site_label
_atom_site_type_symbol
_atom_type_description
_atom_site_fract_x
_atom_site_fract_y
_atom_site_fract_z
_atom_type_partial_charge
C1    C     C_R   0.501983 0.257936 0.500730 0.867780
C2    C     C_R   0.497989 0.742059 0.499272 0.867343
C3    C     C_3   0.578844 0.953153 0.522523 -0.268220
C4    C     C_3   0.421081 0.046836 0.477496 -0.268882
C5    C     C_3   0.496670 0.876834 0.497685 -0.087275
C6    C     C_3   0.503261 0.123155 0.502328 -0.087166
C7    C     C_3   0.446949 0.958887 0.597441 0.124956
C8    C     C_3   0.552978 0.041095 0.402576 0.125621
C9    C     C_3   0.477857 0.390019 0.049310 -0.084229
C10   C     C_3   0.522143 0.609981 0.950690 -0.085597
C11   C     C_3   0.552608 0.416714 0.952682 -0.087879
C12   C     C_3   0.447392 0.583286 0.047318 -0.086460
C13   C     C_3   0.425180 0.473304 0.950965 -0.049921
C14   C     C_3   0.574820 0.526696 0.049035 -0.051604
C15   C     C_R   0.338181 0.499757 0.499547 0.881127
C16   C     C_R   0.661820 0.500293 0.500450 0.881052
C17   C     C_3   0.971747 0.381457 0.528300 -0.295223
C18   C     C_3   0.028268 0.619283 0.471521 -0.312622
C19   C     C_3   0.027352 0.419115 0.403489 -0.253746
C20   C     C_3   0.972656 0.581628 0.596315 -0.285179
C21   C     C_1   0.249278 0.500368 0.498505 -0.156088
C22   C     C_1   0.750728 0.499972 0.501463 -0.156076
C23   C     C_3   0.028752 0.463781 0.621101 0.474960
C24   C     C_3   0.971256 0.536948 0.378709 0.497057
C25   C     C_3   0.083086 0.500817 0.498380 0.021892
C26   C     C_3   0.916925 0.499928 0.501443 0.020157
C27   C     C_1   0.173958 0.500806 0.497972 0.040866
C28   C     C_1   0.826051 0.499785 0.501927 0.042119
C29   C     C_3   0.528443 0.036721 0.622512 0.107624
C30   C     C_3   0.471484 0.963265 0.377505 0.107696
H1    H     H_    0.051193 0.354188 0.323637 0.201030
H2    H     H_    0.948817 0.646591 0.676137 0.187961
H3    H     H_    0.947053 0.284937 0.553094 0.186039
H4    H     H_    0.052963 0.715813 0.446773 0.171895
H5    H     H_    0.642749 0.910826 0.539813 0.148729
H6    H     H_    0.357174 0.089156 0.460214 0.148622
H7    H     H_    0.597128 0.346604 0.908540 0.123918
H8    H     H_    0.402871 0.653394 0.091459 0.123281
H9    H     H_    0.459018 0.297533 0.095347 0.116395
H10   H     H_    0.540982 0.702466 0.904653 0.116292
H11   H     H_    0.362013 0.450756 0.905385 0.158584
H12   H     H_    0.637988 0.549242 0.094614 0.157896
N1    N     N_3   0.499940 0.500030 0.863290 -0.076219
N2    N     N_3   0.500060 0.499970 0.136710 -0.075961
O1    O     O_R   0.500000 0.313960 0.616610 -0.630654
O2    O     O_R   0.500000 0.686040 0.383390 -0.630794
O3    O     O_R   0.500040 0.313950 0.383350 -0.623057
O4    O     O_R   0.499960 0.686050 0.616650 -0.623094
O5    O     O_R   0.376760 0.499990 0.616610 -0.601685
O6    O     O_R   0.623240 0.500010 0.383390 -0.601195
O7    O     O_R   0.376790 0.499980 0.383350 -0.614581
O8    O     O_R   0.623210 0.500020 0.616650 -0.615583
Zn1   Zn    Zn3+2 0.499980 0.500010 0.655740 0.939980
Zn2   Zn    Zn3+2 0.500020 0.499990 0.344260 0.940645
S1    S     S_3+6 0.931110 0.585968 0.216031 0.031545
O9    O     O_2   0.875586 0.482454 0.158539 -0.285939
O10   O     O_2   0.879450 0.704992 0.230937 -0.309671
O11   O     O_3   0.012657 0.613832 0.109369 -0.482573
H13   H     H_    0.048497 0.678064 0.156173 0.344956
S2    S     S_3+6 0.068834 0.414733 0.783835 0.054186
O12   O     O_2   0.124686 0.300390 0.766478 -0.277985
O13   O     O_2   0.120107 0.520607 0.846254 -0.284986
O14   O     O_3   0.987283 0.376408 0.886869 -0.473778
H14   H     H_    0.949068 0.451106 0.883210 0.379640
C31   C     C_3   0.565542 0.083099 0.757920 -0.393319
C32   C     C_3   0.594812 0.972282 0.849484 -0.374138
C33   C     C_3   0.665308 0.014587 0.946758 -0.876808
H15   H     H_    0.723381 0.040771 0.888548 0.277535
H16   H     H_    0.644269 0.098360 0.005560 0.255589
H17   H     H_    0.681478 0.935369 0.017816 0.262089
H18   H     H_    0.539874 0.936347 0.909640 0.209863
H19   H     H_    0.619613 0.892447 0.787917 0.238472
H20   H     H_    0.620312 0.146598 0.733563 0.210170
H21   H     H_    0.516997 0.139627 0.812547 0.199858
C34   C     C_3   0.434385 0.916874 0.242103 -0.394480
C35   C     C_3   0.405089 0.027677 0.150543 -0.371498
C36   C     C_3   0.334607 0.985331 0.053264 -0.880760
H22   H     H_    0.355671 0.901573 0.994461 0.255749
H23   H     H_    0.276539 0.959108 0.111469 0.273746
H24   H     H_    0.318416 0.064540 0.982207 0.263607
H25   H     H_    0.380267 0.107496 0.212110 0.238788
H26   H     H_    0.460020 0.063646 0.090393 0.209673
H27   H     H_    0.482937 0.860365 0.187469 0.200099
H28   H     H_    0.379628 0.853353 0.266469 0.208841
C37   C     C_3   0.384977 0.911709 0.706265 -0.422331
C38   C     C_3   0.307438 0.844786 0.642694 -0.366392
C39   C     C_3   0.250785 0.785369 0.752140 -0.759709
H29   H     H_    0.286850 0.713032 0.812073 0.264162
H30   H     H_    0.226969 0.859777 0.821905 0.265534
H31   H     H_    0.195305 0.738071 0.702864 0.267003
H32   H     H_    0.269426 0.914510 0.582278 0.225636
H33   H     H_    0.328368 0.768704 0.572815 0.213709
H34   H     H_    0.419051 0.845764 0.776660 0.209727
H35   H     H_    0.363255 0.995421 0.764370 0.208463
C40   C     C_3   0.614966 0.088227 0.293762 -0.423599
C41   C     C_3   0.692528 0.155059 0.357364 -0.368703
C42   C     C_3   0.749294 0.214234 0.247932 -0.751867
H36   H     H_    0.773043 0.139708 0.178252 0.266885
H37   H     H_    0.713343 0.286633 0.187910 0.263607
H38   H     H_    0.804814 0.261393 0.297243 0.267462
H39   H     H_    0.671627 0.231260 0.427118 0.214419
H40   H     H_    0.730448 0.085322 0.417913 0.226738
H41   H     H_    0.636655 0.004496 0.235655 0.208515
H42   H     H_    0.580928 0.154214 0.223368 0.209747

loop_
_geom_bond_atom_site_label_1
_geom_bond_atom_site_label_2
_ccdc_geom_bond_type
C39   H29   S    
C4    H6    S    
C7    C29   S    
C41   H40   S    
C40   C41   S    
S1    O9    D    
C19   H1    S    
C13   H11   S    
C42   H36   S    
C36   H22   S    
C2    O2    A    
C24   S1    S    
C18   C25   S    
C17   C23   S    
S2    O14   S    
C18   C24   S    
C17   C26   S    
C10   H10   S    
C24   C26   S    
C38   H32   S    
C11   C14   S    
C34   H28   S    
C9    H9    S    
C31   H20   S    
S2    O13   D    
C3    C29   S    
C9    C13   S    
C37   H34   S    
N1    Zn1   S    
C32   H19   S    
C11   N1    S    
C11   H7    S    
C15   O7    A    
C14   H12   S    
C15   O5    A    
C32   C33   S    
C21   C27   T    
O1    Zn1   S    
C22   C28   T    
C41   H39   S    
O4    Zn1   S    
C8    C40   S    
C17   H3    S    
C4    C7    S    
C42   H37   S    
C40   H41   S    
C36   H23   S    
C23   S2    S    
C33   H15   S    
C35   C36   S    
C4    C6    S    
C3    C8    S    
C10   C14   S    
C1    O1    A    
C35   H26   S    
C5    C7    S    
C38   C39   S    
C1    O3    A    
C6    C8    S    
C2    O4    A    
O11   H13   S    
C37   C38   S    
C31   H21   S    
C1    C6    S    
S2    O12   D    
C33   H16   S    
C34   C35   S    
C9    C11   S    
C37   H35   S    
C32   H18   S    
C20   C23   S    
C3    H5    S    
C41   C42   S    
O2    Zn2   S    
O6    Zn2   S    
O8    Zn1   S    
C18   H4    S    
C10   C12   S    
O3    Zn2   S    
C29   C31   S    
S1    O10   D    
C39   H31   S    
C2    C5    S    
C13   N1    S    
C42   H38   S    
C40   H42   S    
C14   N2    S    
C5    C30   S    
C20   H2    S    
C36   H24   S    
C9    N2    S    
C16   C22   S    
C10   N1    S    
C16   O8    A    
C16   O6    A    
C3    C5    S    
C35   H25   S    
C25   C27   S    
C26   C28   S    
O7    Zn2   S    
C8    C30   S    
C33   H17   S    
C39   H30   S    
C19   C24   S    
C12   N2    S    
C38   H33   S    
C30   C34   S    
C34   H27   S    
C7    C37   S    
C20   C26   S    
O5    Zn1   S    
C17   C19   S    
C18   C20   S    
C23   C25   S    
C12   H8    S    
C19   C25   S    
O14   H14   S    
N2    Zn2   S    
C15   C21   S    
C6    C29   S    
C12   C13   S    
C31   C32   S    
S1    O11   S    
C4    C30   S    
