data_mof_unit_32149.cif
_audit_creation_date              2012-12-11T15:47:01-0500
_audit_creation_method            fapswitch 2.2
_symmetry_space_group_name_H-M    P1
_symmetry_Int_Tables_number       1
_space_group_crystal_system       triclinic
_cell_length_a                    20.17543
_cell_length_b                    7.253643
_cell_length_c                    13.586324
_cell_angle_alpha                 90.000034
_cell_angle_beta                  102.986759
_cell_angle_gamma                 89.999984
_cell_volume                      1937.4389916

loop_
_atom_site_label
_atom_site_type_symbol
_atom_type_description
_atom_site_fract_x
_atom_site_fract_y
_atom_site_fract_z
_atom_type_partial_charge
O1    O     O_R   0.449560 0.506810 0.599700 -0.541347
O2    O     O_R   0.550440 0.006810 0.400300 -0.541348
O3    O     O_R   0.587960 0.180060 0.595760 -0.509762
O4    O     O_R   0.412040 0.680060 0.404240 -0.509761
C1    C     C_R   0.615198 0.344623 0.617250 0.780344
C2    C     C_R   0.384802 0.844623 0.382750 0.780343
O5    O     O_R   0.452380 0.177430 0.611700 -0.526491
O6    O     O_R   0.547620 0.677430 0.388300 -0.526491
O7    O     O_R   0.413900 0.001890 0.416350 -0.523841
O8    O     O_R   0.586100 0.501890 0.583650 -0.523841
C3    C     C_R   0.437217 0.345642 0.638470 0.783383
C4    C     C_R   0.562783 0.845642 0.361530 0.783384
O9    O     O_3   0.487530 0.337490 0.435890 -0.368462
O10   O     O_3   0.512470 0.837490 0.564110 -0.368463
V1    V     V_3+5 0.502310 0.064660 0.511890 1.650178
V2    V     V_3+5 0.497690 0.564660 0.488110 1.650179
C5    C     C_R   0.603043 0.823012 0.103864 0.318290
C6    C     C_R   0.396956 0.323014 0.896136 0.318290
H1    H     H_    0.687774 0.802085 0.978378 0.169537
H2    H     H_    0.312226 0.302090 0.021622 0.169538
C7    C     C_R   0.599560 0.851843 0.280370 -0.159048
C8    C     C_R   0.400440 0.351843 0.719630 -0.159048
C9    C     C_R   0.926318 0.879193 0.311659 -0.201511
C10   C     C_R   0.073682 0.379190 0.688341 -0.201510
C11   C     C_R   0.890016 0.883376 0.386693 -0.107986
C12   C     C_R   0.109984 0.383371 0.613307 -0.107987
C13   C     C_R   0.819457 0.874292 0.362006 -0.122210
C14   C     C_R   0.180543 0.374288 0.637994 -0.122211
C15   C     C_R   0.782578 0.859845 0.260107 0.050675
C16   C     C_R   0.217422 0.359843 0.739892 0.050675
C17   C     C_R   0.820118 0.849535 0.182587 0.039410
C18   C     C_R   0.179882 0.349535 0.817413 0.039410
C19   C     C_R   0.709795 0.853981 0.233619 0.031895
C20   C     C_R   0.290205 0.353981 0.766381 0.031895
C21   C     C_R   0.675231 0.832756 0.130847 -0.025655
C22   C     C_R   0.324769 0.332757 0.869153 -0.025655
C23   C     C_R   0.713146 0.819603 0.056700 -0.194897
C24   C     C_R   0.286854 0.319606 0.943300 -0.194895
C25   C     C_R   0.784319 0.827093 0.080494 0.284947
C26   C     C_R   0.215681 0.327095 0.919505 0.284947
C27   C     C_R   0.670086 0.867862 0.306584 -0.231365
C28   C     C_R   0.329914 0.367862 0.693415 -0.231367
C29   C     C_R   0.565555 0.829233 0.179332 0.249572
C30   C     C_R   0.434445 0.329234 0.820668 0.249572
C31   C     C_R   0.892657 0.862129 0.210432 -0.069271
C32   C     C_R   0.107343 0.362128 0.789568 -0.069271
H3    H     H_    0.692112 0.888288 0.385513 0.159405
H4    H     H_    0.307887 0.388287 0.614487 0.159404
H5    H     H_    0.981305 0.889544 0.332672 0.106242
H6    H     H_    0.018695 0.389541 0.667328 0.106242
H7    H     H_    0.795810 0.877808 0.425424 0.143299
H8    H     H_    0.204190 0.377802 0.574575 0.143298
H9    H     H_    0.916810 0.895101 0.464998 0.127265
H10   H     H_    0.083190 0.395095 0.535002 0.127265
C33   C     C_R   0.206018 0.004946 0.251062 -0.191461
C34   C     C_R   0.793982 0.504944 0.748937 -0.191460
H11   H     H_    0.172862 0.121168 0.254382 0.165381
H12   H     H_    0.827138 0.621165 0.745616 0.165381
C35   C     C_R   0.270696 0.002712 0.315448 0.210859
C36   C     C_R   0.729305 0.502710 0.684551 0.210861
C37   C     C_R   0.315554 0.852153 0.313624 -0.121759
C38   C     C_R   0.684446 0.352153 0.686376 -0.121758
C39   C     C_R   0.292758 0.705027 0.245289 0.400574
C40   C     C_R   0.707242 0.205029 0.754712 0.400569
C41   C     C_R   0.226678 0.709367 0.182772 -0.234382
C42   C     C_R   0.773322 0.209369 0.817229 -0.234382
H13   H     H_    0.209799 0.597328 0.130635 0.148389
H14   H     H_    0.790200 0.097331 0.869366 0.148389
C43   C     C_R   0.183096 0.858697 0.184919 -0.119167
C44   C     C_R   0.816903 0.358697 0.815081 -0.119167
O11   O     O_R   0.913920 0.203370 0.916260 -0.535826
O12   O     O_R   0.086080 0.703370 0.083740 -0.535826
O13   O     O_R   0.047620 0.535540 0.888290 -0.545854
O14   O     O_R   0.952380 0.035540 0.111710 -0.545854
C45   C     C_R   0.064850 0.368568 0.863734 0.779731
C46   C     C_R   0.935150 0.868568 0.136266 0.779731
O15   O     O_R   0.912040 0.532780 0.904220 -0.536057
O16   O     O_R   0.087960 0.032780 0.095780 -0.536058
O17   O     O_R   0.949550 0.708160 0.099720 -0.524534
O18   O     O_R   0.050450 0.208160 0.900280 -0.524535
C47   C     C_R   0.885634 0.364828 0.883175 0.713548
C48   C     C_R   0.114366 0.864828 0.116825 0.713547
O19   O     O_3   0.012480 0.375300 0.064060 -0.379186
O20   O     O_3   0.987520 0.875300 0.935940 -0.379185
V3    V     V_3+5 0.997690 0.648180 0.988110 1.487184
V4    V     V_3+5 0.002310 0.148180 0.011890 1.487184
Br1   Br    Br    0.467682 0.806992 0.145577 -0.396871
Br2   Br    Br    0.532318 0.306994 0.854423 -0.396873
Br3   Br    Br    0.291073 0.208176 0.406753 -0.600580
Br4   Br    Br    0.708928 0.708171 0.593242 -0.600580
O21   O     O_3   0.336028 0.559885 0.238984 -0.592247
H15   H     H_    0.312217 0.469088 0.188747 0.304185
O22   O     O_3   0.663971 0.059889 0.761017 -0.592250
H16   H     H_    0.687780 0.969099 0.811258 0.304186
Br5   Br    Br    0.554062 0.799497 0.964643 -0.375252
Br6   Br    Br    0.445938 0.299498 0.035357 -0.375250
O23   O     O_3   0.819151 0.809716 0.004169 -0.648158
H17   H     H_    0.786952 0.783521 0.939010 0.278892
O24   O     O_3   0.180849 0.309719 0.995831 -0.648158
H18   H     H_    0.213048 0.283523 0.060990 0.278891

loop_
_geom_bond_atom_site_label_1
_geom_bond_atom_site_label_2
_ccdc_geom_bond_type
C42   H14   S    
C39   C41   A    
O22   H16   S    
C9    C31   A    
C33   C35   A    
C13   C15   A    
C6    Br6   S    
O1    C3    A    
C46   O17   A    
O2    C4    A    
C26   O24   S    
O12   V3    S    
C42   C44   A    
C9    C11   A    
O5    C3    A    
O14   C46   A    
C31   C46   S    
C2    C37   S    
C21   C23   A    
C10   C12   A    
C40   O22   S    
C25   O23   S    
C15   C19   A    
C36   C38   A    
C35   Br3   S    
C37   C39   A    
C44   C47   S    
C38   C40   A    
C43   C48   S    
H1    C23   S    
C7    C29   A    
C8    C30   A    
C17   C25   A    
C41   H13   S    
C20   C28   A    
O18   V4    S    
C5    Br5   S    
C16   C18   A    
C45   O18   A    
O16   V4    S    
O5    V1    S    
O15   V3    S    
O6    V2    S    
O13   C45   A    
C2    O7    A    
C12   H10   S    
C32   C45   S    
C13   H7    S    
O23   H17   S    
C10   H6    S    
C35   C37   A    
C16   C20   A    
O20   V3    S    
O4    C2    A    
O21   H15   S    
C4    C7    S    
C34   C36   A    
C40   C42   A    
O4    V2    S    
C5    C29   A    
C6    C30   A    
O11   V4    S    
H2    C24   S    
O16   C48   A    
O24   H18   S    
O15   C47   A    
O6    C4    A    
C27   H3    S    
O1    V2    S    
C28   H4    S    
O14   V4    S    
O2    V1    S    
O13   V3    S    
C33   C43   A    
C7    C27   A    
C19   C27   A    
C34   C44   A    
C33   H11   S    
O17   V3    S    
O3    V1    S    
C18   C32   A    
C11   H9    S    
O3    C1    A    
C36   Br4   S    
C11   C13   A    
C3    C8    S    
C12   C14   A    
C29   Br1   S    
C14   C16   A    
O7    V1    S    
C10   C32   A    
C1    O8    A    
C23   C25   A    
O8    V2    S    
C24   C26   A    
C14   H8    S    
C8    C28   A    
C41   C43   A    
C22   C24   A    
C19   C21   A    
C34   H12   S    
C1    C38   S    
C20   C22   A    
C18   C26   A    
C9    H5    S    
O19   V4    S    
C15   C17   A    
C17   C31   A    
O9    V2    S    
C39   O21   S    
O10   V1    S    
C5    C21   A    
C30   Br2   S    
C6    C22   A    
O12   C48   A    
O11   C47   A    
