data_mof_unit_41198.cif
_audit_creation_date              2012-12-10T17:09:16-0500
_audit_creation_method            fapswitch 2.2
_symmetry_space_group_name_H-M    P1
_symmetry_Int_Tables_number       1
_space_group_crystal_system       triclinic
_cell_length_a                    18.311627
_cell_length_b                    18.305481
_cell_length_c                    11.676152
_cell_angle_alpha                 89.947413
_cell_angle_beta                  75.739895
_cell_angle_gamma                 89.97716
_cell_volume                      3793.28457124

loop_
_atom_site_label
_atom_site_type_symbol
_atom_type_description
_atom_site_fract_x
_atom_site_fract_y
_atom_site_fract_z
_atom_type_partial_charge
C1    C     C_R   0.401120 0.101858 0.521254 0.777470
C2    C     C_R   0.598828 0.898083 0.478713 0.810046
C3    C     C_R   0.598935 0.101802 0.478758 0.791057
C4    C     C_R   0.396430 0.902600 0.522506 0.794170
C5    C     C_R   0.901172 0.601917 0.521287 0.810047
C6    C     C_R   0.098880 0.398142 0.478746 0.777469
C7    C     C_R   0.103570 0.597400 0.477494 0.794169
C8    C     C_R   0.901064 0.398198 0.521242 0.791058
C9    C     C_R   0.536101 0.996280 0.961235 -0.038832
C10   C     C_R   0.463917 0.003842 0.038768 -0.038443
C11   C     C_R   0.036083 0.496158 0.961232 -0.038443
C12   C     C_R   0.963899 0.503720 0.038765 -0.038832
C13   C     C_R   0.410808 0.008019 0.866366 0.029156
C14   C     C_R   0.589342 0.993162 0.133599 0.036510
C15   C     C_R   0.910658 0.506838 0.866401 0.036510
C16   C     C_R   0.089192 0.491981 0.133633 0.029156
C17   C     C_R   0.400783 0.009855 0.989758 0.159273
C18   C     C_R   0.599317 0.990965 0.010185 0.154908
C19   C     C_R   0.900683 0.509035 0.989815 0.154908
C20   C     C_R   0.099216 0.490145 0.010241 0.159273
C21   C     C_R   0.542551 0.994489 0.837301 0.061022
C22   C     C_R   0.457424 0.005254 0.162712 0.055102
C23   C     C_R   0.042576 0.494746 0.837288 0.055102
C24   C     C_R   0.957449 0.505511 0.162699 0.061022
C25   C     C_R   0.650526 0.163344 0.467934 -0.101705
C26   C     C_R   0.334353 0.850864 0.536616 -0.098595
C27   C     C_R   0.349288 0.163224 0.532395 -0.103469
C28   C     C_R   0.650873 0.836841 0.467301 -0.103625
C29   C     C_R   0.165647 0.649136 0.463384 -0.098595
C30   C     C_R   0.849474 0.336656 0.532066 -0.101705
C31   C     C_R   0.849126 0.663159 0.532699 -0.103625
C32   C     C_R   0.150712 0.336776 0.467605 -0.103470
C33   C     C_R   0.211401 0.803681 0.636256 -0.166512
C34   C     C_R   0.694881 0.283703 0.396721 -0.166147
C35   C     C_R   0.699928 0.719452 0.388165 -0.162356
C36   C     C_R   0.302067 0.281773 0.608519 -0.163244
C37   C     C_R   0.805119 0.216297 0.603279 -0.166147
C38   C     C_R   0.288599 0.696319 0.363744 -0.166512
C39   C     C_R   0.197933 0.218227 0.391481 -0.163244
C40   C     C_R   0.800071 0.780548 0.611835 -0.162356
C41   C     C_R   0.269078 0.854891 0.632280 0.132195
C42   C     C_R   0.644575 0.225522 0.398012 0.120768
C43   C     C_R   0.648849 0.777068 0.390523 0.128727
C44   C     C_R   0.352838 0.223916 0.606581 0.121037
C45   C     C_R   0.855425 0.274477 0.601988 0.120768
C46   C     C_R   0.230921 0.645109 0.367719 0.132195
C47   C     C_R   0.147162 0.276084 0.393419 0.121036
C48   C     C_R   0.851151 0.722932 0.609477 0.128727
C49   C     C_R   0.339995 0.798335 0.448157 -0.264764
C50   C     C_R   0.703465 0.160998 0.535979 -0.261814
C51   C     C_R   0.700855 0.837260 0.540421 -0.261486
C52   C     C_R   0.298147 0.162063 0.461230 -0.262817
C53   C     C_R   0.796535 0.339002 0.464021 -0.261813
C54   C     C_R   0.160005 0.701665 0.551843 -0.264764
C55   C     C_R   0.201853 0.337936 0.538770 -0.262816
C56   C     C_R   0.799145 0.662740 0.459579 -0.261486
C57   C     C_R   0.282250 0.748664 0.452706 0.122148
C58   C     C_R   0.752132 0.219221 0.535100 0.116136
C59   C     C_R   0.750200 0.779531 0.538358 0.116059
C60   C     C_R   0.249042 0.219982 0.462891 0.114850
C61   C     C_R   0.747868 0.280779 0.464900 0.116136
C62   C     C_R   0.217750 0.751336 0.547294 0.122148
C63   C     C_R   0.250958 0.280017 0.537109 0.114851
C64   C     C_R   0.749799 0.720468 0.461642 0.116059
Cu1   Cu    Cu3+1 0.507800 0.000000 0.383250 0.935699
Cu2   Cu    Cu3+1 0.492200 0.000000 0.616750 0.937058
Cu3   Cu    Cu3+1 0.007800 0.500000 0.383250 0.937058
Cu4   Cu    Cu3+1 0.992200 0.500000 0.616750 0.935700
H1    H     H_    0.637879 0.988956 0.170510 0.164209
H2    H     H_    0.362448 0.013717 0.829490 0.150663
H3    H     H_    0.137552 0.486283 0.170510 0.150663
H4    H     H_    0.862121 0.511044 0.829490 0.164209
H5    H     H_    0.402853 0.010231 0.224045 0.179038
H6    H     H_    0.597089 0.989223 0.775967 0.172652
H7    H     H_    0.902911 0.510777 0.224033 0.172652
H8    H     H_    0.097147 0.489769 0.775955 0.179038
H9    H     H_    0.706667 0.113315 0.589898 0.159964
H10   H     H_    0.389983 0.796003 0.375393 0.152217
H11   H     H_    0.296598 0.115501 0.404340 0.167256
H12   H     H_    0.701345 0.883108 0.599158 0.164515
H13   H     H_    0.110017 0.703997 0.624607 0.152217
H14   H     H_    0.793333 0.386685 0.410102 0.159964
H15   H     H_    0.798655 0.616891 0.400842 0.164515
H16   H     H_    0.203402 0.384499 0.595660 0.167257
H17   H     H_    0.806832 0.168083 0.656147 0.161960
H18   H     H_    0.338998 0.696042 0.292221 0.148304
H19   H     H_    0.198090 0.171170 0.335491 0.170238
H20   H     H_    0.798742 0.826863 0.669753 0.169717
H21   H     H_    0.161001 0.803958 0.707779 0.148304
H22   H     H_    0.693167 0.331917 0.343853 0.161960
H23   H     H_    0.701258 0.673137 0.330247 0.169717
H24   H     H_    0.301911 0.328830 0.664509 0.170238
N1    N     N_R   0.519530 0.000000 0.207810 -0.215944
N2    N     N_R   0.480470 0.000000 0.792190 -0.210164
N3    N     N_R   0.019530 0.500000 0.207810 -0.210164
N4    N     N_R   0.980470 0.500000 0.792190 -0.215944
O1    O     O_R   0.430030 0.075530 0.417420 -0.580901
O2    O     O_R   0.569970 0.924470 0.582580 -0.573981
O3    O     O_R   0.569970 0.075530 0.582580 -0.579328
O4    O     O_R   0.430030 0.924470 0.417420 -0.579449
O5    O     O_R   0.930030 0.575530 0.417420 -0.573981
O6    O     O_R   0.069970 0.424470 0.582580 -0.580901
O7    O     O_R   0.069970 0.575530 0.582580 -0.579449
O8    O     O_R   0.930030 0.424470 0.417420 -0.579327
O9    O     O_R   0.416860 0.075510 0.614610 -0.600893
O10   O     O_R   0.583140 0.924490 0.385390 -0.595200
O11   O     O_R   0.583140 0.075510 0.385390 -0.586750
O12   O     O_R   0.416860 0.924490 0.614610 -0.588583
O13   O     O_R   0.916860 0.575510 0.614610 -0.595200
O14   O     O_R   0.083140 0.424490 0.385390 -0.600893
O15   O     O_R   0.083140 0.575510 0.385390 -0.588582
O16   O     O_R   0.916860 0.424490 0.614610 -0.586751
C65   C     C_3   0.583416 0.229261 0.329834 -0.368081
C66   C     C_3   0.572006 0.303698 0.277141 -0.827449
H25   H     H_    0.560273 0.346251 0.347071 0.254719
H26   H     H_    0.622297 0.318899 0.206355 0.261840
H27   H     H_    0.522962 0.300806 0.237182 0.252710
H28   H     H_    0.596530 0.188886 0.256650 0.231583
H29   H     H_    0.528626 0.213959 0.390440 0.196261
C67   C     C_3   0.261656 0.914088 0.726419 -0.375478
C68   C     C_3   0.183647 0.923071 0.810562 -0.819797
H30   H     H_    0.140429 0.932695 0.760089 0.250126
H31   H     H_    0.168773 0.874171 0.867933 0.256290
H32   H     H_    0.184179 0.970981 0.868659 0.269038
H33   H     H_    0.302192 0.902115 0.780732 0.229504
H34   H     H_    0.276539 0.967648 0.681784 0.202141
C69   C     C_3   0.411843 0.226552 0.678897 -0.370042
C70   C     C_3   0.420998 0.299970 0.736306 -0.817862
H35   H     H_    0.433520 0.343926 0.668626 0.255418
H36   H     H_    0.369443 0.313565 0.805739 0.267401
H37   H     H_    0.468793 0.296497 0.779007 0.251468
H38   H     H_    0.397677 0.184796 0.750026 0.232312
H39   H     H_    0.467692 0.212624 0.620136 0.198773
C71   C     C_3   0.591059 0.775017 0.315964 -0.372001
C72   C     C_3   0.583072 0.702174 0.256022 -0.832083
H40   H     H_    0.635204 0.689479 0.187182 0.271883
H41   H     H_    0.570313 0.657456 0.322338 0.256552
H42   H     H_    0.535817 0.705935 0.212170 0.243928
H43   H     H_    0.534698 0.788210 0.373766 0.198268
H44   H     H_    0.605731 0.817505 0.246063 0.232244
C73   C     C_3   0.238344 0.585912 0.273580 -0.375479
C74   C     C_3   0.316352 0.576930 0.189437 -0.819795
H45   H     H_    0.331226 0.625830 0.132066 0.256289
H46   H     H_    0.359571 0.567305 0.239909 0.250125
H47   H     H_    0.315821 0.529019 0.131339 0.269038
H48   H     H_    0.223461 0.532352 0.318215 0.202141
H49   H     H_    0.197807 0.597885 0.219268 0.229505
C75   C     C_3   0.916584 0.270739 0.670166 -0.368081
C76   C     C_3   0.927994 0.196302 0.722859 -0.827449
H50   H     H_    0.877703 0.181101 0.793645 0.261840
H51   H     H_    0.939727 0.153749 0.652929 0.254719
H52   H     H_    0.977038 0.199194 0.762818 0.252711
H53   H     H_    0.971374 0.286041 0.609560 0.196261
H54   H     H_    0.903470 0.311114 0.743349 0.231583
C77   C     C_3   0.908941 0.724983 0.684035 -0.372000
C78   C     C_3   0.916929 0.797827 0.743975 -0.832082
H55   H     H_    0.929688 0.842544 0.677658 0.256551
H56   H     H_    0.864797 0.810522 0.812816 0.271883
H57   H     H_    0.964185 0.794066 0.787827 0.243927
H58   H     H_    0.894269 0.682496 0.753937 0.232243
H59   H     H_    0.965302 0.711789 0.626233 0.198268
C79   C     C_3   0.088158 0.273448 0.321101 -0.370042
C80   C     C_3   0.079005 0.200031 0.263686 -0.817858
H60   H     H_    0.130562 0.186439 0.194254 0.267401
H61   H     H_    0.066483 0.156074 0.331364 0.255417
H62   H     H_    0.031211 0.203505 0.220983 0.251467
H63   H     H_    0.032308 0.287374 0.379863 0.198772
H64   H     H_    0.102323 0.315207 0.249974 0.232313
Br1   Br    Br    0.299972 0.021604 0.085547 -0.596167
Br2   Br    Br    0.700206 0.980297 0.914096 -0.602618
Br3   Br    Br    0.799794 0.519703 0.085904 -0.602618
Br4   Br    Br    0.200028 0.478396 0.914453 -0.596167

loop_
_geom_bond_atom_site_label_1
_geom_bond_atom_site_label_2
_ccdc_geom_bond_type
C72   H42   S    
C6    C32   S    
C50   H9    S    
C44   C69   S    
C7    C29   S    
C45   C75   S    
C14   C18   A    
C30   C45   A    
C80   H60   S    
C34   C42   A    
Cu4   O7    S    
C39   H19   S    
C23   H8    S    
C70   H35   S    
C66   H25   S    
C57   C62   A    
C10   C22   A    
C15   C19   A    
C15   H4    S    
C4    O12   A    
C59   C64   A    
Cu4   N4    S    
C38   H18   S    
C60   C63   A    
C37   H17   S    
C78   H55   S    
C80   H61   S    
Cu4   O6    S    
C65   C66   S    
C76   H51   S    
C71   H44   S    
C28   C51   A    
C67   H34   S    
C13   H2    S    
C10   C17   A    
C49   C57   A    
C49   H10   S    
C40   C48   A    
Cu4   O16   S    
C69   H38   S    
C68   H32   S    
C21   N2    A    
C52   C60   A    
C25   C50   A    
C47   C79   S    
C53   C61   A    
C27   C44   A    
C23   N4    A    
C33   C62   A    
C55   C63   A    
C56   C64   A    
C35   C64   A    
C31   C56   A    
C52   H11   S    
C35   C43   A    
C9    C10   A    
C32   C55   A    
C37   C58   A    
Cu2   N2    S    
Cu2   O12   S    
C36   H24   S    
C58   C61   A    
Cu1   N1    S    
C40   C59   A    
C7    O7    A    
Cu3   N3    S    
C6    O14   A    
C74   H47   S    
C16   H3    S    
C75   H54   S    
Cu3   O8    S    
C46   C73   S    
C18   Br2   S    
C30   C53   A    
C5    O5    A    
C11   C20   A    
C68   H31   S    
Cu3   Cu4   S    
C50   C58   A    
C72   H40   S    
C80   H62   S    
C75   C76   S    
C76   H52   S    
C1    O1    A    
C15   N4    A    
C67   H33   S    
C54   C62   A    
C3    O11   A    
C21   H6    S    
C2    O10   A    
C34   C61   A    
C77   H59   S    
C65   H28   S    
C53   H14   S    
Cu2   O3    S    
C43   C71   S    
C34   H22   S    
C33   H21   S    
C38   C57   A    
Cu3   O14   S    
C66   H26   S    
C3    C25   S    
C16   C20   A    
C13   N2    A    
C65   H29   S    
C8    O8    A    
C68   H30   S    
C73   H48   S    
C79   H64   S    
Cu3   O15   S    
C14   H1    S    
C20   Br4   S    
C48   C77   S    
C31   C48   A    
C4    O4    A    
C22   N1    A    
C74   H46   S    
C26   C49   A    
C51   C59   A    
C75   H53   S    
Cu2   O9    S    
C37   C45   A    
C69   C70   S    
C36   C63   A    
C70   H37   S    
Cu1   O10   S    
C71   H43   S    
C42   C65   S    
C27   C52   A    
Cu3   O5    S    
C56   H15   S    
C39   C47   A    
C79   C80   S    
C72   H41   S    
C16   N3    A    
C14   N1    A    
C77   H58   S    
C74   H45   S    
C78   H57   S    
C69   H39   S    
Cu1   O4    S    
C19   Br3   S    
C70   H36   S    
C25   C42   A    
C4    C26   S    
C11   C12   A    
C24   H7    S    
C71   C72   S    
C12   C24   A    
C28   C43   A    
C13   C17   A    
C29   C46   A    
C33   C41   A    
Cu2   O2    S    
C78   H56   S    
C8    C30   S    
C73   C74   S    
C24   N3    A    
C9    C21   A    
C5    O13   A    
C39   C60   A    
C51   H12   S    
C12   C19   A    
C11   C23   A    
C32   C47   A    
C8    O16   A    
C7    O15   A    
C17   Br1   S    
Cu4   O13   S    
C6    O6    A    
C41   C67   S    
C38   C46   A    
C66   H27   S    
C36   C44   A    
C73   H49   S    
Cu1   O1    S    
C79   H63   S    
C3    O3    A    
C9    C18   A    
C2    O2    A    
Cu1   Cu2   S    
C29   C54   A    
C77   C78   S    
C1    C27   S    
C67   C68   S    
C2    C28   S    
C22   H5    S    
C55   H16   S    
C76   H50   S    
Cu1   O11   S    
C54   H13   S    
C40   H20   S    
C26   C41   A    
C1    O9    A    
C5    C31   S    
C35   H23   S    
