data_mof_unit_31951.cif
_audit_creation_date              2012-12-10T20:39:12-0500
_audit_creation_method            fapswitch 2.2
_symmetry_space_group_name_H-M    P1
_symmetry_Int_Tables_number       1
_space_group_crystal_system       triclinic
_cell_length_a                    19.096112
_cell_length_b                    10.67008
_cell_length_c                    9.863966
_cell_angle_alpha                 90.03184
_cell_angle_beta                  89.587949
_cell_angle_gamma                 90.026881
_cell_volume                      2009.80003962

loop_
_atom_site_label
_atom_site_type_symbol
_atom_type_description
_atom_site_fract_x
_atom_site_fract_y
_atom_site_fract_z
_atom_type_partial_charge
C1    C     C_R   0.502184 0.259969 0.500014 0.884553
C2    C     C_R   0.853372 0.584196 0.516417 -0.072906
C3    C     C_R   0.511473 0.064000 0.623269 0.119830
C4    C     C_R   0.365473 0.500247 0.500483 0.876645
C5    C     C_R   0.513385 0.128623 0.500764 -0.098059
C6    C     C_R   0.528790 0.064791 0.379847 -0.197316
C7    C     C_R   0.528840 0.935159 0.379882 -0.217144
C8    C     C_R   0.513463 0.871423 0.500826 -0.098227
C9    C     C_R   0.511527 0.936221 0.623309 0.106044
C10   C     C_3   0.459973 0.929095 0.737906 -0.426863
C11   C     C_3   0.459906 0.071206 0.737841 -0.471010
C12   C     C_R   0.289846 0.510524 0.502311 -0.034090
C13   C     C_R   0.460525 0.414943 0.071963 0.074969
C14   C     C_R   0.544131 0.575298 0.071415 -0.111405
C15   C     C_R   0.544190 0.575206 0.927398 -0.099969
C16   C     C_R   0.502221 0.740043 0.500021 0.874789
C17   C     C_R   0.459945 0.415923 0.929343 0.023696
C18   C     C_3   0.382024 0.404773 0.926859 0.325752
C19   C     C_3   0.383043 0.401047 0.080478 0.374236
C20   C     C_R   0.634995 0.502655 0.499490 0.886493
C21   C     C_R   0.251662 0.461796 0.611707 -0.122293
C22   C     C_R   0.180010 0.481144 0.619804 -0.146916
C23   C     C_R   0.929663 0.586640 0.526204 0.325365
C24   C     C_R   0.145974 0.549865 0.518599 0.075798
C25   C     C_R   0.184233 0.596951 0.407885 -0.142895
C26   C     C_R   0.255900 0.576650 0.399391 -0.178508
C27   C     C_3   0.811436 0.555469 0.889008 -0.805126
C28   C     C_3   0.718809 0.377447 0.214441 -0.755744
C29   C     C_3   0.863810 0.709421 0.212200 -0.770194
C30   C     C_R   0.070413 0.567657 0.525933 0.280465
C31   C     C_R   0.813616 0.572730 0.636285 0.210507
C32   C     C_R   0.742734 0.543362 0.626639 -0.275023
C33   C     C_R   0.711140 0.522825 0.500719 -0.156757
C34   C     C_R   0.751080 0.533961 0.380056 0.154885
C35   C     C_R   0.821897 0.570480 0.388237 0.145997
F1    F     F_    0.350555 0.513085 0.879830 -0.664064
F2    F     F_    0.364277 0.284842 0.131336 -0.662095
H1    H     H_    0.277209 0.408797 0.690693 0.181217
H2    H     H_    0.356006 0.480963 0.130675 0.129560
H3    H     H_    0.151471 0.443100 0.705686 0.159453
H4    H     H_    0.158875 0.648863 0.327718 0.158952
H5    H     H_    0.285009 0.615562 0.314636 0.155836
H6    H     H_    0.711437 0.538081 0.718156 0.189602
H7    H     H_    0.535921 0.113882 0.284619 0.179329
H8    H     H_    0.878126 0.670059 0.771500 0.228168
H9    H     H_    0.849862 0.557632 0.972178 0.248975
H10   H     H_    0.791239 0.458088 0.881182 0.252988
H11   H     H_    0.768242 0.621694 0.913114 0.225019
H12   H     H_    0.536009 0.885972 0.284670 0.168977
H13   H     H_    0.736185 0.565660 0.173283 0.221621
H14   H     H_    0.772923 0.341886 0.198749 0.222469
H15   H     H_    0.689237 0.365903 0.118705 0.234827
H16   H     H_    0.692429 0.320988 0.294487 0.247199
H17   H     H_    0.856410 0.514651 0.197650 0.227718
H18   H     H_    0.811963 0.732873 0.168930 0.216275
H19   H     H_    0.903980 0.715266 0.130552 0.249470
H20   H     H_    0.876822 0.779845 0.291085 0.260869
H21   H     H_    0.409024 0.887566 0.707357 0.218888
H22   H     H_    0.483391 0.888133 0.830749 0.206621
H23   H     H_    0.408929 0.112484 0.707241 0.203899
H24   H     H_    0.483246 0.112463 0.830675 0.207821
H25   H     H_    0.578681 0.638016 0.125348 0.142911
H26   H     H_    0.578808 0.637824 0.872602 0.129333
H27   H     H_    0.363300 0.317302 0.877734 0.100014
N1    N     N_R   0.038260 0.652328 0.445006 -0.172052
N2    N     N_R   0.968939 0.661706 0.445233 -0.145331
N3    N     N_R   0.961890 0.503655 0.608744 -0.148232
N4    N     N_R   0.031098 0.494633 0.609009 -0.174060
N5    N     N_R   0.499530 0.499140 0.142800 -0.118772
N6    N     N_R   0.499530 0.499180 0.857150 -0.068001
N7    N     N_2   0.846377 0.592090 0.764716 -0.282215
N8    N     N_2   0.720143 0.508620 0.251674 -0.290538
N9    N     N_2   0.863393 0.584114 0.268691 -0.295352
O1    O     O_R   0.500010 0.316790 0.614690 -0.629262
O2    O     O_R   0.500000 0.316760 0.385350 -0.595759
O3    O     O_R   0.398140 0.500000 0.614710 -0.557777
O4    O     O_R   0.398130 0.499970 0.385370 -0.617874
O5    O     O_R   0.500000 0.683240 0.614650 -0.610314
O6    O     O_R   0.499990 0.683210 0.385310 -0.629109
O7    O     O_R   0.601870 0.500030 0.614630 -0.638618
O8    O     O_R   0.601860 0.500000 0.385290 -0.587146
Zn1   Zn    Zn3+2 0.500000 0.500020 0.653130 0.982869
Zn2   Zn    Zn3+2 0.500000 0.499980 0.346870 0.976111

loop_
_geom_bond_atom_site_label_1
_geom_bond_atom_site_label_2
_ccdc_geom_bond_type
C27   H11   S    
C2    C35   A    
H8    N7    S    
O2    Zn2   S    
C7    C8    A    
C3    C9    A    
C1    O1    A    
C23   N2    A    
C10   H21   S    
C18   C19   S    
C5    C6    A    
C28   H14   S    
C29   N9    S    
O4    Zn2   S    
C14   H25   S    
C34   C35   A    
C23   N3    A    
H13   N8    S    
C19   F2    S    
C21   H1    S    
C8    C9    A    
C4    C12   S    
C9    C10   S    
C22   C24   A    
C31   N7    S    
C17   N6    A    
C8    C16   S    
C6    H7    S    
C21   C22   A    
C28   N8    S    
O1    Zn1   S    
O8    Zn2   S    
C33   C34   A    
C13   C19   S    
N3    N4    A    
C1    O2    A    
C24   C25   A    
C7    H12   S    
O7    Zn1   S    
C25   H4    S    
C20   O7    A    
C29   H18   S    
C3    C5    A    
C25   C26   A    
C12   C21   A    
C12   C26   A    
C2    C31   A    
N5    Zn2   S    
H17   N9    S    
O5    Zn1   S    
C31   C32   A    
C22   H3    S    
C17   C18   S    
C19   H2    S    
C20   C33   S    
C27   H9    S    
C29   H20   S    
C14   N5    A    
C1    C5    S    
O3    Zn1   S    
C11   H23   S    
C34   N8    S    
C27   N7    S    
C26   H5    S    
C27   H10   S    
C15   N6    A    
C35   N9    S    
C11   H24   S    
C28   H16   S    
C6    C7    A    
C29   H19   S    
C13   C17   A    
C16   O6    A    
C32   C33   A    
C10   H22   S    
C4    O4    A    
O6    Zn2   S    
C28   H15   S    
C18   H27   S    
C13   N5    A    
C32   H6    S    
C16   O5    A    
N6    Zn1   S    
C24   C30   S    
C4    O3    A    
C30   N1    A    
C3    C11   S    
C10   C11   S    
N1    N2    A    
C2    C23   S    
C15   H26   S    
C14   C15   A    
C20   O8    A    
C18   F1    S    
C30   N4    A    
