data_mof_unit_14621.cif
_audit_creation_date              2012-12-10T17:49:41-0500
_audit_creation_method            fapswitch 2.2
_symmetry_space_group_name_H-M    P1
_symmetry_Int_Tables_number       1
_space_group_crystal_system       triclinic
_cell_length_a                    14.710735
_cell_length_b                    14.690129
_cell_length_c                    15.871197
_cell_angle_alpha                 76.958416
_cell_angle_beta                  102.694044
_cell_angle_gamma                 114.83984
_cell_volume                      3001.78104933

loop_
_atom_site_label
_atom_site_type_symbol
_atom_type_description
_atom_site_fract_x
_atom_site_fract_y
_atom_site_fract_z
_atom_type_partial_charge
C1    C     C_R   0.880317 0.312207 0.514869 0.792031
C2    C     C_3   0.049187 0.428921 0.073088 -0.390083
C3    C     C_3   0.000986 0.500991 0.082759 0.269102
C4    C     C_3   0.061976 0.609428 0.038860 -0.421431
C5    C     C_3   0.063023 0.610348 0.940716 0.397426
C6    C     C_1   0.001375 0.500519 0.175131 -0.089584
C7    C     C_1   0.999214 0.500829 0.824655 -0.061947
C8    C     C_1   0.999107 0.500405 0.749144 -0.169864
C9    C     C_R   0.812638 0.204361 0.525207 -0.054607
C10   C     C_R   0.187016 0.795090 0.485955 -0.124196
C11   C     C_R   0.783179 0.026449 0.546278 -0.195129
C12   C     C_R   0.999653 0.500017 0.659645 0.826888
C13   C     C_R   0.849899 0.127868 0.540044 -0.196798
C14   C     C_R   0.708625 0.178302 0.519235 -0.253808
C15   C     C_R   0.640030 0.076563 0.528003 0.086553
C16   C     C_R   0.678685 0.000370 0.539030 0.159023
C17   C     C_R   0.534063 0.048891 0.523103 0.070796
C18   C     C_R   0.467133 0.946047 0.519088 0.094159
C19   C     C_R   0.508992 0.872144 0.531291 -0.222891
C20   C     C_R   0.612766 0.899025 0.542029 -0.233351
C21   C     C_R   0.493118 0.120238 0.523953 -0.245534
C22   C     C_R   0.389617 0.093146 0.515884 -0.194769
C23   C     C_R   0.119614 0.687742 0.486485 0.823671
C24   C     C_R   0.322297 0.994331 0.505234 0.051620
C25   C     C_R   0.360628 0.920169 0.505413 0.028315
C26   C     C_R   0.216897 0.968481 0.494576 0.491025
C27   C     C_R   0.150093 0.868189 0.487334 -0.280743
C28   C     C_R   0.290925 0.822378 0.491511 -0.260353
C29   C     C_R   0.718445 0.672639 0.359418 -0.322560
C30   C     C_R   0.798771 0.641343 0.380626 0.079276
C31   C     C_R   0.713876 0.507865 0.487043 0.012867
C32   C     C_R   0.628942 0.535395 0.468153 -0.022211
C33   C     C_R   0.633701 0.620512 0.403249 0.165012
C34   C     C_R   0.000377 0.500035 0.340340 0.826171
C35   C     C_R   0.540843 0.482869 0.511451 0.081118
C36   C     C_R   0.459622 0.517686 0.489386 0.077856
C37   C     C_R   0.469586 0.604159 0.425342 -0.241043
C38   C     C_R   0.554556 0.653843 0.383008 -0.201252
C39   C     C_R   0.531075 0.396686 0.575796 -0.242051
C40   C     C_R   0.445891 0.346712 0.617835 -0.203369
C41   C     C_R   0.366507 0.379719 0.597241 0.166957
C42   C     C_R   0.371353 0.464928 0.532423 -0.023483
C43   C     C_R   0.281522 0.327303 0.640734 -0.302385
C44   C     C_R   0.201138 0.358530 0.619381 0.079673
C45   C     C_3   0.047919 0.428697 0.975291 -0.490672
C46   C     C_R   0.286268 0.492237 0.513239 0.006659
C47   C     C_3   0.890392 0.465441 0.936666 -0.354435
C48   C     C_3   0.891106 0.465293 0.034427 -0.380384
C49   C     C_1   0.001216 0.500193 0.250761 -0.183425
C50   C     C_3   0.999972 0.501690 0.916888 0.253464
Cu1   Cu    Cu3+1 0.081750 0.475690 0.522550 0.935925
Cu2   Cu    Cu3+1 0.918250 0.524310 0.477450 0.939181
H1    H     H_    0.006849 0.350459 0.104512 0.175960
H2    H     H_    0.126592 0.452061 0.962289 0.167026
H3    H     H_    0.128576 0.453579 0.106823 0.169911
H4    H     H_    0.028236 0.662197 0.045368 0.189001
H5    H     H_    0.641501 0.839953 0.551412 0.153491
H6    H     H_    0.315470 0.765367 0.484505 0.154900
H7    H     H_    0.069710 0.847411 0.484615 0.171240
H8    H     H_    0.362522 0.150836 0.517366 0.194599
H9    H     H_    0.813174 0.968348 0.555807 0.140990
H10   H     H_    0.930168 0.146399 0.545071 0.159951
H11   H     H_    0.682469 0.239136 0.504759 0.150332
H12   H     H_    0.004157 0.350264 0.959646 0.188010
H13   H     H_    0.463879 0.791936 0.535743 0.147005
H14   H     H_    0.539256 0.197502 0.533797 0.141139
H15   H     H_    0.558539 0.719655 0.334025 0.140700
H16   H     H_    0.281890 0.553895 0.463277 0.121293
H17   H     H_    0.134976 0.317451 0.652189 0.125496
H18   H     H_    0.441943 0.280940 0.666863 0.143291
H19   H     H_    0.722940 0.737799 0.309563 0.134986
H20   H     H_    0.864808 0.682283 0.347641 0.123861
H21   H     H_    0.718252 0.446145 0.536933 0.121074
H22   H     H_    0.853113 0.515699 0.895459 0.202677
H23   H     H_    0.412907 0.636016 0.406302 0.129403
H24   H     H_    0.588135 0.365353 0.595370 0.127142
H25   H     H_    0.276936 0.262048 0.690500 0.140108
H26   H     H_    0.844783 0.387538 0.920347 0.153899
H27   H     H_    0.845436 0.387472 0.064813 0.165877
H28   H     H_    0.854932 0.516243 0.040232 0.173379
H29   H     H_    0.142679 0.630954 0.930611 0.053480
H30   H     H_    0.141151 0.637262 0.072940 0.121805
N1    N     N_R   0.795410 0.560790 0.443550 -0.176681
N2    N     N_R   0.204590 0.439170 0.556520 -0.177843
O1    O     O_R   0.977910 0.338120 0.529720 -0.589917
O2    O     O_R   0.839850 0.379180 0.491640 -0.590774
O3    O     O_R   0.069060 0.479460 0.639610 -0.579477
O4    O     O_R   0.931000 0.520530 0.601530 -0.572217
O5    O     O_R   0.160150 0.620820 0.508360 -0.588856
O6    O     O_R   0.022090 0.661880 0.470280 -0.590759
O7    O     O_R   0.069000 0.479470 0.398470 -0.578139
O8    O     O_R   0.930940 0.520540 0.360390 -0.576384
O9    O     O_3   0.179612 0.038980 0.499692 -0.586911
C51   C     C_3   0.138981 0.071374 0.415018 -0.352686
H31   H     H_    0.071283 0.008521 0.388683 0.160574
H32   H     H_    0.196727 0.104019 0.369644 0.159960
H33   H     H_    0.114469 0.132093 0.418594 0.198048
O10   O     O_3   0.021294 0.678909 0.887143 -0.569714
C52   C     C_3   0.097518 0.776976 0.872990 -0.338796
H34   H     H_    0.150346 0.778361 0.831749 0.166140
H35   H     H_    0.139817 0.804445 0.935689 0.150332
H36   H     H_    0.061370 0.830139 0.837314 0.199663

loop_
_geom_bond_atom_site_label_1
_geom_bond_atom_site_label_2
_ccdc_geom_bond_type
C10   C27   A    
O9    C51   S    
C21   H14   S    
C41   C42   A    
C36   C42   A    
C19   C20   A    
C9    C14   A    
C3    C6    S    
Cu1   O1    S    
C7    C8    T    
C25   C28   A    
C26   C27   A    
C37   C38   A    
C40   H18   S    
C48   H27   S    
C36   C37   A    
C24   C26   A    
C2    H3    S    
C22   H8    S    
C31   H21   S    
C15   C16   A    
C29   C33   A    
C3    C48   S    
C31   N1    A    
C18   C19   A    
C42   C46   A    
C30   N1    A    
C9    C13   A    
C34   O7    A    
Cu1   O7    S    
Cu2   O6    S    
C13   H10   S    
C31   C32   A    
C23   O5    A    
C8    C12   S    
C26   O9    S    
C37   H23   S    
C21   C22   A    
C4    H4    S    
C41   C43   A    
C18   C25   A    
C47   C50   S    
C2    C45   S    
C1    O1    A    
C12   O4    A    
Cu1   Cu2   S    
C32   C35   A    
Cu2   O4    S    
C1    C9    S    
C24   C25   A    
C7    C50   S    
Cu1   O3    S    
C39   C40   A    
C51   H33   S    
C11   H9    S    
C17   C21   A    
C35   C36   A    
Cu2   N1    S    
C35   C39   A    
C43   C44   A    
C46   H16   S    
C29   C30   A    
C5    H29   S    
C11   C16   A    
C47   C48   S    
C16   C20   A    
C17   C18   A    
C23   O6    A    
C44   H17   S    
C39   H24   S    
C38   H15   S    
C51   H32   S    
C46   N2    A    
C40   C41   A    
C52   H35   S    
C45   H2    S    
C22   C24   A    
C5    C50   S    
Cu2   O8    S    
C3    C4    S    
C10   C28   A    
C1    O2    A    
C15   C17   A    
C34   C49   S    
C12   O3    A    
C47   H22   S    
C4    C5    S    
C44   N2    A    
C2    H1    S    
C30   H20   S    
C28   H6    S    
C10   C23   S    
C43   H25   S    
C45   H12   S    
C33   C38   A    
C52   H34   S    
C32   C33   A    
C48   H28   S    
Cu2   O2    S    
C2    C3    S    
C27   H7    S    
Cu1   O5    S    
C11   C13   A    
C45   C50   S    
C14   H11   S    
C19   H13   S    
C6    C49   T    
C51   H31   S    
C34   O8    A    
C52   H36   S    
C4    H30   S    
C5    O10   S    
O10   C52   S    
C14   C15   A    
C47   H26   S    
C20   H5    S    
Cu1   N2    S    
C29   H19   S    
