data_mof_unit_19446.cif
_audit_creation_date              2012-12-10T18:57:49-0500
_audit_creation_method            fapswitch 2.2
_symmetry_space_group_name_H-M    P1
_symmetry_Int_Tables_number       1
_space_group_crystal_system       triclinic
_cell_length_a                    10.635531
_cell_length_b                    9.984886
_cell_length_c                    8.897314
_cell_angle_alpha                 91.03509
_cell_angle_beta                  91.693055
_cell_angle_gamma                 89.754701
_cell_volume                      944.273160047

loop_
_atom_site_label
_atom_site_type_symbol
_atom_type_description
_atom_site_fract_x
_atom_site_fract_y
_atom_site_fract_z
_atom_type_partial_charge
C1    C     C_R   0.260915 0.500315 0.497790 0.965404
C2    C     C_R   0.069409 0.559953 0.620311 0.091929
C3    C     C_R   0.872286 0.495659 0.502935 -0.165947
C4    C     C_R   0.128416 0.501538 0.496768 -0.158026
C5    C     C_R   0.552592 0.073613 0.618086 0.176375
C6    C     C_R   0.447182 0.925448 0.381962 0.199183
C7    C     C_R   0.447144 0.069357 0.381404 0.159705
C8    C     C_R   0.543139 0.930491 0.623175 0.149992
C9    C     C_3   0.165007 0.469250 0.142474 -0.851773
C10   C     C_3   0.838753 0.495335 0.855270 -0.862264
C11   C     C_3   0.830674 0.235397 0.268871 -0.749156
C12   C     C_R   0.739344 0.499280 0.501257 0.966325
C13   C     C_3   0.166185 0.757275 0.740901 -0.756835
C14   C     C_3   0.750708 0.150047 0.728622 -0.779418
C15   C     C_3   0.247889 0.855003 0.266960 -0.757815
C16   C     C_3   0.437625 0.124809 0.112957 -0.813455
C17   C     C_3   0.683800 0.830903 0.813112 -0.711981
C18   C     C_R   0.500862 0.499332 0.219128 0.936211
C19   C     C_R   0.499485 0.500800 0.780886 0.942538
C20   C     C_1   0.500741 0.499399 0.065496 -0.219124
C21   C     C_1   0.500054 0.501375 0.934516 -0.212552
C22   C     C_R   0.062137 0.437724 0.377370 0.123805
C23   C     C_R   0.939322 0.553029 0.625960 0.128261
C24   C     C_R   0.931692 0.434132 0.380921 0.091595
H1    H     H_    0.086259 0.291491 0.210570 0.241331
H2    H     H_    0.880692 0.177380 0.181051 0.203289
H3    H     H_    0.728020 0.220611 0.249981 0.269199
H4    H     H_    0.858637 0.194899 0.380559 0.238087
H5    H     H_    0.120433 0.579884 0.847599 0.227243
H6    H     H_    0.113474 0.809425 0.830800 0.206048
H7    H     H_    0.137734 0.801017 0.630993 0.237315
H8    H     H_    0.268127 0.775510 0.761710 0.261510
H9    H     H_    0.586703 0.119141 0.842947 0.214441
H10   H     H_    0.778969 0.208803 0.631815 0.269226
H11   H     H_    0.791966 0.049069 0.714042 0.220738
H12   H     H_    0.213321 0.413619 0.051510 0.244460
H13   H     H_    0.792035 0.196403 0.833008 0.224780
H14   H     H_    0.419403 0.863082 0.159832 0.226903
H15   H     H_    0.211785 0.956434 0.240084 0.232674
H16   H     H_    0.214481 0.826205 0.378690 0.250295
H17   H     H_    0.208695 0.783612 0.181026 0.224712
H18   H     H_    0.335678 0.222171 0.285351 0.288788
H19   H     H_    0.454109 0.225396 0.067438 0.263702
H20   H     H_    0.370236 0.072297 0.034934 0.228255
H21   H     H_    0.528662 0.069527 0.115826 0.220227
H22   H     H_    0.503150 0.904667 0.847833 0.188673
H23   H     H_    0.081289 0.521477 0.094024 0.232015
H24   H     H_    0.721691 0.907977 0.893489 0.200317
H25   H     H_    0.746438 0.818913 0.716074 0.251527
H26   H     H_    0.680626 0.735570 0.874357 0.257826
H27   H     H_    0.231268 0.544485 0.191736 0.255586
H28   H     H_    0.919044 0.678652 0.812894 0.239520
H29   H     H_    0.796985 0.540599 0.957218 0.234663
H30   H     H_    0.921488 0.433515 0.889568 0.237151
H31   H     H_    0.766604 0.430860 0.799017 0.269031
H32   H     H_    0.887141 0.403733 0.153753 0.228790
N1    N     N_R   0.500000 0.857200 0.500000 -0.133024
N2    N     N_2   0.557843 0.865978 0.763541 -0.261392
N3    N     N_R   0.500000 0.142800 0.500000 -0.143896
N4    N     N_2   0.127362 0.376944 0.255818 -0.308245
N5    N     N_2   0.876019 0.599883 0.755787 -0.310056
N6    N     N_2   0.859230 0.376777 0.258640 -0.308669
N7    N     N_2   0.142707 0.614449 0.743518 -0.308279
N8    N     N_2   0.614870 0.145376 0.737803 -0.241784
N9    N     N_2   0.383908 0.851050 0.265110 -0.239375
N10   N     N_2   0.384126 0.135773 0.260756 -0.284711
O1    O     O_R   0.316770 0.614620 0.499990 -0.600878
O2    O     O_R   0.683230 0.385380 0.500010 -0.609164
O3    O     O_R   0.683230 0.614620 0.500010 -0.610422
O4    O     O_R   0.316770 0.385380 0.499990 -0.634563
O5    O     O_R   0.500010 0.614640 0.285340 -0.603516
O6    O     O_R   0.499990 0.385360 0.714660 -0.601670
O7    O     O_R   0.499990 0.614640 0.714660 -0.581806
O8    O     O_R   0.500010 0.385360 0.285340 -0.616303
Zn1   Zn    Zn3+2 0.500000 0.653120 0.500000 0.967768
Zn2   Zn    Zn3+2 0.500000 0.346880 0.500000 0.948683

loop_
_geom_bond_atom_site_label_1
_geom_bond_atom_site_label_2
_ccdc_geom_bond_type
C17   H26   S    
C14   H10   S    
C9    H12   S    
C2    C4    A    
C12   O3    A    
H5    N7    S    
O3    Zn1   S    
C6    C7    A    
C1    O1    A    
H1    N4    S    
C8    N1    A    
C5    C8    A    
C4    C22   A    
C16   H20   S    
C13   H8    S    
C3    C23   A    
C1    O4    A    
C13   N7    S    
H14   N9    S    
C11   H3    S    
C17   N2    S    
O6    Zn2   S    
C11   N6    S    
C14   N8    S    
C9    H27   S    
N1    Zn1   S    
C3    C24   A    
O1    Zn1   S    
C18   O8    A    
C20   C21   T    
C14   H13   S    
O5    Zn1   S    
C10   H31   S    
C12   O2    A    
C16   H19   S    
C15   H15   S    
C19   O6    A    
C22   N4    S    
O8    Zn2   S    
C11   H4    S    
H9    N8    S    
C22   C24   A    
C7    N3    A    
C19   C21   S    
C13   H7    S    
C9    H23   S    
C18   C20   S    
H28   N5    S    
O4    Zn2   S    
C24   N6    S    
C10   H30   S    
H32   N6    S    
C15   H16   S    
C1    C4    S    
O2    Zn2   S    
O7    Zn1   S    
C16   H21   S    
C17   H24   S    
C10   N5    S    
C13   H6    S    
C19   O7    A    
C16   N10   S    
C2    N7    S    
C15   H17   S    
C2    C23   A    
C23   N5    S    
C17   H25   S    
C18   O5    A    
H18   N10   S    
C10   H29   S    
C5    N3    A    
C6    N1    A    
C3    C12   S    
C11   H2    S    
C8    N2    S    
N3    Zn2   S    
C14   H11   S    
C6    N9    S    
H22   N2    S    
C5    N8    S    
C7    N10   S    
C9    N4    S    
C15   N9    S    
