data_mof_unit_63354.cif
_audit_creation_date              2013-03-05T16:51:58-0500
_audit_creation_method            fapswitch 2.2
_symmetry_space_group_name_H-M    P1
_symmetry_Int_Tables_number       1
_space_group_crystal_system       triclinic
_cell_length_a                    15.859407
_cell_length_b                    15.073801
_cell_length_c                    19.145466
_cell_angle_alpha                 89.992597
_cell_angle_beta                  89.984723
_cell_angle_gamma                 89.996473
_cell_volume                      4576.94447398

loop_
_atom_site_label
_atom_site_type_symbol
_atom_site_description
_atom_site_fract_x
_atom_site_fract_y
_atom_site_fract_z
_atom_type_partial_charge
O1    O     O_R   0.378020 0.573650 0.500020 -0.589443
O2    O     O_R   0.621980 0.426350 0.499980 -0.587533
O3    O     O_R   0.621980 0.573650 0.499980 -0.588304
O4    O     O_R   0.378020 0.426350 0.500020 -0.590213
C1    C     C_R   0.338941 0.500003 0.500025 0.895820
C2    C     C_R   0.661061 0.499997 0.499975 0.900162
O5    O     O_R   0.499990 0.573690 0.398140 -0.620765
O6    O     O_R   0.500010 0.426310 0.601860 -0.620759
O7    O     O_R   0.500010 0.573690 0.601860 -0.611147
O8    O     O_R   0.499990 0.426310 0.398140 -0.611185
C3    C     C_R   0.498733 0.500004 0.364980 0.864568
C4    C     C_R   0.498769 0.499996 0.635021 0.864786
Zn1   Zn    Zn3+2 0.500000 0.598370 0.500000 1.057230
Zn2   Zn    Zn3+2 0.500000 0.401630 0.500000 1.057225
C5    C     C_R   0.479914 0.580525 0.253494 -0.160855
C6    C     C_R   0.479968 0.419481 0.746519 -0.161082
C7    C     C_R   0.479976 0.580514 0.746501 -0.154578
C8    C     C_R   0.479848 0.419492 0.253518 -0.154278
H1    H     H_    0.485347 0.643513 0.280344 0.175127
H2    H     H_    0.485368 0.356491 0.719665 0.175012
H3    H     H_    0.485382 0.643503 0.719632 0.180293
H4    H     H_    0.485226 0.356501 0.280386 0.180513
C9    C     C_R   0.463689 0.580543 0.182331 -0.133176
C10   C     C_R   0.463752 0.419470 0.817691 -0.133469
C11   C     C_R   0.463760 0.580533 0.817671 -0.133402
C12   C     C_R   0.463623 0.419480 0.182355 -0.133042
H5    H     H_    0.458224 0.643640 0.155669 0.166939
H6    H     H_    0.458259 0.356375 0.844354 0.166809
H7    H     H_    0.458273 0.643630 0.844318 0.167808
H8    H     H_    0.458105 0.356385 0.155713 0.167965
C13   C     C_R   0.455636 0.500013 0.146224 0.070233
C14   C     C_R   0.455729 0.500003 0.853803 0.070443
C15   C     C_R   0.488008 0.500008 0.289469 -0.048252
C16   C     C_R   0.488082 0.499995 0.710540 -0.047859
N1    N     N_R   0.443594 0.422502 0.034663 -0.157839
N2    N     N_R   0.443642 0.577519 0.965365 -0.157881
N3    N     N_R   0.443621 0.422500 0.965384 -0.158157
N4    N     N_R   0.443616 0.577521 0.034644 -0.158118
C17   C     C_R   0.444946 0.500008 0.929530 0.303515
C18   C     C_R   0.444891 0.500013 0.070498 0.303611
C19   C     C_R   0.956031 0.581298 0.500902 0.218076
C20   C     C_R   0.043985 0.418702 0.499113 0.217738
C21   C     C_R   0.043966 0.581303 0.500893 0.218012
C22   C     C_R   0.956050 0.418696 0.499122 0.218350
C23   C     C_R   0.913029 0.499995 0.500012 -0.144749
C24   C     C_R   0.086985 0.500005 0.500002 -0.144705
C25   C     C_1   0.824056 0.499991 0.499999 0.134390
C26   C     C_1   0.175954 0.500009 0.500010 0.133660
C27   C     C_1   0.250712 0.500008 0.500019 -0.088709
C28   C     C_1   0.749295 0.499992 0.499985 -0.089376
C29   C     C_R   0.423130 0.952769 0.497119 0.197222
C30   C     C_R   0.576858 0.047231 0.502876 0.197471
C31   C     C_R   0.576697 0.952760 0.505051 0.197884
C32   C     C_R   0.423290 0.047241 0.494940 0.197648
C33   C     C_R   0.499821 0.905067 0.502313 -0.267139
C34   C     C_R   0.500167 0.094933 0.497682 -0.267125
C35   C     C_1   0.499932 0.807040 0.500845 0.317114
C36   C     C_1   0.500060 0.192960 0.499152 0.317146
N5    N     N_1   0.500000 0.270550 0.500000 -0.072141
N6    N     N_1   0.500000 0.729450 0.500000 -0.072142
Br1   Br    Br    0.105493 0.691881 0.502085 -0.269546
Br2   Br    Br    0.894529 0.308115 0.497932 -0.268197
Br3   Br    Br    0.894485 0.691872 0.502133 -0.270310
Br4   Br    Br    0.105537 0.308130 0.497883 -0.271669
N7    N     N_R   0.344638 0.094656 0.492597 0.247647
O9    O     O_R   0.333306 0.158426 0.447751 -0.334286
O10   O     O_R   0.284283 0.074866 0.535942 -0.262830
N8    N     N_R   0.655350 0.905347 0.507385 0.247793
O11   O     O_R   0.666695 0.841581 0.552232 -0.332522
O12   O     O_R   0.715700 0.925141 0.464035 -0.262095
N9    N     N_R   0.655244 0.094636 0.508665 0.247485
O13   O     O_R   0.673303 0.158333 0.465285 -0.327782
O14   O     O_R   0.708535 0.074910 0.557950 -0.268057
N10   N     N_R   0.344744 0.905362 0.491333 0.247305
O15   O     O_R   0.326690 0.841663 0.534713 -0.329267
O16   O     O_R   0.291454 0.925080 0.442045 -0.269013

loop_
_geom_bond_atom_site_label_1
_geom_bond_atom_site_label_2
_geom_bond_distance
_ccdc_geom_bond_type
C8    C12   1.386595 A    
C29   N10   1.438247 S    
O3    C2    1.271479 A    
C32   N7    1.438294 S    
C22   C23   1.402674 A    
C5    H1    1.083197 S    
Zn2   N5    1.975875 S    
C21   C24   1.402652 A    
N10   O16   1.301306 A    
O1    C1    1.271466 A    
N1    N3    1.326375 A    
C14   C17   1.459840 S    
C13   C18   1.459841 S    
C20   C24   1.402653 A    
C23   C25   1.411048 S    
C31   N8    1.438291 S    
O7    Zn1   1.985275 S    
C6    C16   1.401341 A    
Zn1   N6    1.975875 S    
N8    O11   1.301295 A    
N7    O10   1.301309 A    
C9    H5    1.082861 S    
O3    Zn1   1.970068 S    
C6    H2    1.083195 S    
C11   C14   1.402855 A    
C5    C9    1.386605 A    
C12   C13   1.402855 A    
C6    C10   1.386606 A    
C19   C21   1.394595 A    
C1    C27   1.399252 S    
O2    C2    1.271476 A    
C20   C22   1.394594 A    
C8    C15   1.401357 A    
C25   C28   1.185660 T    
C24   C26   1.410999 S    
C31   C33   1.416408 A    
C11   H7    1.082854 S    
C32   C34   1.416413 A    
N10   O15   1.301303 A    
C3    C15   1.455709 S    
O8    Zn2   1.985277 S    
N9    O14   1.301308 A    
C35   N6    1.169689 T    
C22   Br2   1.931630 S    
C36   N5    1.169690 T    
C7    H3    1.083211 S    
C9    C13   1.402855 A    
O5    C3    1.279593 A    
C10   C14   1.402855 A    
O6    C4    1.279595 A    
C2    C28   1.399353 S    
C26   C27   1.185618 T    
C12   H8    1.082853 S    
C33   C35   1.477916 S    
O1    Zn1   1.970113 S    
C7    C16   1.401355 A    
C19   Br3   1.931643 S    
C4    C16   1.455712 S    
C20   Br4   1.931655 S    
C30   C31   1.424646 A    
C21   Br1   1.931638 S    
O6    Zn2   1.985369 S    
C8    H4    1.083212 S    
N2    C17   1.355151 A    
C10   H6    1.082859 S    
O4    C1    1.271467 A    
C29   C32   1.424665 A    
C7    C11   1.386592 A    
N2    N4    1.326375 A    
N1    C18   1.355151 A    
N9    O13   1.301300 A    
N3    C17   1.355154 A    
C30   N9    1.438246 S    
N4    C18   1.355155 A    
C34   C36   1.477913 S    
C29   C33   1.416396 A    
O4    Zn2   1.970068 S    
O2    Zn2   1.970113 S    
O7    C4    1.279550 A    
O8    C3    1.279549 A    
O5    Zn1   1.985371 S    
N8    O12   1.301311 A    
N7    O9    1.301300 A    
C19   C23   1.402675 A    
C5    C15   1.401342 A    
C30   C34   1.416390 A    
