data_mof_unit_19287.cif
_audit_creation_date              2013-03-05T16:11:14-0500
_audit_creation_method            fapswitch 2.2
_symmetry_space_group_name_H-M    P1
_symmetry_Int_Tables_number       1
_space_group_crystal_system       triclinic
_cell_length_a                    6.952921
_cell_length_b                    20.542584
_cell_length_c                    24.435157
_cell_angle_alpha                 90.22985
_cell_angle_beta                  90.271321
_cell_angle_gamma                 89.299615
_cell_volume                      3489.76985852

loop_
_atom_site_label
_atom_site_type_symbol
_atom_site_description
_atom_site_fract_x
_atom_site_fract_y
_atom_site_fract_z
_atom_type_partial_charge
O1    O     O_R   0.507280 0.423750 0.460310 -0.591085
O2    O     O_R   0.171030 0.555650 0.437630 -0.592862
O3    O     O_R   0.004080 0.576250 0.539690 -0.599428
C1    C     C_R   0.339093 0.575649 0.421770 0.963814
O4    O     O_R   0.177330 0.422980 0.453960 -0.568768
O5    O     O_R   0.010420 0.442640 0.556140 -0.568976
C2    C     C_R   0.346881 0.398921 0.443537 1.063680
O6    O     O_R   0.500930 0.557360 0.443860 -0.597784
O7    O     O_3   0.340310 0.506600 0.533500 -0.265498
V1    V     V_3+5 0.064140 0.498780 0.493780 1.233370
O8    O     O_R   0.680890 0.444350 0.562370 -0.572840
C3    C     C_R   0.850518 0.424341 0.578090 1.011061
O9    O     O_R   0.674590 0.577020 0.546040 -0.588332
C4    C     C_R   0.842099 0.600865 0.557099 0.934499
V2    V     V_3+5 0.564550 0.501220 0.506220 1.234117
O10   O     O_3   0.838250 0.493400 0.466500 -0.273392
C5    C     C_R   0.973681 0.838031 0.910754 -0.129963
C6    C     C_R   0.841012 0.661743 0.589635 -0.130434
C7    C     C_R   0.002585 0.720676 0.908036 -0.111306
C8    C     C_R   0.013190 0.779104 0.936926 -0.160399
C9    C     C_R   0.924767 0.837945 0.854763 -0.098957
C10   C     C_R   0.900632 0.778588 0.825143 0.138168
C11   C     C_R   0.947973 0.719939 0.852606 0.103733
C12   C     C_R   0.837699 0.775385 0.768959 -0.129757
C13   C     C_R   0.858285 0.715033 0.739060 -0.076330
C14   C     C_R   0.886088 0.657033 0.770051 0.337163
C15   C     C_R   0.934084 0.660473 0.825380 -0.237271
C16   C     C_R   0.745766 0.828898 0.742144 0.353999
C17   C     C_R   0.715192 0.826940 0.685718 -0.301972
C18   C     C_R   0.761886 0.771982 0.654770 0.108274
C19   C     C_R   0.836392 0.715208 0.680409 0.140010
C20   C     C_R   0.725027 0.772718 0.598238 -0.115754
C21   C     C_R   0.758528 0.717492 0.566436 -0.159968
C22   C     C_R   0.889537 0.662007 0.645715 -0.170506
H1    H     H_    0.955946 0.615594 0.847924 0.182610
H2    H     H_    0.968820 0.620580 0.661063 0.163596
H3    H     H_    0.717927 0.717972 0.523563 0.115252
H4    H     H_    0.645483 0.868211 0.666009 0.187005
H5    H     H_    0.035623 0.675683 0.929317 0.136863
H6    H     H_    0.052424 0.778361 0.979890 0.116223
H7    H     H_    0.912077 0.884669 0.835007 0.138489
H8    H     H_    0.663347 0.815551 0.578834 0.134817
H9    H     H_    0.649897 0.241150 0.818878 0.160995
C23   C     C_R   0.744366 0.289610 0.745789 0.349319
C24   C     C_R   0.890973 0.294912 0.706428 0.024570
C25   C     C_R   0.055361 0.254836 0.711142 -0.112894
H10   H     H_    0.169647 0.258052 0.681320 0.188288
C26   C     C_R   0.074203 0.210345 0.754403 -0.123158
H11   H     H_    0.202648 0.180139 0.757256 0.151091
C27   C     C_R   0.928439 0.204962 0.793581 0.110415
C28   C     C_R   0.763652 0.244791 0.788930 -0.228025
C29   C     C_1   0.875083 0.340919 0.661287 0.157897
C30   C     C_1   0.947399 0.158841 0.838491 0.045153
C31   C     C_1   0.961059 0.120625 0.876242 -0.261696
C32   C     C_1   0.862806 0.379129 0.623519 -0.154862
H12   H     H_    0.699098 0.701912 0.295963 0.124513
C33   C     C_R   0.596761 0.767119 0.233081 -0.152362
H13   H     H_    0.740662 0.779805 0.220498 0.121441
C34   C     C_R   0.436059 0.794890 0.206563 0.171713
C35   C     C_R   0.251239 0.777337 0.223842 -0.148588
H14   H     H_    0.125123 0.798050 0.203998 0.125271
C36   C     C_R   0.227458 0.732843 0.266883 -0.149599
H15   H     H_    0.083557 0.720153 0.279462 0.121297
C37   C     C_R   0.388161 0.705075 0.293403 0.174268
C38   C     C_R   0.572980 0.722627 0.276123 -0.149831
C39   C     C_1   0.459793 0.840862 0.161632 0.002452
C40   C     C_1   0.364439 0.659087 0.338326 0.001754
C41   C     C_1   0.349074 0.620904 0.376094 -0.254951
C42   C     C_1   0.475190 0.879017 0.123849 -0.229286
C43   C     C_R   0.466008 0.159453 0.092045 -0.254635
C44   C     C_R   0.357376 0.336429 0.413741 -0.344729
C45   C     C_R   0.444905 0.276814 0.096549 0.003257
C46   C     C_R   0.486778 0.220093 0.067498 -0.228257
C47   C     C_R   0.419091 0.155751 0.148320 0.308515
C48   C     C_R   0.404363 0.214331 0.180370 -0.053465
C49   C     C_R   0.393545 0.274478 0.152161 -0.087272
C50   C     C_R   0.401701 0.215942 0.239071 0.052001
C51   C     C_R   0.348482 0.274525 0.267424 -0.052379
C52   C     C_R   0.282401 0.328053 0.235594 0.196465
C53   C     C_R   0.324339 0.330638 0.179448 0.274007
C54   C     C_R   0.463223 0.162035 0.270204 -0.073005
C55   C     C_R   0.453060 0.162179 0.326824 -0.115455
C56   C     C_R   0.402456 0.218693 0.355751 -0.014424
C57   C     C_R   0.362627 0.276840 0.326220 0.148920
C58   C     C_R   0.402803 0.218936 0.413768 0.235210
C59   C     C_R   0.377859 0.277776 0.442665 0.281080
C60   C     C_R   0.354949 0.335807 0.356393 -0.203986
H16   H     H_    0.358434 0.382264 0.336050 0.177701
H17   H     H_    0.497571 0.118135 0.347658 0.185080
H18   H     H_    0.451927 0.322582 0.074909 0.169252
H19   H     H_    0.522962 0.223400 0.024511 0.134586
H20   H     H_    0.526789 0.119280 0.251676 0.174771
O11   O     O_R   0.323320 0.942780 0.056240 -0.588761
O12   O     O_R   0.647300 0.077050 0.046060 -0.584070
O13   O     O_R   0.813840 0.057330 0.943840 -0.592161
C61   C     C_R   0.477751 0.100841 0.056995 1.032898
O14   O     O_R   0.653250 0.944380 0.062400 -0.587981
O15   O     O_R   0.819830 0.923720 0.960300 -0.585749
C62   C     C_R   0.485208 0.924235 0.078151 1.040975
O16   O     O_R   0.317330 0.076390 0.039790 -0.586865
O17   O     O_3   0.483830 0.993470 0.966560 -0.270589
V3    V     V_3+5 0.760140 0.001210 0.006210 1.226235
O18   O     O_R   0.149290 0.922840 0.953850 -0.586008
C63   C     C_R   0.981147 0.899209 0.942694 0.931439
O19   O     O_R   0.143340 0.055500 0.937510 -0.592636
C64   C     C_R   0.973681 0.075488 0.921762 0.979858
V4    V     V_3+5 0.259690 0.998600 0.993650 1.226603
O20   O     O_3   0.986130 0.006520 0.033440 -0.258934
Br1   Br    Br    0.516017 0.342790 0.742153 -0.495372
N1    N     N_R   0.279871 0.389009 0.149492 0.257513
O21   O     O_R   0.342992 0.444858 0.166750 -0.317744
O22   O     O_R   0.161737 0.387346 0.108043 -0.361972
N2    N     N_R   0.380568 0.278313 0.501447 0.249005
O23   O     O_R   0.238920 0.304704 0.528552 -0.391924
O24   O     O_R   0.531468 0.257118 0.527923 -0.334514
N3    N     N_R   0.359109 0.094319 0.169952 0.211059
O25   O     O_R   0.465499 0.042301 0.163653 -0.442953
O26   O     O_R   0.195253 0.090037 0.195151 -0.376304
Br2   Br    Br    0.086715 0.388318 0.261863 -0.458042
Br3   Br    Br    0.428257 0.138996 0.454823 -0.402619
Br4   Br    Br    0.809052 0.571371 0.746605 -0.510220
N4    N     N_R   0.652594 0.880670 0.771983 0.223809
O27   O     O_R   0.539020 0.867058 0.812461 -0.399541
O28   O     O_R   0.654460 0.939883 0.753250 -0.388023

loop_
_geom_bond_atom_site_label_1
_geom_bond_atom_site_label_2
_geom_bond_distance
_ccdc_geom_bond_type
O17   V4    1.697990 S    
C18   C20   1.403853 A    
C60   H16   1.078395 S    
C13   C19   1.440510 A    
O17   V3    2.154860 S    
C4    C6    1.479170 S    
C43   C61   1.476443 S    
C7    C8    1.392580 A    
C57   C60   1.416109 A    
C45   C49   1.407806 A    
C54   C55   1.385648 A    
C50   C51   1.431791 A    
O19   V4    1.970213 S    
C14   C15   1.392739 A    
C17   C18   1.392255 A    
C55   H17   1.081167 S    
C59   N2    1.436374 S    
C16   C17   1.394558 A    
C5    C63   1.478035 S    
C34   C39   1.462296 S    
O5    C3    1.297129 A    
C18   C19   1.417423 A    
C8    H6    1.083560 S    
C16   N4    1.436604 S    
C33   C34   1.405100 A    
C39   C42   1.219413 T    
V2    O10   2.144301 S    
C5    C8    1.395080 A    
N3    O25   1.301221 A    
C35   C36   1.407812 A    
C48   C50   1.434826 A    
N1    O21   1.301287 A    
C36   C37   1.405115 A    
C54   H20   1.077455 S    
O8    V2    1.969992 S    
C52   Br2   1.938182 S    
C17   H4    1.084744 S    
C43   C47   1.417300 A    
V4    O20   2.144349 S    
V3    O20   1.708004 S    
O1    V2    1.986612 S    
C14   Br4   1.929706 S    
C11   C15   1.392814 A    
O7    V1    2.154893 S    
O11   C62   1.297764 A    
C22   H2    1.076052 S    
O14   V3    1.960648 S    
C29   C32   1.215934 T    
C1    O6    1.297775 A    
C23   Br1   1.918117 S    
C26   C27   1.403079 A    
C34   C35   1.406160 A    
O9    C4    1.295896 A    
O14   C62   1.304554 A    
C25   C26   1.404784 A    
C27   C30   1.457118 S    
C47   C48   1.436010 A    
C31   C64   1.452590 S    
C40   C41   1.219477 T    
C37   C40   1.462344 S    
C49   C53   1.410816 A    
C12   C13   1.442464 A    
C46   H19   1.083842 S    
C1    C41   1.457874 S    
C51   C52   1.419964 A    
C24   C29   1.458343 S    
C15   H1    1.084607 S    
C13   C14   1.425014 A    
O15   V3    1.984597 S    
C21   H3    1.083728 S    
C35   H14   1.083311 S    
C58   Br3   1.933621 S    
O2    C1    1.304505 A    
C48   C49   1.418262 A    
C36   H15   1.083252 S    
O13   C64   1.297197 A    
C51   C57   1.440229 A    
C44   C59   1.404706 A    
C45   H18   1.082280 S    
C56   C57   1.421677 A    
C50   C54   1.407168 A    
C47   N3    1.437443 S    
C43   C46   1.394152 A    
C27   C28   1.404168 A    
C19   C22   1.426636 A    
O12   C61   1.299158 A    
C6    C22   1.409698 A    
C58   C59   1.406731 A    
O3    C4    1.301520 A    
C7    H5    1.083973 S    
C44   C60   1.401348 A    
C42   C62   1.457812 S    
C23   C28   1.407242 A    
C26   H11   1.083365 S    
C56   C58   1.417617 A    
O6    V2    1.960311 S    
O9    V2    1.991655 S    
C9    H7    1.078584 S    
N4    O28   1.301631 A    
O2    V1    1.960458 S    
C23   C24   1.410253 A    
C7    C11   1.405015 A    
O4    C2    1.298638 A    
N2    O23   1.301079 A    
C25   H10   1.083495 S    
O16   V4    1.995567 S    
O1    C2    1.296069 A    
C12   C16   1.425133 A    
C33   C38   1.407796 A    
C45   C46   1.390451 A    
O5    V1    1.954847 S    
O8    C3    1.301016 A    
O13   V3    1.954768 S    
C30   C31   1.216316 T    
O19   C64   1.301270 A    
C20   C21   1.390449 A    
O7    V2    1.700725 S    
O4    V1    1.988942 S    
O3    V1    1.984789 S    
V1    O10   1.707942 S    
O11   V4    1.960851 S    
C2    C44   1.474497 S    
H9    C28   1.083531 S    
C33   H13   1.083255 S    
O15   C63   1.298330 A    
C61   O16   1.296415 A    
C37   C38   1.406166 A    
N3    O26   1.301684 A    
C10   C12   1.440428 A    
C6    C21   1.395664 A    
N1    O22   1.301588 A    
C3    C32   1.451759 S    
C52   C53   1.405271 A    
C24   C25   1.404964 A    
O12   V3    1.988996 S    
C55   C56   1.398937 A    
C53   N1    1.437025 S    
O18   C63   1.298659 A    
C20   H8    1.084051 S    
C10   C11   1.415939 A    
O18   V4    1.991753 S    
N4    O27   1.301938 A    
C9    C10   1.426741 A    
H12   C38   1.083310 S    
N2    O24   1.301384 A    
C5    C9    1.408212 A    
