data_mof_unit_65361.cif
_audit_creation_date              2012-12-10T18:07:03-0500
_audit_creation_method            fapswitch 2.2
_symmetry_space_group_name_H-M    P1
_symmetry_Int_Tables_number       1
_space_group_crystal_system       triclinic
_cell_length_a                    10.763581
_cell_length_b                    12.746199
_cell_length_c                    13.908798
_cell_angle_alpha                 97.980451
_cell_angle_beta                  90.188476
_cell_angle_gamma                 93.139091
_cell_volume                      1886.78395121

loop_
_atom_site_label
_atom_site_type_symbol
_atom_type_description
_atom_site_fract_x
_atom_site_fract_y
_atom_site_fract_z
_atom_type_partial_charge
C1    C     C_R   0.498778 0.483524 0.315862 0.822453
C2    C     C_3   0.878514 0.501457 0.499468 -0.067767
C3    C     C_3   0.924839 0.453317 0.589604 0.160331
C4    C     C_3   0.936590 0.617673 0.502519 0.195321
C5    C     C_1   0.502309 0.525741 0.787342 -0.066230
C6    C     C_2   0.503613 0.540520 0.978029 -0.231527
C7    C     C_2   0.497712 0.453344 0.021741 0.411985
C8    C     C_1   0.498113 0.464307 0.125576 -0.011680
C9    C     C_1   0.503026 0.533382 0.874285 0.138292
C10   C     C_1   0.498439 0.473821 0.212610 -0.135412
C11   C     C_2   0.464454 0.028152 0.473621 -0.238334
C12   C     C_R   0.259503 0.500748 0.501431 0.805203
C13   C     C_2   0.535525 0.971841 0.526439 -0.226421
C14   C     C_1   0.525549 0.854644 0.519136 0.290290
C15   C     C_1   0.474445 0.145353 0.480894 0.249645
C16   C     C_R   0.501398 0.516452 0.684129 0.851123
C17   C     C_R   0.740565 0.499880 0.498643 0.855643
C18   C     C_3   0.068565 0.439680 0.405818 -0.449366
C19   C     C_3   0.925021 0.432745 0.407192 -0.424997
C20   C     C_3   0.068281 0.449140 0.588094 -0.353148
C21   C     C_3   0.079301 0.618733 0.511071 0.186791
C22   C     C_3   0.121958 0.502536 0.502305 -0.044292
Cu1   Cu    Cu3+1 0.491980 0.395330 0.493960 1.013949
Cu2   Cu    Cu3+1 0.508020 0.604670 0.506040 1.067414
H1    H     H_    0.102386 0.357938 0.394536 0.208575
H2    H     H_    0.899339 0.668769 0.566038 0.215864
H3    H     H_    0.110714 0.487743 0.658023 0.240883
H4    H     H_    0.508776 0.618900 0.020610 0.145383
H5    H     H_    0.603940 0.014222 0.577165 0.179931
H6    H     H_    0.396038 0.985762 0.422900 0.174885
H7    H     H_    0.891138 0.348527 0.406405 0.190346
H8    H     H_    0.883984 0.370771 0.586734 0.150190
N1    N     N_1   0.479930 0.238040 0.484880 -0.154330
N2    N     N_1   0.520070 0.761960 0.515120 -0.134681
O1    O     O_R   0.492240 0.399110 0.356330 -0.570572
O2    O     O_R   0.505790 0.575900 0.366540 -0.564860
O3    O     O_R   0.310920 0.411610 0.494880 -0.588979
O4    O     O_R   0.324460 0.588390 0.505090 -0.553891
O5    O     O_R   0.494210 0.424100 0.633460 -0.559005
O6    O     O_R   0.507760 0.600890 0.643670 -0.554344
O7    O     O_R   0.675540 0.411610 0.494910 -0.592704
O8    O     O_R   0.689080 0.588390 0.505120 -0.537317
Cl1   Cl    Cl    0.874721 0.524543 0.702093 -0.573944
Cl2   Cl    Cl    0.489198 0.324302 0.956191 -0.531818
H9    H     H_    0.101120 0.479497 0.343383 0.197209
H10   H     H_    0.887686 0.458836 0.340274 0.230641
H11   H     H_    0.093162 0.364738 0.579736 0.166066
Cl3   Cl    Cl    0.131228 0.698759 0.622564 -0.546476
H12   H     H_    0.122324 0.657668 0.451485 0.172066
Cl4   Cl    Cl    0.894255 0.677384 0.397729 -0.608385

loop_
_geom_bond_atom_site_label_1
_geom_bond_atom_site_label_2
_ccdc_geom_bond_type
C14   N2    T    
C4    H2    S    
Cu1   Cu2   S    
C5    C9    T    
C6    C7    D    
C20   H3    S    
C13   C14   S    
Cu2   O8    S    
Cu2   O4    S    
Cu1   O7    S    
C21   Cl3   S    
C19   H7    S    
C6    C9    S    
C21   H12   S    
C2    C3    S    
C19   H10   S    
C7    C8    S    
C18   C22   S    
C7    Cl2   S    
C2    C17   S    
C4    C21   S    
C11   C13   D    
C3    Cl1   S    
Cu2   O2    S    
C18   H1    S    
C16   O6    A    
Cu1   O5    S    
C2    C4    S    
C21   C22   S    
Cu2   O6    S    
C20   C22   S    
Cu1   O1    S    
C1    O2    A    
C12   O4    A    
C3    H8    S    
C17   O7    A    
C20   H11   S    
C16   O5    A    
C18   H9    S    
C12   C22   S    
C3    C20   S    
C1    O1    A    
C8    C10   T    
C18   C19   S    
C13   H5    S    
C12   O3    A    
C17   O8    A    
C5    C16   S    
C2    C19   S    
Cu1   O3    S    
C11   C15   S    
C15   N1    T    
C6    H4    S    
C1    C10   S    
C11   H6    S    
C4    Cl4   S    
Cu1   N1    S    
Cu2   N2    S    
