data_mof_unit_46929.cif
_audit_creation_date              2012-10-26T20:48:45-0400
_audit_creation_method            fapswitch 2.2
_symmetry_space_group_name_H-M    P1
_symmetry_Int_Tables_number       1
_space_group_crystal_system       triclinic
_cell_length_a                    15.175508
_cell_length_b                    13.93558
_cell_length_c                    9.105287
_cell_angle_alpha                 90.611532
_cell_angle_beta                  91.769963
_cell_angle_gamma                 91.213013
_cell_volume                      1924.10795036

loop_
_atom_site_label
_atom_site_type_symbol
_atom_type_description
_atom_site_fract_x
_atom_site_fract_y
_atom_site_fract_z
_atom_type_partial_charge
C1    C     C_R   0.331396 0.499181 0.521792 0.564009
C2    C     C_R   0.547756 0.894250 0.604081 -0.142361
C3    C     C_R   0.498995 0.499683 0.220595 0.563553
C4    C     C_R   0.499330 0.500257 0.779344 0.586137
C5    C     C_R   0.497917 0.054144 0.500681 -0.038963
C6    C     C_R   0.498038 0.944938 0.499594 -0.053420
C7    C     C_1   0.498853 0.499549 0.065413 -0.009882
C8    C     C_1   0.498968 0.500311 0.934463 -0.000396
C9    C     C_R   0.098045 0.579498 0.529149 0.236198
C10   C     C_R   0.907838 0.437790 0.417757 0.230513
C11   C     C_R   0.908892 0.549517 0.627148 0.228775
C12   C     C_R   0.670640 0.500569 0.500439 0.611710
C13   C     C_R   0.096256 0.406856 0.575848 0.233127
C14   C     C_R   0.188650 0.583587 0.558665 0.204771
C15   C     C_R   0.814899 0.439802 0.408403 0.191737
C16   C     C_R   0.816992 0.555619 0.615208 0.147680
C17   C     C_R   0.189367 0.409444 0.587201 0.209147
C18   C     C_R   0.236223 0.497195 0.558703 -0.114192
C19   C     C_R   0.768752 0.500238 0.506313 -0.112555
C20   C     C_R   0.051313 0.491748 0.539310 -0.048210
C21   C     C_R   0.954176 0.492956 0.526549 -0.031329
C22   C     C_3   0.667444 0.246074 0.734273 -0.039167
C23   C     C_R   0.535744 0.210246 0.617066 0.408637
C24   C     C_3   0.713128 0.321689 0.832871 -0.303904
C25   C     C_3   0.391963 0.765497 0.153953 -0.022486
C26   C     C_3   0.298488 0.797324 0.116852 -0.351213
C27   C     C_3   0.349501 0.246664 0.228647 -0.022980
C28   C     C_3   0.327441 0.271084 0.069858 -0.337203
C29   C     C_3   0.551143 0.777644 0.864276 0.010709
C30   C     C_3   0.627746 0.818441 0.959151 -0.330566
C31   C     C_3   0.049121 0.681648 0.352305 0.004608
C32   C     C_3   0.025293 0.785830 0.328300 -0.323728
C33   C     C_3   0.995579 0.421575 0.218855 0.028426
C34   C     C_R   0.451414 0.787312 0.393759 0.418202
C35   C     C_3   0.047115 0.349809 0.130736 -0.353152
C36   C     C_3   0.982546 0.554949 0.851239 0.033331
C37   C     C_3   0.028222 0.622737 0.962833 -0.325728
C38   C     C_3   0.001638 0.311437 0.708893 0.046582
C39   C     C_3   0.967469 0.208655 0.723246 -0.327790
C40   C     C_R   0.465841 0.206956 0.380793 0.423250
C41   C     C_R   0.541922 0.793338 0.610886 0.409380
C42   C     C_R   0.530128 0.109072 0.622371 -0.131911
C43   C     C_R   0.446870 0.889268 0.397132 -0.129520
C44   C     C_R   0.468081 0.105763 0.378045 -0.114418
Cu1   Cu    Cu3+1 0.500000 0.596430 0.500000 1.156724
Cu2   Cu    Cu3+1 0.500000 0.403570 0.500000 1.171730
H1    H     H_    0.552208 0.075418 0.722704 0.104085
H2    H     H_    0.405867 0.704503 0.079533 0.150796
H3    H     H_    0.440756 0.823461 0.129227 0.077326
H4    H     H_    0.279866 0.857011 0.190433 0.158381
H5    H     H_    0.294185 0.821940 0.001313 0.128577
H6    H     H_    0.251156 0.736300 0.129754 0.172326
H7    H     H_    0.317490 0.300486 0.298471 0.196019
H8    H     H_    0.321276 0.173821 0.250066 0.130614
H9    H     H_    0.357374 0.218250 0.995147 0.192401
H10   H     H_    0.254790 0.269265 0.051067 0.131302
H11   H     H_    0.353120 0.344193 0.045326 0.187741
H12   H     H_    0.401642 0.924024 0.322403 0.106521
H13   H     H_    0.523917 0.714314 0.921310 0.154098
H14   H     H_    0.497295 0.830926 0.857826 0.061860
H15   H     H_    0.659982 0.879815 0.903931 0.151167
H16   H     H_    0.603288 0.843530 0.066328 0.082138
H17   H     H_    0.677124 0.762191 0.979961 0.232164
H18   H     H_    0.996588 0.635397 0.298933 0.104614
H19   H     H_    0.113188 0.669191 0.298901 0.127468
H20   H     H_    0.076581 0.834011 0.380851 0.201111
H21   H     H_    0.021066 0.800835 0.208832 0.093216
H22   H     H_    0.960596 0.800422 0.376824 0.165593
H23   H     H_    0.447951 0.069064 0.277004 0.102705
H24   H     H_    0.043825 0.476359 0.261887 0.087185
H25   H     H_    0.946924 0.456887 0.144676 0.163499
H26   H     H_    0.001422 0.296623 0.075460 0.165030
H27   H     H_    0.085412 0.388198 0.046740 0.084669
H28   H     H_    0.093919 0.311625 0.204624 0.181845
H29   H     H_    0.030975 0.500199 0.822151 0.088865
H30   H     H_    0.925085 0.519150 0.902661 0.147402
H31   H     H_    0.980235 0.673530 0.007585 0.179697
H32   H     H_    0.057911 0.581259 0.054080 0.036088
H33   H     H_    0.081863 0.663953 0.910411 0.215138
H34   H     H_    0.590173 0.931378 0.683948 0.109669
H35   H     H_    0.943121 0.357408 0.704295 0.088032
H36   H     H_    0.041935 0.330850 0.808941 0.149675
H37   H     H_    0.023156 0.158315 0.728101 0.200500
H38   H     H_    0.929658 0.201683 0.825241 0.082188
H39   H     H_    0.923326 0.189215 0.627453 0.166429
H40   H     H_    0.350909 0.746879 0.743436 0.339865
H41   H     H_    0.834936 0.258464 0.171358 0.366533
H42   H     H_    0.798888 0.760379 0.600967 0.342307
H43   H     H_    0.211631 0.184448 0.792656 0.357889
H44   H     H_    0.694941 0.252624 0.622621 0.170073
H45   H     H_    0.682730 0.174091 0.778845 0.117977
H46   H     H_    0.687679 0.316390 0.945446 0.247258
H47   H     H_    0.785389 0.310552 0.836607 0.107280
H48   H     H_    0.700172 0.394457 0.790114 0.181852
N1    N     N_R   0.500000 0.258690 0.500000 -0.182501
N2    N     N_R   0.500000 0.741310 0.500000 -0.209525
O1    O     O_R   0.371460 0.581430 0.500010 -0.414621
O2    O     O_3   0.397230 0.731294 0.299706 -0.485337
O3    O     O_3   0.441794 0.252871 0.252617 -0.526077
O4    O     O_3   0.581825 0.745970 0.726707 -0.429778
O5    O     O_3   0.053589 0.663915 0.504530 -0.454139
O6    O     O_3   0.952505 0.372949 0.332542 -0.480971
O7    O     O_3   0.955692 0.608269 0.727271 -0.452160
O8    O     O_3   0.051519 0.318798 0.580416 -0.457386
O9    O     O_2   0.260653 0.753028 0.485868 -0.270579
O10   O     O_2   0.168706 0.752045 0.700500 -0.254796
O11   O     O_3   0.324132 0.681796 0.730406 -0.538071
O12   O     O_R   0.628540 0.418570 0.499990 -0.465686
O13   O     O_2   0.708668 0.287966 0.336825 -0.303349
O14   O     O_2   0.691710 0.432679 0.190510 -0.278254
O15   O     O_3   0.824170 0.325504 0.141738 -0.542969
O16   O     O_2   0.682425 0.592661 0.790325 -0.265796
O17   O     O_2   0.821515 0.670524 0.862800 -0.274995
O18   O     O_3   0.741003 0.734583 0.631443 -0.472446
O19   O     O_2   0.265816 0.240498 0.534000 -0.310370
O20   O     O_2   0.326851 0.335954 0.742319 -0.294500
O21   O     O_3   0.180112 0.244788 0.773526 -0.549101
O22   O     O_R   0.628540 0.581430 0.499990 -0.429043
O23   O     O_R   0.371460 0.418570 0.500010 -0.476573
O24   O     O_R   0.500000 0.581420 0.288390 -0.503407
O25   O     O_R   0.500000 0.418580 0.711610 -0.436448
O26   O     O_R   0.500000 0.581420 0.711610 -0.456462
O27   O     O_R   0.500000 0.418580 0.288390 -0.428414
O28   O     O_3   0.575568 0.260686 0.733141 -0.520196
S1    S     S_3+6 0.235457 0.696436 0.617952 0.038325
S2    S     S_3+6 0.757342 0.370310 0.268244 0.019391
S3    S     S_3+6 0.764800 0.637953 0.732891 0.047418
S4    S     S_3+6 0.243801 0.306360 0.658350 0.015780

loop_
_geom_bond_atom_site_label_1
_geom_bond_atom_site_label_2
_ccdc_geom_bond_type
Cu1   O22   S    
C5    C42   A    
C35   H28   S    
C24   H48   S    
C14   C18   A    
H40   O11   S    
C4    C8    S    
C40   O3    S    
C28   H10   S    
C27   H8    S    
C7    C8    T    
C28   H11   S    
C15   C19   A    
C37   H33   S    
O10   S1    D    
C27   O3    S    
C1    C18   S    
C23   C42   A    
C36   O7    S    
C31   O5    S    
C36   C37   S    
C34   N2    A    
C39   H38   S    
C3    C7    S    
C10   C15   A    
C26   H4    S    
C38   C39   S    
C41   N2    A    
H41   O15   S    
C2    C41   A    
C1    O23   A    
O16   S3    D    
C38   O8    S    
C36   H30   S    
C43   H12   S    
C34   O2    S    
Cu2   N1    S    
C29   H13   S    
C15   S2    S    
Cu2   O12   S    
C4    O25   A    
C22   H45   S    
Cu2   O25   S    
C29   O4    S    
C32   H22   S    
C30   H17   S    
C38   H36   S    
C2    C6    A    
C24   H46   S    
O21   S4    S    
C28   H9    S    
C3    O27   A    
C10   C21   A    
C33   O6    S    
C10   O6    S    
O11   S1    S    
C1    O1    A    
C12   O12   A    
C25   C26   S    
Cu1   Cu2   S    
C37   H31   S    
C11   C21   A    
O19   S4    D    
C9    C14   A    
C29   C30   S    
C36   H29   S    
C26   H6    S    
C11   C16   A    
O13   S2    D    
C9    C20   A    
C31   C32   S    
C29   H14   S    
O15   S2    S    
C17   C18   A    
C22   H44   S    
C41   O4    S    
C4    O26   A    
C44   H23   S    
C13   O8    S    
C14   S1    S    
C25   H2    S    
C33   H24   S    
O14   S2    D    
C32   H21   S    
C12   O22   A    
Cu1   O24   S    
C5    C44   A    
H43   O21   S    
C35   H26   S    
C6    C43   A    
C30   H16   S    
C38   H35   S    
C22   C24   S    
Cu2   O27   S    
C39   H39   S    
C40   N1    A    
C32   H20   S    
C31   H19   S    
C35   H27   S    
C13   C20   A    
C31   H18   S    
C34   C43   A    
C27   H7    S    
C17   S4    S    
C22   O28   S    
C23   O28   S    
O17   S3    D    
O9    S1    D    
Cu1   O26   S    
C37   H32   S    
C13   C17   A    
C39   H37   S    
Cu1   O1    S    
C26   H5    S    
O18   S3    S    
C5    C6    S    
C16   C19   A    
C12   C19   S    
C33   C35   S    
C23   N1    A    
Cu2   O23   S    
C42   H1    S    
H42   O18   S    
C16   S3    S    
C25   H3    S    
C2    H34   S    
C3    O24   A    
C33   H25   S    
C25   O2    S    
C40   C44   A    
C20   C21   S    
C9    O5    S    
O20   S4    D    
C30   H15   S    
C27   C28   S    
C11   O7    S    
C24   H47   S    
Cu1   N2    S    
