data_mof_unit_5473.cif
_audit_creation_date              2012-12-10T17:23:42-0500
_audit_creation_method            fapswitch 2.2
_symmetry_space_group_name_H-M    P1
_symmetry_Int_Tables_number       1
_space_group_crystal_system       triclinic
_cell_length_a                    9.630044
_cell_length_b                    10.774246
_cell_length_c                    17.363495
_cell_angle_alpha                 93.851394
_cell_angle_beta                  86.083275
_cell_angle_gamma                 90.197331
_cell_volume                      1793.30671426

loop_
_atom_site_label
_atom_site_type_symbol
_atom_type_description
_atom_site_fract_x
_atom_site_fract_y
_atom_site_fract_z
_atom_type_partial_charge
C1    C     C_R   0.499835 0.737411 0.502656 0.780055
C2    C     C_R   0.343572 0.495916 0.775948 -0.165212
C3    C     C_R   0.412156 0.513188 0.147276 -0.120756
C4    C     C_R   0.405243 0.512575 0.227247 -0.128946
C5    C     C_R   0.656428 0.490813 0.223620 -0.193053
C6    C     C_R   0.663219 0.491062 0.143312 -0.143056
C7    C     C_R   0.541100 0.500324 0.104675 0.179019
C8    C     C_2   0.448243 0.458382 0.977091 -0.202861
C9    C     C_2   0.551624 0.499632 0.020048 -0.205909
C10   C     C_R   0.527124 0.500927 0.266021 -0.034498
C11   C     C_R   0.339308 0.883342 0.625950 -0.237310
C12   C     C_R   0.481853 0.498046 0.649557 0.759882
C13   C     C_R   0.260633 0.954022 0.683330 0.434684
C14   C     C_R   0.259985 0.083206 0.683101 -0.157965
C15   C     C_R   0.337779 0.142256 0.625575 -0.250332
C16   C     C_R   0.416394 0.072397 0.566030 0.091645
C17   C     C_R   0.417041 0.941146 0.566213 0.044372
C18   C     C_R   0.499566 0.871825 0.508029 -0.071571
C19   C     C_R   0.584289 0.931188 0.453423 -0.176033
C20   C     C_R   0.583817 0.059209 0.453275 -0.152537
C21   C     C_R   0.498596 0.129776 0.507722 -0.066223
C22   C     C_R   0.862897 0.335912 0.396274 -0.236112
C23   C     C_R   0.499512 0.263078 0.502485 0.832488
C24   C     C_R   0.934706 0.254642 0.343609 -0.386774
C25   C     C_R   0.076895 0.250910 0.341155 0.366623
C26   C     C_R   0.149403 0.328706 0.391798 0.548400
C27   C     C_R   0.079676 0.417180 0.447675 0.014321
C28   C     C_R   0.929806 0.418630 0.448540 0.162458
C29   C     C_R   0.920715 0.577307 0.548939 -0.033178
C30   C     C_R   0.068250 0.577299 0.548946 -0.038126
C31   C     C_R   0.518138 0.500215 0.350336 0.843478
C32   C     C_R   0.472633 0.487361 0.733194 -0.033077
C33   C     C_R   0.593466 0.463651 0.770526 -0.180873
C34   C     C_R   0.586025 0.450994 0.849609 -0.132115
C35   C     C_R   0.457749 0.463735 0.892817 0.177830
C36   C     C_R   0.336295 0.483684 0.855423 -0.134632
Cu1   Cu    Cu3+1 0.359340 0.500010 0.500010 0.998915
Cu2   Cu    Cu3+1 0.640660 0.499990 0.499990 0.954111
H1    H     H_    0.693916 0.453712 0.738642 0.162382
H2    H     H_    0.763631 0.482526 0.111219 0.135789
H3    H     H_    0.648711 0.877837 0.409518 0.157162
H4    H     H_    0.340760 0.783653 0.629865 0.164149
H5    H     H_    0.200508 0.138362 0.728181 0.171761
H6    H     H_    0.337362 0.242718 0.629380 0.162850
H7    H     H_    0.648027 0.103443 0.409290 0.148952
H8    H     H_    0.861214 0.640917 0.589195 0.145516
H9    H     H_    0.754117 0.328876 0.392908 0.236507
H10   H     H_    0.878591 0.193473 0.304519 0.213390
H11   H     H_    0.304277 0.522220 0.258613 0.162314
H12   H     H_    0.118454 0.640856 0.589185 0.149518
H13   H     H_    0.751998 0.482149 0.252304 0.164790
H14   H     H_    0.647800 0.533752 0.992744 0.151969
H15   H     H_    0.236368 0.492426 0.888004 0.137624
H16   H     H_    0.316612 0.525914 0.119415 0.132228
H17   H     H_    0.248682 0.512834 0.748215 0.166913
H18   H     H_    0.351743 0.424527 0.004107 0.154575
H19   H     H_    0.680631 0.430318 0.876493 0.133499
N1    N     N_R   0.852190 0.498790 0.499250 -0.181041
N2    N     N_R   0.148060 0.498710 0.499220 -0.180934
O1    O     O_R   0.381190 0.680360 0.500010 -0.582598
O2    O     O_R   0.618760 0.680340 0.500000 -0.577051
O3    O     O_R   0.367440 0.500030 0.613600 -0.605843
O4    O     O_R   0.605010 0.500010 0.613590 -0.584965
O5    O     O_R   0.381240 0.319660 0.500000 -0.508180
O6    O     O_R   0.618810 0.319640 0.499990 -0.610280
O7    O     O_R   0.394990 0.499990 0.386410 -0.517165
O8    O     O_R   0.632560 0.499970 0.386400 -0.617853
Cl1   Cl    Cl    0.164790 0.880074 0.756681 -0.634990
Cl2   Cl    Cl    0.165577 0.145177 0.273342 -0.537820
F1    F     F_    0.286292 0.309155 0.381882 -0.620300

loop_
_geom_bond_atom_site_label_1
_geom_bond_atom_site_label_2
_ccdc_geom_bond_type
C31   O7    A    
C24   C25   A    
C16   C21   A    
C29   C30   A    
C28   N1    A    
C34   H19   S    
C12   O3    A    
C29   H8    S    
C19   C20   A    
Cu2   O6    S    
C4    H11   S    
Cu1   O5    S    
Cu2   O2    S    
C32   C33   A    
C8    H18   S    
C20   H7    S    
C17   C18   A    
C30   H12   S    
C5    C10   A    
Cu2   O8    S    
C27   N2    A    
C13   C14   A    
C12   C32   S    
C31   O8    A    
C13   Cl1   S    
C11   C13   A    
C23   O6    A    
C1    C18   S    
Cu1   N2    S    
C9    H14   S    
C10   C31   S    
C5    H13   S    
C23   O5    A    
C25   C26   A    
Cu1   Cu2   S    
C15   H6    S    
C33   C34   A    
C6    C7    A    
C3    C7    A    
C2    H17   S    
C21   C23   S    
Cu1   O7    S    
C26   C27   A    
C5    C6    A    
C26   F1    S    
C3    H16   S    
C22   C24   A    
Cu1   O1    S    
C25   Cl2   S    
C4    C10   A    
C15   C16   A    
C24   H10   S    
C19   H3    S    
C6    H2    S    
C18   C19   A    
C29   N1    A    
C11   H4    S    
C2    C32   A    
C34   C35   A    
C1    O1    A    
C2    C36   A    
C27   C28   A    
C7    C9    S    
C30   N2    A    
Cu1   O3    S    
C14   C15   A    
C8    C9    D    
C22   C28   A    
C36   H15   S    
C20   C21   A    
Cu2   O4    S    
Cu2   N1    S    
C33   H1    S    
C22   H9    S    
C11   C17   A    
C3    C4    A    
C35   C36   A    
C16   C17   A    
C1    O2    A    
C14   H5    S    
C8    C35   S    
C12   O4    A    
