data_mof_unit_43028.cif
_audit_creation_date              2012-10-26T18:13:14-0400
_audit_creation_method            fapswitch 2.2
_symmetry_space_group_name_H-M    P1
_symmetry_Int_Tables_number       1
_space_group_crystal_system       triclinic
_cell_length_a                    18.859547
_cell_length_b                    18.878646
_cell_length_c                    19.046963
_cell_angle_alpha                 108.631359
_cell_angle_beta                  109.763855
_cell_angle_gamma                 109.922149
_cell_volume                      5226.03089989

loop_
_atom_site_label
_atom_site_type_symbol
_atom_type_description
_atom_site_fract_x
_atom_site_fract_y
_atom_site_fract_z
_atom_type_partial_charge
C1    C     C_R   0.622058 0.502967 0.618644 0.526690
C2    C     C_3   0.836530 0.745531 0.515955 -0.290436
C3    C     C_3   0.202193 0.151547 0.430202 -0.181377
C4    C     C_3   0.781654 0.844681 0.558112 -0.185672
C5    C     C_3   0.767093 0.598592 0.753785 0.098492
C6    C     C_3   0.232694 0.399126 0.242781 0.119393
C7    C     C_3   0.837100 0.596505 0.823681 0.094608
C8    C     C_3   0.158121 0.399711 0.174569 0.097300
C9    C     C_3   0.648560 0.458285 0.727312 -0.203031
C10   C     C_3   0.349766 0.537084 0.266263 -0.199665
C11   C     C_3   0.733403 0.456413 0.648791 -0.261413
C12   C     C_R   0.378695 0.497610 0.380574 0.523566
C13   C     C_3   0.268069 0.543448 0.347556 -0.247015
C14   C     C_3   0.691191 0.504507 0.686626 -0.085498
C15   C     C_3   0.309090 0.493979 0.310060 -0.091189
C16   C     C_R   0.380054 0.380221 0.499300 0.526545
C17   C     C_R   0.618220 0.619129 0.499347 0.538530
C18   C     C_3   0.809235 0.499974 0.808131 -0.063096
C19   C     C_3   0.188605 0.495699 0.188042 -0.063683
C20   C     C_3   0.715504 0.456088 0.799534 0.093237
C21   C     C_3   0.279919 0.534554 0.192003 0.089049
C22   C     C_3   0.794320 0.444348 0.716539 0.006902
C23   C     C_3   0.276344 0.217290 0.428110 0.120911
C24   C     C_3   0.205922 0.553508 0.278966 0.003088
C25   C     C_3   0.999517 0.307906 0.813849 -0.125857
C26   C     C_3   0.009272 0.699782 0.188561 -0.123198
C27   C     C_R   0.005743 0.125501 0.620006 0.636108
C28   C     C_R   0.007609 0.887835 0.381211 0.606441
C29   C     C_R   0.120718 0.123786 0.504544 0.536707
C30   C     C_R   0.878571 0.877924 0.497689 0.631950
C31   C     C_R   0.003558 0.622104 0.121862 0.585197
C32   C     C_R   0.000799 0.379274 0.881572 0.564833
C33   C     C_R   0.879202 0.499618 0.878881 0.593118
C34   C     C_3   0.712248 0.779239 0.563501 0.098532
C35   C     C_R   0.120179 0.498194 0.118957 0.565426
C36   C     C_3   0.934501 0.217393 0.652035 0.077688
C37   C     C_3   0.105691 0.832070 0.342350 0.029006
C38   C     C_3   0.991978 0.162949 0.756274 0.070281
C39   C     C_3   0.988161 0.832381 0.228809 0.067424
C40   C     C_3   0.092501 0.343666 0.822877 -0.241965
C41   C     C_3   0.933870 0.661670 0.204627 -0.254018
C42   C     C_3   0.967035 0.217702 0.815152 0.318589
C43   C     C_3   0.006426 0.773598 0.163194 0.330779
C44   C     C_3   0.938059 0.289190 0.724326 -0.241529
C45   C     C_3   0.312677 0.311196 0.500642 -0.034457
C46   C     C_3   0.095388 0.748502 0.276363 -0.231536
C47   C     C_3   0.006754 0.194762 0.691245 -0.063138
C48   C     C_3   0.012811 0.823458 0.313223 -0.105503
C49   C     C_3   0.095256 0.283423 0.747567 0.032758
C50   C     C_3   0.947617 0.727954 0.286788 0.035950
C51   C     C_3   0.351185 0.318713 0.590030 -0.197856
C52   C     C_3   0.647515 0.675342 0.405769 -0.210712
C53   C     C_3   0.284788 0.245814 0.593538 0.120321
C54   C     C_3   0.716759 0.743470 0.400397 0.118259
C55   C     C_3   0.233947 0.326222 0.487093 -0.304123
C56   C     C_3   0.683824 0.686783 0.496868 -0.034356
C57   C     C_3   0.765797 0.676419 0.518536 -0.303096
C58   C     C_3   0.193007 0.193726 0.507583 -0.054752
C59   C     C_3   0.804610 0.804550 0.491510 -0.044215
C60   C     C_3   0.167012 0.261268 0.497240 -0.283736
Cu1   Cu    Cu3+1 0.499950 0.562450 0.562440 1.122992
Cu2   Cu    Cu3+1 0.500050 0.437550 0.437560 1.107526
Cu3   Cu    Cu3+1 0.062480 0.999960 0.562430 1.216327
Cu4   Cu    Cu3+1 0.937520 0.000040 0.437570 1.251368
Cu5   Cu    Cu3+1 0.062470 0.562430 0.999950 1.259173
Cu6   Cu    Cu3+1 0.937530 0.437570 0.000050 1.301387
H1    H     H_    0.140475 0.355240 0.883576 0.267954
H2    H     H_    0.792669 0.682282 0.583253 0.147208
H3    H     H_    0.101294 0.229141 0.440311 0.196035
H4    H     H_    0.896788 0.784575 0.579960 0.175860
H5    H     H_    0.794188 0.620996 0.716417 0.163365
H6    H     H_    0.209317 0.376430 0.282102 0.163564
H7    H     H_    0.838738 0.630498 0.882551 0.256705
H8    H     H_    0.145338 0.360360 0.110157 0.248480
H9    H     H_    0.614819 0.489655 0.750481 0.225635
H10   H     H_    0.384255 0.506309 0.244030 0.232464
H11   H     H_    0.682361 0.393543 0.589994 0.211573
H12   H     H_    0.871350 0.638709 0.147974 0.228199
H13   H     H_    0.319918 0.607307 0.404858 0.232124
H14   H     H_    0.694408 0.387414 0.780211 0.231650
H15   H     H_    0.301216 0.602388 0.206500 0.226085
H16   H     H_    0.871723 0.267499 0.713667 0.254430
H17   H     H_    0.152587 0.767958 0.268356 0.261759
H18   H     H_    0.870599 0.158164 0.619937 0.239523
H19   H     H_    0.144397 0.889390 0.340602 0.224823
H20   H     H_    0.960041 0.350901 0.722873 0.215623
H21   H     H_    0.094525 0.703282 0.302020 0.180715
H22   H     H_    0.115143 0.407825 0.825897 0.177989
H23   H     H_    0.246158 0.215823 0.365914 0.174880
H24   H     H_    0.929027 0.604360 0.212201 0.173225
H25   H     H_    0.367932 0.382391 0.639078 0.127613
H26   H     H_    0.628189 0.609389 0.358783 0.140213
H27   H     H_    0.414243 0.320638 0.608102 0.205434
H28   H     H_    0.586593 0.677841 0.386533 0.211620
H29   H     H_    0.275572 0.278951 0.646392 0.182083
H30   H     H_    0.729301 0.704572 0.354340 0.219782
H31   H     H_    0.255856 0.393108 0.534093 0.174690
H32   H     H_    0.748255 0.611114 0.472083 0.172595
H33   H     H_    0.163890 0.296735 0.554291 0.177857
H34   H     H_    0.743896 0.785756 0.628138 0.186790
H35   H     H_    0.853113 0.713184 0.469227 0.189515
H36   H     H_    0.423925 0.183288 0.352565 0.375474
H37   H     H_    0.561460 0.811573 0.634847 0.380377
H38   H     H_    0.650052 0.694498 0.837631 0.384791
H39   H     H_    0.355696 0.305540 0.166773 0.378675
H40   H     H_    0.999199 0.775868 0.824126 0.382260
H41   H     H_    0.005939 0.223792 0.182988 0.382405
H42   H     H_    0.265883 0.250894 0.878810 0.391868
H43   H     H_    0.801006 0.779831 0.226352 0.389600
H44   H     H_    0.663063 0.580638 0.938889 0.387162
H45   H     H_    0.209635 0.095946 0.429693 0.236453
H46   H     H_    0.303885 0.388043 0.031157 0.402345
H47   H     H_    0.771705 0.493447 0.626629 0.124523
H48   H     H_    0.231673 0.508490 0.372261 0.143960
H49   H     H_    0.857694 0.465674 0.718649 0.198026
H50   H     H_    0.142619 0.531860 0.277331 0.166318
H51   H     H_    0.752669 0.300816 0.559945 0.364004
H52   H     H_    0.179804 0.660123 0.383742 0.330702
H53   H     H_    0.596059 0.390823 0.677052 0.174876
H54   H     H_    0.401379 0.605396 0.314332 0.176791
H55   H     H_    0.101204 0.314992 0.708220 0.194407
H56   H     H_    0.757688 0.884699 0.540254 0.269286
H57   H     H_    0.978306 0.715563 0.339215 0.174939
H58   H     H_    0.923263 0.342553 0.535562 0.383027
H59   H     H_    0.096649 0.801629 0.496810 0.354211
H60   H     H_    0.055966 0.174539 0.799002 0.192865
H61   H     H_    0.917760 0.805597 0.201440 0.171251
H62   H     H_    0.034044 0.028458 0.772765 0.349335
H63   H     H_    0.000915 0.985889 0.146695 0.390733
H64   H     H_    0.724280 0.073902 0.663881 0.415469
H65   H     H_    0.181321 0.816514 0.098076 0.376940
H66   H     H_    0.055557 0.129264 0.913966 0.362358
H67   H     H_    0.140341 0.126117 0.371645 0.179992
H68   H     H_    0.801901 0.702098 0.070568 0.370239
H69   H     H_    0.321656 0.112733 0.694103 0.382592
H70   H     H_    0.687603 0.849846 0.268400 0.376514
H71   H     H_    0.840738 0.881541 0.621502 0.211266
H72   H     H_    0.201972 0.318710 0.422129 0.146079
O1    O     O_R   0.591120 0.552750 0.643890 -0.438289
O2    O     O_R   0.408790 0.552730 0.461580 -0.514551
O3    O     O_R   0.408810 0.461590 0.552740 -0.536221
O4    O     O_R   0.591190 0.538410 0.447260 -0.538284
O5    O     O_R   0.408900 0.356100 0.447280 -0.427254
O6    O     O_R   0.591100 0.643900 0.552720 -0.422994
O7    O     O_R   0.052750 0.091090 0.643890 -0.422760
O8    O     O_R   0.947250 0.908910 0.356110 -0.461534
O9    O     O_R   0.947230 0.091150 0.538450 -0.446503
O10   O     O_R   0.052770 0.908850 0.461550 -0.491556
O11   O     O_R   0.143910 0.091120 0.552710 -0.430415
O12   O     O_R   0.408880 0.447250 0.356110 -0.440355
O13   O     O_R   0.856090 0.908880 0.447290 -0.420140
O14   O     O_R   0.038380 0.091180 0.447270 -0.489151
O15   O     O_R   0.961620 0.908820 0.552730 -0.489542
O16   O     O_R   0.052740 0.643910 0.091070 -0.421764
O17   O     O_R   0.947260 0.356090 0.908930 -0.423044
O18   O     O_2   0.438262 0.233539 0.507570 -0.241010
O19   O     O_2   0.317864 0.088220 0.395394 -0.152497
O20   O     O_3   0.377788 0.198190 0.349237 -0.454448
O21   O     O_2   0.652093 0.895268 0.573017 -0.180613
O22   O     O_2   0.541554 0.742313 0.478429 -0.263863
O23   O     O_R   0.947240 0.538460 0.091150 -0.501870
O24   O     O_3   0.611820 0.802770 0.642309 -0.444912
O25   O     O_2   0.820654 0.756532 0.883003 -0.121803
O26   O     O_2   0.721232 0.716772 0.738807 -0.246478
O27   O     O_3   0.658312 0.644625 0.815248 -0.484597
O28   O     O_2   0.267522 0.273139 0.248509 -0.246903
O29   O     O_2   0.182053 0.248459 0.105899 -0.166093
O30   O     O_3   0.348276 0.355889 0.189775 -0.476487
O31   O     O_2   0.017225 0.700201 0.922769 -0.163370
O32   O     O_2   0.958074 0.610129 0.769821 -0.320133
O33   O     O_3   0.942504 0.745208 0.820240 -0.469248
O34   O     O_R   0.052760 0.461540 0.908850 -0.515768
O35   O     O_2   0.071111 0.391730 0.265584 -0.347355
O36   O     O_2   0.975542 0.324174 0.111788 -0.169141
O37   O     O_3   0.049480 0.246816 0.166466 -0.441158
O38   O     O_2   0.203032 0.228782 0.716636 -0.253532
O39   O     O_2   0.270317 0.373719 0.834196 -0.235677
O40   O     O_3   0.207228 0.244727 0.858439 -0.515634
O41   O     O_2   0.793585 0.610687 0.253253 -0.224412
O42   O     O_2   0.858902 0.760105 0.359427 -0.355883
O43   O     O_3   0.782518 0.717719 0.198431 -0.487163
O44   O     O_2   0.605854 0.421140 0.858793 -0.231993
O45   O     O_R   0.961590 0.552710 0.908800 -0.455297
O46   O     O_2   0.757210 0.482952 0.963408 -0.194124
O47   O     O_3   0.707603 0.583832 0.921671 -0.450673
O48   O     O_2   0.212711 0.478887 0.020655 -0.268665
O49   O     O_2   0.370269 0.555869 0.111117 -0.211224
O50   O     O_3   0.284740 0.397582 0.074081 -0.427317
O51   O     O_2   0.781661 0.314213 0.750870 -0.236687
O52   O     O_2   0.650425 0.282125 0.633095 -0.223323
O53   O     O_3   0.777458 0.288756 0.606588 -0.467519
O54   O     O_2   0.348630 0.712963 0.352254 -0.188396
O55   O     O_2   0.212369 0.683411 0.243024 -0.285189
O56   O     O_R   0.038410 0.447290 0.091200 -0.472345
O57   O     O_3   0.231103 0.708604 0.393220 -0.418853
O58   O     O_2   0.010052 0.252679 0.556408 -0.321336
O59   O     O_2   0.851158 0.174505 0.485453 -0.206645
O60   O     O_3   0.933748 0.338977 0.588581 -0.506296
O61   O     O_2   0.259655 0.862572 0.454194 -0.091854
O62   O     O_2   0.205720 0.947283 0.516503 -0.213919
O63   O     O_3   0.131760 0.783901 0.474580 -0.511774
O64   O     O_2   0.880744 0.015273 0.750211 -0.163797
O65   O     O_2   0.865909 0.019196 0.619326 -0.299246
O66   O     O_3   0.994937 0.006031 0.711297 -0.522850
O67   O     O_R   0.856080 0.447270 0.908890 -0.441538
O68   O     O_2   0.989877 0.989125 0.284915 -0.287836
O69   O     O_2   0.117751 0.990376 0.279570 -0.273510
O70   O     O_3   0.975332 0.926501 0.138409 -0.372189
O71   O     O_2   0.832745 0.106656 0.824290 -0.102304
O72   O     O_2   0.814312 0.218961 0.805829 -0.206828
O73   O     O_3   0.784820 0.094664 0.674973 -0.462755
O74   O     O_2   0.099622 0.899644 0.131084 -0.121742
O75   O     O_2   0.190687 0.888126 0.245943 -0.252971
O76   O     O_3   0.126912 0.775742 0.091909 -0.434140
O77   O     O_2   0.120535 0.287895 0.962579 -0.292404
O78   O     O_R   0.143920 0.552730 0.091110 -0.450334
O79   O     O_2   0.992924 0.269132 0.976963 -0.168000
O80   O     O_3   0.005553 0.134859 0.915073 -0.386881
O81   O     O_2   0.946978 0.766927 0.008872 -0.095720
O82   O     O_2   0.881832 0.632784 0.010702 -0.317756
O83   O     O_3   0.833788 0.744124 0.056696 -0.434292
O84   O     O_2   0.321222 0.113427 0.552884 -0.175032
O85   O     O_2   0.430510 0.246079 0.688400 -0.212020
O86   O     O_3   0.292894 0.145543 0.680532 -0.433856
O87   O     O_2   0.573519 0.727540 0.281090 -0.217495
O88   O     O_2   0.672135 0.869993 0.408683 -0.203976
O89   O     O_R   0.591210 0.447270 0.538420 -0.523831
O90   O     O_3   0.717660 0.823740 0.295243 -0.473796
S1    S     S_3+6 0.354949 0.182935 0.423085 0.111578
S2    S     S_3+6 0.285565 0.491214 0.096024 0.044444
S3    S     S_3+6 0.748402 0.329232 0.677259 -0.015964
S4    S     S_3+6 0.251399 0.667725 0.314994 0.001684
S5    S     S_3+6 0.933386 0.245235 0.568103 0.026904
S6    S     S_3+6 0.177592 0.858977 0.450149 0.080577
S7    S     S_3+6 0.929323 0.048281 0.709223 0.014700
S8    S     S_3+6 0.020593 0.938817 0.237324 0.044607
S9    S     S_3+6 0.848494 0.160132 0.781418 0.149331
S10   S     S_3+6 0.108046 0.836780 0.160938 0.147964
S11   S     S_3+6 0.024320 0.230909 0.920998 0.097825
S12   S     S_3+6 0.626619 0.805756 0.560777 0.101741
S13   S     S_3+6 0.916201 0.727592 0.057271 0.109167
S14   S     S_3+6 0.334190 0.185961 0.627517 0.110572
S15   S     S_3+6 0.667657 0.793038 0.347077 0.085044
S16   S     S_3+6 0.742706 0.682273 0.799331 0.101202
S17   S     S_3+6 0.256676 0.316285 0.194696 0.093053
S18   S     S_3+6 0.942373 0.661865 0.835005 0.045618
S19   S     S_3+6 0.059838 0.342919 0.179290 0.040312
S20   S     S_3+6 0.196437 0.282298 0.788680 0.004702
S21   S     S_3+6 0.842772 0.703103 0.274581 -0.012045
S22   S     S_3+6 0.698044 0.485873 0.889663 0.061408

loop_
_geom_bond_atom_site_label_1
_geom_bond_atom_site_label_2
_ccdc_geom_bond_type
C13   H13   S    
H44   O47   S    
C34   C56   S    
C23   C45   S    
C53   H29   S    
H40   O33   S    
C41   C50   S    
C6    S17   S    
C3    C23   S    
Cu2   O12   S    
Cu2   O5    S    
C60   H33   S    
O86   S14   S    
H36   O20   S    
C31   O23   A    
O84   S14   D    
C2    C57   S    
O19   S1    D    
C37   S6    S    
C47   C49   S    
O83   S13   S    
C43   S13   S    
Cu1   O6    S    
C6    H6    S    
H69   O86   S    
C7    S18   S    
C33   O67   A    
C55   H72   S    
Cu4   O14   S    
C17   O6    A    
C37   H19   S    
O76   S10   S    
O71   S9    D    
C38   C42   S    
O66   S7    S    
C44   H16   S    
C10   C15   S    
C25   C40   S    
O54   S4    D    
Cu6   O17   S    
O41   S21   D    
C11   C14   S    
C44   H20   S    
C46   H17   S    
O39   S20   D    
O58   S5    D    
C21   S2    S    
O85   S14   D    
C27   C47   S    
C40   C49   S    
H58   O60   S    
C56   C57   S    
C25   C44   S    
C36   C47   S    
O68   S8    D    
O52   S3    D    
H62   O66   S    
Cu3   O11   S    
H51   O53   S    
C35   O56   A    
C51   H25   S    
C4    H71   S    
O49   S2    D    
C10   H10   S    
O18   S1    D    
C30   O15   A    
C28   C48   S    
C22   S3    S    
C8    S19   S    
C3    H45   S    
C40   H1    S    
C33   O45   A    
C34   H34   S    
O21   S12   D    
C12   O2    A    
C52   H28   S    
O31   S18   D    
C11   H11   S    
C35   O78   A    
O79   S11   D    
C54   H30   S    
C13   H48   S    
C1    O1    A    
C27   O7    A    
Cu4   O8    S    
O35   S19   D    
C25   C32   S    
O37   S19   S    
C41   H24   S    
H70   O90   S    
C26   C31   S    
C55   C60   S    
H65   O76   S    
O36   S19   D    
O28   S17   D    
C55   H31   S    
H64   O73   S    
Cu1   Cu2   S    
O80   S11   S    
Cu2   O4    S    
O50   S2    S    
O20   S1    S    
C8    H8    S    
Cu6   O56   S    
C42   S9    S    
C52   C54   S    
C26   C43   S    
C54   C59   S    
C10   C21   S    
C4    C34   S    
C28   O10   A    
C8    C19   S    
C39   H61   S    
C20   H14   S    
O33   S18   S    
C4    H56   S    
O64   S7    D    
O72   S9    D    
C12   O12   A    
O47   S22   S    
C16   O5    A    
C53   S14   S    
Cu3   O15   S    
Cu5   O78   S    
O38   S20   D    
O75   S10   D    
O61   S6    D    
C30   O13   A    
C38   S7    S    
C5    C7    S    
Cu6   O67   S    
O59   S5    D    
C2    C59   S    
Cu1   O1    S    
C42   S11   S    
C39   C43   S    
Cu5   O34   S    
C2    H35   S    
C36   S5    S    
O29   S17   D    
C29   O11   A    
H38   O27   S    
C13   C24   S    
C17   O4    A    
C3    H67   S    
O46   S22   D    
C16   C45   S    
C9    C14   S    
C38   H60   S    
O65   S7    D    
Cu5   O16   S    
C43   S10   S    
C32   O17   A    
O24   S12   S    
O42   S21   D    
C9    C20   S    
C20   S22   S    
C12   C15   S    
C6    C15   S    
C7    C18   S    
C49   H55   S    
C30   C59   S    
C7    H7    S    
O73   S9    S    
C23   H23   S    
C5    C14   S    
H42   O40   S    
O25   S16   D    
O27   S16   S    
C37   C48   S    
H52   O57   S    
C17   C56   S    
C45   C55   S    
C38   C47   S    
C23   S1    S    
C50   S21   S    
C51   H27   S    
O40   S20   S    
Cu1   O3    S    
O69   S8    D    
C21   H15   S    
C24   H50   S    
C13   C15   S    
Cu4   O9    S    
C9    H53   S    
C36   C44   S    
O77   S11   D    
C57   H2    S    
O26   S16   D    
Cu3   O10   S    
C41   H12   S    
C31   O16   A    
C34   S12   S    
C52   C56   S    
C46   H21   S    
Cu5   O45   S    
H43   O43   S    
H63   O70   S    
O70   S8    S    
C22   H49   S    
H37   O24   S    
O22   S12   D    
H66   O80   S    
O51   S3    D    
C18   C22   S    
H68   O83   S    
C19   C24   S    
C50   H57   S    
O62   S6    D    
C24   S4    S    
O60   S5    S    
C25   C42   S    
H46   O50   S    
C6    C8    S    
C53   C58   S    
Cu1   O2    S    
O48   S2    D    
O87   S15   D    
O82   S13   D    
C11   C22   S    
C28   O8    A    
H39   O30   S    
C54   S15   S    
C40   H22   S    
C16   O3    A    
O44   S22   D    
C5    H5    S    
C27   O9    A    
C19   C35   S    
H59   O63   S    
C29   O14   A    
C1    O89   A    
O63   S6    S    
C39   S8    S    
O90   S15   S    
H41   O37   S    
C60   H3    S    
C36   H18   S    
C57   H32   S    
C4    C59   S    
C48   C50   S    
O57   S4    S    
O30   S17   S    
C18   C20   S    
C5    S16   S    
C32   O34   A    
Cu4   O13   S    
C11   H47   S    
C18   C33   S    
C49   S20   S    
C10   H54   S    
C26   C46   S    
O88   S15   D    
Cu3   Cu4   S    
C3    C58   S    
O81   S13   D    
C29   C58   S    
Cu6   O23   S    
O53   S3    S    
Cu5   Cu6   S    
C45   C51   S    
O32   S18   D    
O43   S21   S    
C1    C14   S    
C9    H9    S    
O55   S4    D    
C51   C53   S    
C37   C46   S    
C2    H4    S    
C58   C60   S    
Cu3   O7    S    
C52   H26   S    
O74   S10   D    
Cu2   O89   S    
C26   C41   S    
C39   C48   S    
C19   C21   S    
