data_mof_unit_39075.cif
_audit_creation_date              2012-12-11T15:32:03-0500
_audit_creation_method            fapswitch 2.2
_symmetry_space_group_name_H-M    P1
_symmetry_Int_Tables_number       1
_space_group_crystal_system       triclinic
_cell_length_a                    13.575641
_cell_length_b                    13.581794
_cell_length_c                    27.669303
_cell_angle_alpha                 90.378835
_cell_angle_beta                  90.289149
_cell_angle_gamma                 119.989058
_cell_volume                      4418.39485892

loop_
_atom_site_label
_atom_site_type_symbol
_atom_type_description
_atom_site_fract_x
_atom_site_fract_y
_atom_site_fract_z
_atom_type_partial_charge
C1    C     C_R   0.619416 0.898278 0.431285 0.543877
C2    C     C_R   0.276242 0.893303 0.257555 -0.100761
C3    C     C_R   0.257345 0.884094 0.207563 -0.104094
C4    C     C_R   0.599668 0.218547 0.431323 0.541990
C5    C     C_R   0.053802 0.784830 0.221050 -0.100946
C6    C     C_R   0.072695 0.793925 0.271039 -0.104293
C7    C     C_R   0.184012 0.847732 0.289396 0.041920
C8    C     C_R   0.146012 0.829368 0.189203 0.041819
C9    C     C_1   0.124490 0.814196 0.137925 -0.055050
C10   C     C_1   0.205350 0.854236 0.340665 -0.055631
C11   C     C_1   0.097193 0.794712 0.095892 -0.011012
C12   C     C_R   0.631130 0.234833 0.208679 -0.104092
C13   C     C_1   0.634322 0.865687 0.383655 -0.013534
C14   C     C_R   0.600482 0.874301 0.258145 -0.100672
C15   C     C_R   0.608289 0.862643 0.208253 -0.104110
C16   C     C_R   0.279351 0.878766 0.430565 0.545106
C17   C     C_R   0.708621 0.759626 0.222891 -0.100889
C18   C     C_R   0.700912 0.771385 0.272789 -0.104453
C19   C     C_R   0.647220 0.829208 0.290530 0.041913
C20   C     C_R   0.662806 0.805644 0.190505 0.041801
C21   C     C_1   0.675967 0.796879 0.139300 -0.055212
C22   C     C_1   0.641877 0.845837 0.341712 -0.056008
C23   C     C_R   0.620347 0.217393 0.258585 -0.100615
C24   C     C_1   0.693285 0.787153 0.097303 -0.011379
C25   C     C_R   0.638219 0.271828 0.617036 0.012679
C26   C     C_R   0.696482 0.230049 0.644708 -0.138731
C27   C     C_R   0.705907 0.244950 0.694092 -0.132419
C28   C     C_R   0.620760 0.900494 0.568855 0.538462
C29   C     C_R   0.659493 0.303945 0.716793 0.021680
C30   C     C_R   0.609903 0.354713 0.689390 -0.119954
C31   C     C_R   0.599024 0.339873 0.639144 -0.017537
C32   C     C_R   0.569777 0.299570 0.794833 -0.123571
C33   C     C_R   0.579875 0.325075 0.843814 -0.129735
C34   C     C_R   0.665995 0.310508 0.290720 0.041939
C35   C     C_R   0.776325 0.367773 0.842659 -0.127761
C36   C     C_R   0.766341 0.342942 0.793689 -0.122562
C37   C     C_R   0.664711 0.314051 0.769237 0.037611
C38   C     C_R   0.685262 0.365721 0.867267 0.023659
C39   C     C_R   0.224761 0.863980 0.615096 0.023775
C40   C     C_R   0.601721 0.222477 0.568730 0.532648
C41   C     C_R   0.243586 0.958973 0.642783 -0.126755
C42   C     C_R   0.217712 0.947381 0.691591 -0.122420
C43   C     C_R   0.170728 0.840376 0.713178 0.036565
C44   C     C_R   0.143485 0.744057 0.684631 -0.119779
C45   C     C_R   0.687857 0.345585 0.190701 0.041837
C46   C     C_R   0.171009 0.755871 0.635894 -0.128536
C47   C     C_R   0.174997 0.754897 0.791952 -0.119538
C48   C     C_R   0.147477 0.736614 0.840646 -0.127396
C49   C     C_R   0.084319 0.875054 0.837978 -0.126241
C50   C     C_R   0.110231 0.892021 0.789242 -0.122177
C51   C     C_R   0.152510 0.829560 0.765541 0.036266
C52   C     C_R   0.279916 0.881633 0.568244 0.541526
C53   C     C_R   0.098362 0.793802 0.863537 0.023169
C54   C     C_R   0.640068 0.861051 0.615148 0.022345
C55   C     C_R   0.548915 0.767590 0.637550 -0.116067
C56   C     C_1   0.694544 0.365445 0.139480 -0.055174
C57   C     C_R   0.555871 0.746676 0.686087 -0.116096
C58   C     C_R   0.654697 0.817814 0.712766 0.036065
C59   C     C_R   0.749578 0.904711 0.689276 -0.122640
C60   C     C_R   0.742175 0.926573 0.640771 -0.133486
C61   C     C_R   0.712253 0.900620 0.795613 -0.119734
C62   C     C_R   0.724097 0.888150 0.844761 -0.127914
C63   C     C_R   0.616423 0.683080 0.834632 -0.127497
C64   C     C_1   0.630971 0.264612 0.383761 -0.013018
C65   C     C_R   0.606442 0.695523 0.785393 -0.123240
C66   C     C_R   0.657339 0.804366 0.765289 0.035233
C67   C     C_1   0.650093 0.290569 0.341856 -0.055827
C68   C     C_R   0.679432 0.779288 0.864231 0.024088
C69   C     C_R   0.049444 0.761233 0.048218 0.545381
C70   C     C_R   0.714382 0.435820 0.049733 0.544556
C71   C     C_R   0.723660 0.770794 0.049551 0.545453
C72   C     C_R   0.043908 0.755939 0.910499 0.542489
C73   C     C_R   0.707189 0.427484 0.912870 0.541448
C74   C     C_R   0.717267 0.764907 0.911778 0.540372
C75   C     C_R   0.723702 0.421262 0.272762 -0.104498
C76   C     C_R   0.734597 0.438703 0.222848 -0.100877
C77   C     C_R   0.549936 0.398182 0.610963 0.050281
C78   C     C_1   0.701856 0.390880 0.097462 -0.011236
C79   C     C_R   0.450374 0.396174 0.626440 -0.093948
C80   C     C_R   0.407275 0.455216 0.600937 -0.118789
C81   C     C_R   0.463005 0.516800 0.559871 -0.100599
C82   C     C_R   0.561928 0.519416 0.544201 -0.101173
C83   C     C_R   0.605444 0.460615 0.569600 -0.068508
C84   C     C_1   0.232277 0.862724 0.382733 -0.012013
Cr1   Cr    Cr6+3 0.417720 0.831920 0.499820 1.012425
Cr2   Cr    Cr6+3 0.668190 0.085770 0.500360 1.020064
Cr3   Cr    Cr6+3 0.414060 0.082260 0.499840 1.032497
Cr4   Cr    Cr6+3 0.908000 0.821090 0.979770 1.023953
Cr5   Cr    Cr6+3 0.912420 0.571130 0.979880 1.023446
Cr6   Cr    Cr6+3 0.657970 0.566940 0.980940 1.023914
H1    H     H_    0.759042 0.493827 0.297200 0.102477
H2    H     H_    0.858246 0.397926 0.860077 0.129542
H3    H     H_    0.580520 0.406446 0.707277 0.102890
H4    H     H_    0.778170 0.524795 0.209289 0.098745
H5    H     H_    0.285913 0.043616 0.627718 0.136189
H6    H     H_    0.210991 0.708428 0.774650 0.103751
H7    H     H_    0.159797 0.674158 0.859732 0.125832
H8    H     H_    0.239886 0.023001 0.712856 0.100149
H9    H     H_    0.091830 0.949826 0.769657 0.101212
H10   H     H_    0.046035 0.920077 0.854659 0.133911
H11   H     H_    0.103871 0.660104 0.700291 0.103812
H12   H     H_    0.572974 0.898938 0.183643 0.103402
H13   H     H_    0.155147 0.681429 0.615087 0.122611
H14   H     H_    0.469060 0.715286 0.618645 0.128870
H15   H     H_    0.594166 0.162276 0.184229 0.103420
H16   H     H_    0.748853 0.985530 0.781118 0.101966
H17   H     H_    0.772661 0.963337 0.867089 0.122617
H18   H     H_    0.481558 0.678956 0.703257 0.098964
H19   H     H_    0.563995 0.619949 0.762804 0.100705
H20   H     H_    0.582433 0.598031 0.848718 0.133204
H21   H     H_    0.828180 0.958212 0.708818 0.101129
H22   H     H_    0.814044 0.998368 0.624171 0.124511
H23   H     H_    0.751370 0.715704 0.209541 0.098564
H24   H     H_    0.575276 0.131314 0.272123 0.098761
H25   H     H_    0.362751 0.934850 0.271398 0.098649
H26   H     H_    0.329221 0.918375 0.183358 0.103472
H27   H     H_    0.967270 0.741880 0.207204 0.098795
H28   H     H_    0.000791 0.758105 0.295238 0.102642
H29   H     H_    0.559010 0.919488 0.271487 0.098556
H30   H     H_    0.405921 0.348712 0.658139 0.088946
H31   H     H_    0.330796 0.453507 0.613109 0.098208
H32   H     H_    0.429777 0.562843 0.540301 0.112305
H33   H     H_    0.605338 0.567624 0.512519 0.108194
H34   H     H_    0.737625 0.736478 0.297400 0.102461
H35   H     H_    0.683250 0.465099 0.557400 0.094954
H36   H     H_    0.727482 0.177599 0.628865 0.143996
H37   H     H_    0.489633 0.273625 0.776499 0.100474
H38   H     H_    0.507871 0.321030 0.862351 0.127101
H39   H     H_    0.744978 0.205777 0.714757 0.105947
H40   H     H_    0.840284 0.353664 0.774420 0.101201
O1    O     O_R   0.302900 0.805360 0.446400 -0.505884
O2    O     O_R   0.638120 0.455970 0.034270 -0.504536
O3    O     O_R   0.667540 0.672320 0.030160 -0.492799
O4    O     O_R   0.522090 0.841370 0.450730 -0.496276
O5    O     O_R   0.814460 0.840990 0.926980 -0.519592
O6    O     O_R   0.001710 0.811400 0.930110 -0.504814
O7    O     O_R   0.023410 0.659800 0.926210 -0.519562
O8    O     O_R   0.806940 0.473170 0.931090 -0.504169
O9    O     O_R   0.633420 0.451310 0.927930 -0.524030
O10   O     O_R   0.663190 0.668000 0.931580 -0.503698
O11   O     O_3   0.826130 0.653050 0.980200 -0.245999
O12   O     O_R   0.657980 0.180990 0.549630 -0.510751
O13   O     O_R   0.693280 0.995650 0.447220 -0.502911
O14   O     O_R   0.657260 0.178740 0.451050 -0.493441
O15   O     O_R   0.502640 0.195380 0.446850 -0.503880
O16   O     O_R   0.319630 0.976590 0.450330 -0.492541
O17   O     O_R   0.303680 0.807790 0.552740 -0.521980
O18   O     O_R   0.522820 0.843620 0.549310 -0.508298
O19   O     O_R   0.694060 0.998080 0.553560 -0.523617
O20   O     O_R   0.503420 0.197810 0.553190 -0.503241
O21   O     O_R   0.320350 0.978840 0.548910 -0.503530
O22   O     O_3   0.499990 0.999990 0.500010 -0.244829
O23   O     O_R   0.819150 0.845650 0.033320 -0.505066
O24   O     O_R   0.006060 0.815720 0.028680 -0.493268
O25   O     O_R   0.028100 0.664460 0.032550 -0.504575
O26   O     O_R   0.811290 0.477490 0.029660 -0.493911

loop_
_geom_bond_atom_site_label_1
_geom_bond_atom_site_label_2
_ccdc_geom_bond_type
C25   C31   A    
C7    C10   S    
C63   C65   A    
Cr3   O16   S    
C40   O12   A    
C70   C78   S    
C41   C42   A    
C82   H33   S    
C2    C7    A    
Cr1   O18   S    
C12   H15   S    
C75   C76   A    
C81   C82   A    
C17   H23   S    
C39   C41   A    
C54   C60   A    
C48   H7    S    
C12   C23   A    
C26   C27   A    
C69   O25   A    
C45   C76   A    
C60   H22   S    
C32   H37   S    
C36   C37   A    
C30   H3    S    
C36   H40   S    
C3    H26   S    
C42   H8    S    
C25   C40   S    
C30   C31   A    
Cr5   O11   S    
Cr5   O25   S    
C27   C29   A    
C73   O8    A    
C77   C83   A    
C68   C74   S    
C71   O23   A    
C16   C84   S    
C17   C20   A    
C56   C78   T    
C16   O16   A    
C18   C19   A    
C26   H36   S    
C41   H5    S    
C16   O1    A    
C76   H4    S    
C57   H18   S    
C63   C68   A    
C61   C66   A    
C58   C66   S    
Cr6   O9    S    
C35   C36   A    
C45   C56   S    
C8    C9    S    
Cr3   O20   S    
C59   H21   S    
C47   H6    S    
C75   H1    S    
Cr1   O4    S    
Cr6   O2    S    
C35   H2    S    
C39   C52   S    
C59   C60   A    
Cr3   O21   S    
C79   H30   S    
C15   C20   A    
C83   H35   S    
C44   C46   A    
Cr2   O13   S    
C31   C77   S    
C80   H31   S    
C77   C79   A    
C48   C53   A    
C28   O18   A    
Cr2   O14   S    
Cr5   O8    S    
C64   C67   T    
C35   C38   A    
Cr4   O6    S    
C3    C8    A    
Cr2   O19   S    
Cr6   O3    S    
C28   C54   S    
C12   C45   A    
Cr5   O26   S    
C47   C51   A    
C62   H17   S    
C73   O9    A    
C50   C51   A    
C25   C26   A    
C74   O10   A    
C55   H14   S    
C82   C83   A    
C33   H38   S    
C5    H27   S    
Cr4   O24   S    
C43   C44   A    
C4    O14   A    
C29   C30   A    
C1    O13   A    
Cr2   O22   S    
C2    H25   S    
C47   C48   A    
C23   C34   A    
C74   O5    A    
C19   C22   S    
C70   O2    A    
C17   C18   A    
C50   H9    S    
C40   O20   A    
C32   C37   A    
C61   H16   S    
C9    C11   T    
C65   H19   S    
C39   C46   A    
C72   O7    A    
C14   H29   S    
C52   O17   A    
Cr5   O7    S    
Cr3   O22   S    
C55   C57   A    
C27   H39   S    
C70   O26   A    
C1    C13   S    
C42   C43   A    
C1    O4    A    
Cr4   O11   S    
Cr2   O12   S    
C54   C55   A    
Cr3   O15   S    
C14   C19   A    
Cr1   O17   S    
Cr4   O5    S    
C80   C81   A    
C34   C67   S    
C71   O3    A    
C5    C8    A    
Cr6   O10   S    
C44   H11   S    
C11   C69   S    
C6    C7    A    
C46   H13   S    
C4    C64   S    
C69   O24   A    
C62   C68   A    
C81   H32   S    
Cr4   O23   S    
C63   H20   S    
C2    C3    A    
C58   C59   A    
Cr1   O22   S    
C32   C33   A    
C23   H24   S    
C43   C51   S    
C57   C58   A    
C5    C6    A    
C52   O21   A    
C49   C53   A    
C4    O15   A    
C10   C84   T    
C13   C22   T    
C65   C66   A    
C15   H12   S    
C61   C62   A    
Cr6   O11   S    
C72   O6    A    
C79   C80   A    
C28   O19   A    
C34   C75   A    
C20   C21   S    
C49   C50   A    
C21   C24   T    
C29   C37   S    
C14   C15   A    
C33   C38   A    
C53   C72   S    
C6    H28   S    
Cr1   O1    S    
C24   C71   S    
C18   H34   S    
C49   H10   S    
C38   C73   S    
