data_mof_unit_45060.cif
_audit_creation_date              2012-12-10T17:53:08-0500
_audit_creation_method            fapswitch 2.2
_symmetry_space_group_name_H-M    P1
_symmetry_Int_Tables_number       1
_space_group_crystal_system       triclinic
_cell_length_a                    14.724771
_cell_length_b                    14.708111
_cell_length_c                    27.812463
_cell_angle_alpha                 76.586553
_cell_angle_beta                  102.920579
_cell_angle_gamma                 114.822577
_cell_volume                      5263.19712537

loop_
_atom_site_label
_atom_site_type_symbol
_atom_type_description
_atom_site_fract_x
_atom_site_fract_y
_atom_site_fract_z
_atom_type_partial_charge
C1    C     C_R   0.880385 0.312231 0.508495 0.803758
C2    C     C_R   0.119607 0.687681 0.492330 0.802868
C3    C     C_R   0.998773 0.503219 0.897524 -0.044371
C4    C     C_R   0.002007 0.500855 0.102038 -0.044235
C5    C     C_R   0.936924 0.416566 0.875117 -0.019437
C6    C     C_R   0.071654 0.583250 0.125825 -0.020042
C7    C     C_R   0.876235 0.329729 0.903645 -0.147734
C8    C     C_R   0.140459 0.665563 0.098743 -0.147553
C9    C     C_R   0.059956 0.590414 0.868515 -0.019858
C10   C     C_R   0.933072 0.417943 0.129669 -0.020429
C11   C     C_R   0.999568 0.502099 0.644992 -0.035173
C12   C     C_R   0.001216 0.500146 0.354688 -0.039194
C13   C     C_R   0.932546 0.416196 0.027784 0.042132
C14   C     C_R   0.064958 0.589638 0.971206 0.042034
C15   C     C_R   0.069071 0.587225 0.023029 0.042086
C16   C     C_R   0.934896 0.415043 0.977106 0.042088
C17   C     C_R   0.001222 0.501416 0.050741 0.067836
C18   C     C_R   0.999524 0.502640 0.948821 0.067793
C19   C     C_R   0.863124 0.335069 0.056482 -0.204042
C20   C     C_R   0.123667 0.676671 0.940613 -0.204237
C21   C     C_R   0.863676 0.336062 0.106354 -0.147293
C22   C     C_R   0.121165 0.676781 0.890388 -0.147333
C23   C     C_R   0.999918 0.500567 0.592364 0.802252
C24   C     C_R   0.000386 0.500057 0.407550 0.802171
C25   C     C_R   0.875176 0.328716 0.953572 -0.204507
C26   C     C_R   0.139495 0.667639 0.048457 -0.204226
C27   C     C_R   0.812854 0.204443 0.513758 -0.050585
C28   C     C_R   0.187303 0.794690 0.492350 -0.050549
C29   C     C_R   0.783375 0.027113 0.523011 -0.190360
C30   C     C_R   0.218935 0.966432 0.499551 -0.193258
C31   C     C_R   0.850001 0.128306 0.520551 -0.188791
C32   C     C_R   0.151440 0.867460 0.494917 -0.192025
C33   C     C_R   0.708991 0.178160 0.510878 -0.247629
C34   C     C_R   0.291026 0.821880 0.494323 -0.242472
C35   C     C_R   0.640348 0.076509 0.514491 0.091395
C36   C     C_R   0.361280 0.919404 0.502225 0.092127
C37   C     C_R   0.679015 0.000832 0.519254 0.163052
C38   C     C_R   0.323334 0.992807 0.503479 0.163355
C39   C     C_R   0.534408 0.048465 0.511912 0.066799
C40   C     C_R   0.467684 0.945839 0.508897 0.065662
C41   C     C_R   0.509634 0.872620 0.514165 -0.215767
C42   C     C_R   0.493210 0.119128 0.513261 -0.214073
C43   C     C_R   0.613284 0.899787 0.519776 -0.222440
C44   C     C_R   0.389786 0.091365 0.509421 -0.224461
C45   C     C_R   0.938030 0.418381 0.824546 0.531396
C46   C     C_R   0.070963 0.581304 0.176461 0.532140
C47   C     C_R   0.711476 0.664686 0.415287 -0.354733
C48   C     C_R   0.284057 0.328463 0.581217 -0.364751
C49   C     C_R   0.795076 0.637527 0.428840 0.458267
C50   C     C_R   0.203234 0.359682 0.569735 0.458627
C51   C     C_R   0.715189 0.509541 0.493264 -0.057024
C52   C     C_R   0.285202 0.491076 0.507042 -0.060459
C53   C     C_R   0.628033 0.534108 0.481050 -0.020578
C54   C     C_R   0.370743 0.463989 0.517967 -0.019495
C55   C     C_R   0.629083 0.614755 0.441629 0.117857
C56   C     C_R   0.367787 0.380421 0.555891 0.124042
C57   C     C_R   0.540660 0.482384 0.506251 0.092517
C58   C     C_R   0.457851 0.515321 0.492549 0.087477
C59   C     C_R   0.464748 0.597963 0.453754 -0.238279
C60   C     C_R   0.532707 0.398135 0.544167 -0.238096
C61   C     C_R   0.548159 0.645695 0.428599 -0.179563
C62   C     C_R   0.447952 0.348369 0.568297 -0.190792
C63   C     C_R   0.058021 0.589444 0.817927 0.532059
C64   C     C_R   0.934752 0.419133 0.180195 0.532596
C65   C     C_R   0.911317 0.494656 0.710727 -0.102226
C66   C     C_R   0.082305 0.490230 0.290106 -0.104699
C67   C     C_R   0.911762 0.493814 0.660740 -0.220752
C68   C     C_R   0.081656 0.489988 0.340207 -0.220043
C69   C     C_R   0.087151 0.512641 0.679882 -0.223902
C70   C     C_R   0.921516 0.510400 0.318161 -0.218069
C71   C     C_R   0.086509 0.513193 0.729851 -0.105660
C72   C     C_R   0.922224 0.510314 0.268138 -0.104421
C73   C     C_R   0.998578 0.504008 0.745520 0.353611
C74   C     C_R   0.002559 0.500259 0.253944 0.358370
Cu1   Cu    Cu3+1 0.081740 0.475690 0.513040 0.958515
Cu2   Cu    Cu3+1 0.918260 0.524310 0.486960 0.958732
H1    H     H_    0.156481 0.521915 0.668449 0.154318
H2    H     H_    0.858358 0.517944 0.328196 0.151514
H3    H     H_    0.314871 0.765122 0.489469 0.142393
H4    H     H_    0.683108 0.238947 0.504130 0.149169
H5    H     H_    0.071805 0.847409 0.494646 0.153190
H6    H     H_    0.930055 0.147007 0.522763 0.144851
H7    H     H_    0.813326 0.969377 0.527182 0.133927
H8    H     H_    0.189684 0.021864 0.501289 0.133580
H9    H     H_    0.464707 0.792633 0.515670 0.146362
H10   H     H_    0.538957 0.196191 0.519024 0.141096
H11   H     H_    0.549529 0.708205 0.398657 0.148001
H12   H     H_    0.445154 0.283721 0.597098 0.147101
H13   H     H_    0.280065 0.552128 0.478054 0.134945
H14   H     H_    0.721881 0.451018 0.523517 0.133931
H15   H     H_    0.710910 0.724810 0.384293 0.152854
H16   H     H_    0.281247 0.263585 0.609843 0.149667
H17   H     H_    0.406324 0.627490 0.441470 0.132222
H18   H     H_    0.590511 0.367699 0.555847 0.127639
H19   H     H_    0.154364 0.520777 0.756463 0.144503
H20   H     H_    0.860435 0.518245 0.240314 0.140208
H21   H     H_    0.829008 0.261589 0.887489 0.186299
H22   H     H_    0.195775 0.729236 0.116342 0.186046
H23   H     H_    0.144201 0.482202 0.367498 0.157651
H24   H     H_    0.843270 0.485829 0.634543 0.153298
H25   H     H_    0.144560 0.482277 0.279344 0.140911
H26   H     H_    0.843194 0.488045 0.722482 0.143715
H27   H     H_    0.808948 0.271963 0.126599 0.186027
H28   H     H_    0.167821 0.745353 0.868713 0.186019
H29   H     H_    0.805553 0.269955 0.041370 0.140172
H30   H     H_    0.171322 0.747218 0.953986 0.140469
H31   H     H_    0.827858 0.257840 0.972877 0.140471
H32   H     H_    0.196663 0.733022 0.030889 0.140265
H33   H     H_    0.642095 0.841172 0.523864 0.150484
H34   H     H_    0.361644 0.147717 0.511128 0.151142
N1    N     N_R   0.997968 0.504055 0.797060 -0.466431
N2    N     N_R   0.002973 0.500114 0.202454 -0.467660
N3    N     N_R   0.795430 0.560780 0.467350 -0.192591
N4    N     N_R   0.204570 0.439220 0.532650 -0.190115
O1    O     O_R   0.977900 0.338120 0.517190 -0.568910
O2    O     O_R   0.022100 0.661880 0.482810 -0.548827
O3    O     O_R   0.839850 0.379180 0.495160 -0.593432
O4    O     O_R   0.160150 0.620820 0.504840 -0.595139
O5    O     O_R   0.069030 0.479490 0.580750 -0.550135
O6    O     O_R   0.930970 0.520510 0.419250 -0.572580
O7    O     O_R   0.930970 0.520550 0.558720 -0.592048
O8    O     O_R   0.069030 0.479450 0.441280 -0.590375
O9    O     O_2   0.880412 0.334879 0.803120 -0.545099
O10   O     O_2   0.136998 0.660296 0.199439 -0.543047
O11   O     O_2   0.869198 0.339757 0.206988 -0.541638
O12   O     O_2   0.115233 0.673354 0.789716 -0.543843
N5    N     N_2   0.117924 0.305964 0.595315 -0.379254
H35   H     H_    0.077431 0.233615 0.586897 0.228225
C75   C     C_3   0.138251 0.306946 0.648601 -0.673231
H36   H     H_    0.176431 0.254602 0.667938 0.206353
H37   H     H_    0.065812 0.281713 0.663223 0.238477
H38   H     H_    0.186873 0.384580 0.656895 0.230229
N6    N     N_2   0.878451 0.687635 0.401685 -0.377191
H39   H     H_    0.864587 0.662953 0.367973 0.236127
C76   C     C_3   0.923422 0.797135 0.397155 -0.695196
H40   H     H_    0.877727 0.831234 0.367308 0.210501
H41   H     H_    0.000607 0.825350 0.387190 0.239799
H42   H     H_    0.929116 0.821578 0.432989 0.224594

loop_
_geom_bond_atom_site_label_1
_geom_bond_atom_site_label_2
_ccdc_geom_bond_type
C76   H42   S    
C49   N3    A    
C46   N2    A    
C70   H2    S    
Cu1   O8    S    
C8    C26   A    
C69   H1    S    
C14   C18   A    
C66   C68   A    
C48   C56   A    
C2    O4    A    
C22   H28   S    
C76   H40   S    
C23   O7    A    
C45   O9    S    
C32   H5    S    
C12   C68   A    
Cu2   O6    S    
C31   H6    S    
Cu2   O7    S    
C35   C37   A    
C29   H7    S    
C51   H14   S    
C23   O5    A    
C59   H17   S    
C9    C22   A    
C64   N2    A    
C71   H19   S    
C66   C74   A    
C65   C73   A    
C30   C38   A    
C3    C18   A    
C60   C62   A    
C69   C71   A    
C8    H22   S    
C12   C70   A    
C61   H11   S    
Cu2   O2    S    
C2    O2    A    
C11   C67   A    
C65   C67   A    
C42   H10   S    
C30   C32   A    
C6    C46   A    
C75   H38   S    
C1    C27   S    
C48   C50   A    
C28   C34   A    
C63   N1    A    
C41   C43   A    
C66   H25   S    
C46   O10   S    
C52   H13   S    
Cu1   O4    S    
C42   C44   A    
C65   H26   S    
C52   C54   A    
C73   N1    S    
C39   C42   A    
C20   H30   S    
C53   C55   A    
C10   C21   A    
C54   C56   A    
C24   O6    A    
C59   C61   A    
C13   C19   A    
C27   C31   A    
C14   C20   A    
C28   C32   A    
Cu1   O5    S    
C4    C6    A    
C26   H32   S    
C39   C40   A    
C5    C7    A    
C53   C57   A    
C15   C26   A    
C6    C8    A    
C58   C59   A    
C5    C45   A    
C27   C33   A    
C51   C53   A    
C72   H20   S    
C37   C43   A    
C35   C39   A    
Cu1   Cu2   S    
N5    C75   S    
C38   C44   A    
C3    C9    A    
C34   H3    S    
C36   C40   A    
C24   O8    A    
Cu2   N3    S    
Cu1   N4    S    
C51   N3    A    
C67   H24   S    
C4    C17   A    
C19   H29   S    
C72   C74   A    
C40   C41   A    
C20   C22   A    
N6    H39   S    
C29   C37   A    
C56   C62   A    
Cu1   O1    S    
C4    C10   A    
N5    H35   S    
C41   H9    S    
C25   H31   S    
C47   C55   A    
C75   H36   S    
C54   C58   A    
C16   C25   A    
C76   H41   S    
C49   N6    S    
C7    H21   S    
C19   C21   A    
C9    C63   A    
C47   H15   S    
C10   C64   A    
C3    C5    A    
C70   C72   A    
C11   C69   A    
C33   H4    S    
C15   C17   A    
C52   N4    A    
C47   C49   A    
C43   H33   S    
C12   C24   S    
Cu2   O3    S    
C7    C25   A    
C13   C17   A    
C36   C38   A    
C68   H23   S    
C29   C31   A    
C45   N1    A    
C74   N2    S    
C57   C58   A    
C62   H12   S    
C55   C61   A    
C11   C23   S    
C33   C35   A    
C34   C36   A    
C30   H8    S    
C63   O12   S    
C21   H27   S    
C57   C60   A    
C16   C18   A    
C64   O11   S    
C48   H16   S    
C13   C16   A    
C71   C73   A    
N6    C76   S    
C14   C15   A    
C2    C28   S    
C50   N5    S    
C1    O1    A    
C50   N4    A    
C1    O3    A    
C44   H34   S    
C75   H37   S    
C60   H18   S    
