data_mof_unit_10477.cif
_audit_creation_date              2012-12-10T18:05:59-0500
_audit_creation_method            fapswitch 2.2
_symmetry_space_group_name_H-M    P1
_symmetry_Int_Tables_number       1
_space_group_crystal_system       triclinic
_cell_length_a                    12.724045
_cell_length_b                    13.174551
_cell_length_c                    14.871852
_cell_angle_alpha                 92.358128
_cell_angle_beta                  101.807018
_cell_angle_gamma                 82.143923
_cell_volume                      2417.14891542

loop_
_atom_site_label
_atom_site_type_symbol
_atom_type_description
_atom_site_fract_x
_atom_site_fract_y
_atom_site_fract_z
_atom_type_partial_charge
C1    C     C_R   0.439361 0.690651 0.487227 0.856236
C2    C     C_R   0.423933 0.570910 0.801759 -0.248287
C3    C     C_R   0.500594 0.502630 0.767898 -0.055865
C4    C     C_R   0.500182 0.501078 0.672300 0.870670
C5    C     C_R   0.575570 0.433901 0.824090 -0.252248
C6    C     C_R   0.724812 0.053020 0.498190 -0.200673
C7    C     C_R   0.596981 0.199789 0.520300 -0.070340
C8    C     C_R   0.306937 0.834171 0.516055 -0.226517
C9    C     C_R   0.293370 0.930951 0.554914 -0.205429
C10   C     C_R   0.374178 0.994341 0.562258 0.117879
C11   C     C_R   0.462098 0.966773 0.515514 0.025816
C12   C     C_R   0.567828 0.425796 0.102132 0.139724
C13   C     C_R   0.472570 0.869717 0.471741 -0.012967
C14   C     C_R   0.541842 0.030728 0.512804 0.055974
C15   C     C_R   0.641303 0.990730 0.487725 0.068702
C16   C     C_R   0.560598 0.309218 0.512430 0.852991
C17   C     C_R   0.649147 0.895216 0.442330 0.043162
C18   C     C_R   0.558439 0.842516 0.423221 0.183399
C19   C     C_R   0.519466 0.136004 0.522972 -0.196409
C20   C     C_R   0.703021 0.157407 0.516620 -0.206446
C21   C     C_R   0.401387 0.800149 0.483224 -0.091492
C22   C     C_R   0.107372 0.318143 0.405344 -0.348990
C23   C     C_R   0.348441 0.641215 0.026195 -0.259458
C24   C     C_R   0.794012 0.640559 0.598881 0.024452
C25   C     C_R   0.896590 0.670984 0.621529 -0.260460
C26   C     C_R   0.982612 0.613637 0.590364 -0.177415
C27   C     C_R   0.966852 0.524328 0.536374 -0.009215
C28   C     C_R   0.499338 0.499150 0.327481 0.871269
C29   C     C_R   0.860854 0.494387 0.516036 0.214292
C30   C     C_R   0.050638 0.466628 0.497499 -0.013567
C31   C     C_R   0.031823 0.372780 0.451202 0.149945
C32   C     C_R   0.933416 0.338295 0.442362 -0.333065
C33   C     C_R   0.845923 0.403150 0.462476 0.088744
C34   C     C_R   0.347669 0.642939 0.932015 0.103608
C35   C     C_R   0.151435 0.499296 0.498757 -0.077581
C36   C     C_R   0.202312 0.357309 0.404616 0.277801
C37   C     C_R   0.565586 0.424180 0.194604 -0.271100
C38   C     C_R   0.496605 0.498020 0.231286 -0.042006
C39   C     C_R   0.423077 0.569338 0.176149 -0.248915
C40   C     C_R   0.421634 0.570212 0.082661 0.097693
C41   C     C_R   0.495539 0.499253 0.045675 0.052990
C42   C     C_3   0.551099 0.765740 0.344376 -0.796499
C43   C     C_R   0.422280 0.572562 0.895054 0.101879
C44   C     C_R   0.496962 0.501185 0.952434 0.015728
C45   C     C_R   0.573113 0.431179 0.916466 0.135446
C46   C     C_R   0.644751 0.359021 0.973037 -0.213738
C47   C     C_R   0.641416 0.355694 0.065567 -0.223036
H1    H     H_    0.615993 0.364720 0.237518 0.122317
H2    H     H_    0.727301 0.685556 0.622940 0.141862
H3    H     H_    0.060686 0.640215 0.610174 0.138234
H4    H     H_    0.909374 0.739371 0.663006 0.149125
H5    H     H_    0.292105 0.695394 0.055494 0.144477
H6    H     H_    0.366950 0.622825 0.754908 0.155295
H7    H     H_    0.633400 0.380943 0.795119 0.142060
H8    H     H_    0.702753 0.304937 0.945584 0.146897
H9    H     H_    0.697065 0.299291 0.108715 0.142710
H10   H     H_    0.766431 0.205230 0.520304 0.158642
H11   H     H_    0.756813 0.908772 0.361026 0.182178
H12   H     H_    0.804409 0.023653 0.486003 0.131273
H13   H     H_    0.810066 0.845357 0.461052 0.185694
H14   H     H_    0.373904 0.051708 0.690563 0.190023
H15   H     H_    0.298237 0.126869 0.605280 0.180133
H16   H     H_    0.617043 0.700940 0.360365 0.277016
H17   H     H_    0.471505 0.736858 0.327223 0.192858
H18   H     H_    0.560775 0.803365 0.281629 0.225247
H19   H     H_    0.242801 0.301609 0.286367 0.160680
H20   H     H_    0.300571 0.230277 0.379620 0.162231
H21   H     H_    0.751842 0.413133 0.339464 0.177858
H22   H     H_    0.736577 0.311773 0.397772 0.156004
H23   H     H_    0.437493 0.170055 0.522610 0.181163
H24   H     H_    0.315940 0.770047 0.855020 0.175316
H25   H     H_    0.217003 0.755757 0.910664 0.182080
H26   H     H_    0.250045 0.781998 0.522348 0.159490
H27   H     H_    0.225222 0.952642 0.588137 0.140346
H28   H     H_    0.918831 0.268517 0.402964 0.146661
H29   H     H_    0.091494 0.247574 0.367945 0.141175
H30   H     H_    0.368179 0.624296 0.206367 0.135832
H31   H     H_    0.176030 0.567055 0.535617 0.125381
N1    N     N_R   0.222190 0.444670 0.452360 -0.103417
N2    N     N_R   0.776970 0.554790 0.547140 -0.122408
N3    N     N_3   0.743431 0.855664 0.406432 -0.456180
N4    N     N_3   0.371793 0.079593 0.625301 -0.477911
N5    N     N_3   0.280017 0.305362 0.355727 -0.393730
N6    N     N_3   0.746150 0.389450 0.404351 -0.360587
N7    N     N_3   0.271971 0.715863 0.874056 -0.468394
O1    O     O_R   0.366740 0.627160 0.477250 -0.628493
O2    O     O_R   0.544830 0.662520 0.507680 -0.611251
O3    O     O_R   0.410940 0.482340 0.616930 -0.613266
O4    O     O_R   0.589030 0.517700 0.647360 -0.616932
O5    O     O_R   0.455170 0.337480 0.492320 -0.604390
O6    O     O_R   0.633260 0.372840 0.522750 -0.601526
O7    O     O_R   0.410970 0.482300 0.352640 -0.593355
O8    O     O_R   0.589060 0.517660 0.383070 -0.609681
Zn1   Zn    Zn3+2 0.381090 0.476390 0.479680 0.956547
Zn2   Zn    Zn3+2 0.618910 0.523610 0.520320 0.948034

loop_
_geom_bond_atom_site_label_1
_geom_bond_atom_site_label_2
_ccdc_geom_bond_type
C1    O2    A    
C1    C21   S    
C27   C29   A    
C22   H29   S    
C32   H28   S    
H25   N7    S    
C45   C46   A    
C16   O5    A    
C26   C27   A    
C37   C38   A    
C30   C35   A    
C39   H30   S    
H14   N4    S    
C18   C42   S    
C38   C39   A    
C11   C14   A    
C36   N5    S    
C23   C40   A    
C29   C33   A    
C1    O1    A    
C17   C18   A    
C12   C37   A    
O1    Zn1   S    
H19   N5    S    
H24   N7    S    
C24   N2    A    
C8    C9    A    
O2    Zn2   S    
C46   H8    S    
C42   H18   S    
C9    C10   A    
H15   N4    S    
O8    Zn2   S    
C27   C30   A    
C12   C47   A    
C14   C19   A    
O5    Zn1   S    
O3    Zn1   S    
C22   C31   A    
H21   N6    S    
C5    H7    S    
C24   C25   A    
N1    Zn1   S    
H11   N3    S    
C39   C40   A    
C25   C26   A    
C5    C45   A    
C10   N4    S    
C28   O8    A    
N2    Zn2   S    
C34   N7    S    
O4    Zn2   S    
C43   C44   A    
C25   H4    S    
C12   C41   A    
H13   N3    S    
C31   C32   A    
C28   C38   S    
C2    C43   A    
C6    C15   A    
C23   C34   A    
O7    Zn1   S    
C8    C21   A    
C13   C21   A    
C28   O7    A    
H20   N5    S    
C37   H1    S    
C13   C18   A    
C7    C16   S    
C7    C19   A    
C41   C44   A    
C9    H27   S    
C3    C4    S    
C42   H17   S    
C6    C20   A    
C44   C45   A    
C4    O4    A    
C24   H2    S    
C15   C17   A    
C46   C47   A    
C40   C41   A    
C6    H12   S    
C34   C43   A    
C2    H6    S    
C3    C5    A    
C36   N1    A    
C4    O3    A    
C22   C36   A    
C35   H31   S    
C32   C33   A    
C26   H3    S    
C2    C3    A    
H22   N6    S    
C11   C13   A    
C23   H5    S    
C30   C31   A    
C29   N2    A    
C35   N1    A    
C8    H26   S    
C17   N3    S    
C33   N6    S    
C10   C11   A    
O6    Zn2   S    
C16   O6    A    
C7    C20   A    
C14   C15   A    
C19   H23   S    
C20   H10   S    
C42   H16   S    
C47   H9    S    
