data_mof_unit_5976.cif
_audit_creation_date              2012-12-11T14:24:51-0500
_audit_creation_method            fapswitch 2.2
_symmetry_space_group_name_H-M    P1
_symmetry_Int_Tables_number       1
_space_group_crystal_system       triclinic
_cell_length_a                    18.836171
_cell_length_b                    11.169084
_cell_length_c                    18.601349
_cell_angle_alpha                 90.190629
_cell_angle_beta                  92.064928
_cell_angle_gamma                 89.363528
_cell_volume                      3910.60415243

loop_
_atom_site_label
_atom_site_type_symbol
_atom_type_description
_atom_site_fract_x
_atom_site_fract_y
_atom_site_fract_z
_atom_type_partial_charge
C1    C     C_R   0.714979 0.337028 0.138017 0.562216
C2    C     C_R   0.230022 0.857042 0.061804 0.003057
C3    C     C_R   0.661682 0.612265 0.391528 0.312196
C4    C     C_R   0.835516 0.208090 0.603462 -0.086471
C5    C     C_R   0.092982 0.122191 0.417370 -0.070972
C6    C     C_R   0.335518 0.708088 0.603462 -0.086470
C7    C     C_R   0.592981 0.622193 0.417370 -0.070976
C8    C     C_R   0.856406 0.213373 0.533136 -0.179873
C9    C     C_R   0.081286 0.095098 0.488430 -0.104457
C10   C     C_R   0.356408 0.713368 0.533136 -0.179821
C11   C     C_R   0.581285 0.595100 0.488430 -0.104443
C12   C     C_R   0.819799 0.154896 0.477160 -0.141381
C13   C     C_R   0.268880 0.363101 0.936415 -0.005577
C14   C     C_R   0.138338 0.077360 0.536176 -0.135106
C15   C     C_R   0.319803 0.654889 0.477160 -0.141315
C16   C     C_R   0.638337 0.577363 0.536176 -0.135117
C17   C     C_R   0.731220 0.998907 0.441441 -0.004869
C18   C     C_R   0.267738 0.017646 0.555596 -0.004043
C19   C     C_R   0.231221 0.498906 0.441440 -0.004879
C20   C     C_R   0.767738 0.517648 0.555595 -0.004041
C21   C     C_R   0.734902 0.390796 0.348148 0.581585
C22   C     C_R   0.266316 0.380952 0.647811 0.599726
C23   C     C_R   0.234902 0.890795 0.348149 0.581577
C24   C     C_R   0.730023 0.357042 0.061804 0.003057
C25   C     C_R   0.766315 0.880952 0.647811 0.599712
C26   C     C_R   0.534198 0.157474 0.354872 0.547552
C27   C     C_R   0.470547 0.157071 0.649267 0.539686
C28   C     C_R   0.034198 0.657474 0.354872 0.547616
C29   C     C_R   0.970547 0.657070 0.649267 0.539687
C30   C     C_R   0.728404 0.023440 0.363990 0.575321
C31   C     C_R   0.271197 0.025806 0.635765 0.575240
C32   C     C_R   0.228404 0.523439 0.363990 0.575314
C33   C     C_R   0.771197 0.525806 0.635765 0.575245
C34   C     C_3   0.507976 0.252440 0.971936 -0.119365
C35   C     C_R   0.712886 0.807794 0.974764 0.014704
C36   C     C_3   0.457792 0.262973 0.035767 -0.130677
C37   C     C_3   0.007976 0.752441 0.971936 -0.119367
C38   C     C_3   0.957791 0.762973 0.035767 -0.130675
C39   C     C_3   0.550284 0.151321 0.010866 -0.110695
C40   C     C_3   0.408224 0.167585 0.000455 -0.139278
C41   C     C_3   0.050284 0.651322 0.010866 -0.110697
C42   C     C_3   0.908224 0.667584 0.000455 -0.139277
C43   C     C_3   0.499537 0.161753 0.073372 0.050467
C44   C     C_3   0.459129 0.157190 0.938048 0.050543
C45   C     C_3   0.999537 0.661753 0.073372 0.050467
C46   C     C_R   0.294794 0.822073 0.028206 0.025873
C47   C     C_3   0.959129 0.657190 0.938048 0.050543
C48   C     C_3   0.439341 0.414801 0.418712 -0.095438
C49   C     C_3   0.570564 0.384418 0.635243 -0.075223
C50   C     C_3   0.939334 0.914895 0.418824 -0.095535
C51   C     C_3   0.070572 0.884406 0.635245 -0.075225
C52   C     C_3   0.792550 0.169565 0.744621 -0.100317
C53   C     C_3   0.121377 0.139759 0.271538 -0.082068
C54   C     C_3   0.292551 0.669577 0.744620 -0.100317
C55   C     C_3   0.621374 0.639753 0.271537 -0.082066
C56   C     C_R   0.212886 0.307795 0.974764 0.014705
C57   C     C_R   0.794795 0.322074 0.028207 0.025872
C58   C     C_R   0.712353 0.823839 0.050285 0.020386
C59   C     C_R   0.297741 0.831613 0.952239 0.025030
C60   C     C_R   0.212353 0.323840 0.050285 0.020387
C61   C     C_R   0.284689 0.338646 0.861477 0.546487
C62   C     C_R   0.797742 0.331614 0.952240 0.025030
C63   C     C_R   0.814440 0.953857 0.045256 -0.160486
C64   C     C_R   0.178455 0.915706 0.946252 -0.149961
C65   C     C_R   0.314440 0.453857 0.045256 -0.160487
C66   C     C_R   0.678456 0.415706 0.946252 -0.149962
C67   C     C_R   0.819587 0.932023 0.973647 -0.164082
C68   C     C_R   0.171928 0.896224 0.018828 -0.161107
C69   C     C_R   0.319587 0.432023 0.973647 -0.164081
C70   C     C_R   0.671929 0.396224 0.018828 -0.161107
C71   C     C_R   0.657289 0.737885 0.942699 -0.090646
C72   C     C_R   0.214980 0.837028 0.138017 0.562214
C73   C     C_R   0.357333 0.779755 0.065885 -0.107701
C74   C     C_R   0.157288 0.237886 0.942699 -0.090646
C75   C     C_R   0.857333 0.279756 0.065886 -0.107701
C76   C     C_R   0.109230 0.177802 0.984500 -0.134583
C77   C     C_R   0.914978 0.233766 0.029582 -0.153281
C78   C     C_R   0.609230 0.677802 0.984500 -0.134583
C79   C     C_R   0.414978 0.733765 0.029581 -0.153282
C80   C     C_R   0.614940 0.683918 0.058711 -0.118872
C81   C     C_R   0.413090 0.729892 0.955281 -0.128425
C82   C     C_R   0.114940 0.183918 0.058711 -0.118873
C83   C     C_R   0.784690 0.838645 0.861477 0.546487
C84   C     C_R   0.913091 0.229894 0.955282 -0.128427
C85   C     C_R   0.665733 0.756823 0.091225 -0.082309
C86   C     C_R   0.355642 0.779103 0.916919 -0.083487
C87   C     C_R   0.165733 0.256823 0.091224 -0.082310
C88   C     C_R   0.855643 0.279104 0.916921 -0.083489
C89   C     C_R   0.530037 0.155481 0.146101 0.540579
C90   C     C_R   0.436961 0.151221 0.861902 0.556204
C91   C     C_R   0.030037 0.655481 0.146101 0.540587
C92   C     C_R   0.936961 0.651221 0.861902 0.556204
C93   C     C_R   0.758905 0.906541 0.083401 0.000096
C94   C     C_3   0.450825 0.066638 0.039609 -0.109371
C95   C     C_R   0.243006 0.894820 0.913905 -0.004639
C96   C     C_R   0.258905 0.406541 0.083401 0.000093
C97   C     C_R   0.743006 0.394820 0.913905 -0.004638
C98   C     C_R   0.511529 0.165551 0.582919 -0.058835
C99   C     C_R   0.512217 0.164028 0.431278 -0.048092
C100  C     C_R   0.011530 0.665550 0.582919 -0.058817
C101  C     C_R   0.012218 0.664026 0.431278 -0.048035
C102  C     C_R   0.525862 0.059703 0.545975 -0.023859
C103  C     C_R   0.511992 0.056565 0.471449 -0.021600
C104  C     C_R   0.025862 0.559701 0.545976 -0.023860
C105  C     C_3   0.501263 0.056087 0.976407 -0.087432
C106  C     C_R   0.011992 0.556563 0.471449 -0.021617
C107  C     C_R   0.512015 0.274179 0.469607 0.269508
C108  C     C_R   0.514277 0.275023 0.545786 0.265318
C109  C     C_R   0.012014 0.774177 0.469606 0.269500
C110  C     C_R   0.014278 0.775021 0.545786 0.265260
C111  C     C_R   0.543803 0.953204 0.582875 -0.056644
C112  C     C_R   0.496656 0.944954 0.440128 -0.078365
C113  C     C_R   0.043802 0.453203 0.582875 -0.056646
C114  C     C_R   0.996657 0.444953 0.440128 -0.078371
C115  C     C_R   0.031716 0.344039 0.549910 -0.132941
C116  C     C_3   0.950825 0.566638 0.039608 -0.109369
C117  C     C_R   0.007015 0.341129 0.478572 -0.151894
C118  C     C_R   0.531716 0.844040 0.549910 -0.132941
C119  C     C_R   0.507015 0.841130 0.478572 -0.151894
C120  C     C_R   0.733055 0.939882 0.586060 0.021659
C121  C     C_R   0.261907 0.970227 0.407348 0.027297
C122  C     C_R   0.233056 0.439881 0.586060 0.021665
C123  C     C_R   0.761907 0.470229 0.407348 0.027301
C124  C     C_R   0.756714 0.051342 0.566726 0.056135
C125  C     C_R   0.213856 0.053848 0.436184 0.064947
C126  C     C_R   0.256715 0.551340 0.566725 0.056142
C127  C     C_3   0.001264 0.556087 0.976406 -0.087433
C128  C     C_R   0.713855 0.553850 0.436184 0.064947
C129  C     C_R   0.768037 0.071418 0.493321 -0.033888
C130  C     C_R   0.207055 0.052840 0.511435 -0.027985
C131  C     C_R   0.268039 0.571415 0.493321 -0.033876
C132  C     C_R   0.707054 0.552843 0.511435 -0.027983
C133  C     C_R   0.690721 0.903275 0.465651 -0.128530
C134  C     C_R   0.328678 0.978741 0.520281 -0.156369
C135  C     C_R   0.190721 0.403274 0.465651 -0.128535
C136  C     C_R   0.828678 0.478745 0.520280 -0.156365
C137  C     C_R   0.743503 0.965955 0.150974 0.553610
C138  C     C_R   0.768880 0.863100 0.936415 -0.005576
C139  C     C_R   0.256898 0.963766 0.848680 0.533700
C140  C     C_R   0.243503 0.465955 0.150974 0.553603
C141  C     C_R   0.756898 0.463766 0.848680 0.533706
C142  C     C_R   0.695452 0.870380 0.536689 -0.177490
C143  C     C_R   0.323191 0.943582 0.447742 -0.170410
C144  C     C_R   0.195452 0.370380 0.536689 -0.177494
C145  C     C_R   0.823191 0.443586 0.447742 -0.170402
C146  C     C_R   0.781010 0.130996 0.620632 0.311973
C147  C     C_R   0.161684 0.112265 0.391529 0.312196
C148  C     C_R   0.281011 0.630993 0.620632 0.311966
Cr1   Cr    Cr6+3 0.772820 0.169820 0.252640 0.971958
Cr2   Cr    Cr6+3 0.383280 0.011130 0.749340 0.960985
Cr3   Cr    Cr6+3 0.116720 0.511130 0.250660 0.996830
Cr4   Cr    Cr6+3 0.883280 0.511130 0.749340 0.960986
Cr5   Cr    Cr6+3 0.227180 0.169820 0.747360 0.965981
Cr6   Cr    Cr6+3 0.272820 0.669820 0.252640 0.971937
Cr7   Cr    Cr6+3 0.727180 0.669820 0.747360 0.965983
Cr8   Cr    Cr6+3 0.615040 0.323610 0.249150 1.007891
Cr9   Cr    Cr6+3 0.384960 0.323610 0.750850 1.008750
Cr10  Cr    Cr6+3 0.115040 0.823610 0.249150 1.007928
Cr11  Cr    Cr6+3 0.884960 0.823610 0.750850 1.008731
Cr12  Cr    Cr6+3 0.616720 0.011130 0.250660 0.996835
H1    H     H_    0.609094 0.144504 0.016687 0.118531
H2    H     H_    0.988271 0.260238 0.453784 0.081781
H3    H     H_    0.537792 0.763296 0.581357 0.096549
H4    H     H_    0.488269 0.760238 0.453785 0.081786
H5    H     H_    0.659633 0.847552 0.429314 0.173528
H6    H     H_    0.377556 0.961499 0.550860 0.157806
H7    H     H_    0.159632 0.347553 0.429314 0.173531
H8    H     H_    0.877557 0.461503 0.550860 0.157805
H9    H     H_    0.672902 0.787926 0.552935 0.142917
H10   H     H_    0.363054 0.887262 0.424696 0.108603
H11   H     H_    0.172901 0.287926 0.552935 0.142918
H12   H     H_    0.349449 0.171130 0.994897 0.117275
H13   H     H_    0.863054 0.387267 0.424695 0.108604
H14   H     H_    0.863598 0.261607 0.643312 0.122548
H15   H     H_    0.048365 0.148971 0.382933 0.075172
H16   H     H_    0.363598 0.761606 0.643311 0.122543
H17   H     H_    0.548363 0.648971 0.382932 0.075164
H18   H     H_    0.898570 0.269804 0.522318 0.126235
H19   H     H_    0.028003 0.096547 0.508229 0.162581
H20   H     H_    0.398573 0.769798 0.522318 0.126224
H21   H     H_    0.528002 0.596546 0.508229 0.162638
H22   H     H_    0.836567 0.170166 0.423340 0.158104
H23   H     H_    0.109094 0.644506 0.016687 0.118531
H24   H     H_    0.124551 0.085141 0.590785 0.154488
H25   H     H_    0.336572 0.670160 0.423341 0.158097
H26   H     H_    0.624551 0.585146 0.590786 0.154480
H27   H     H_    0.530369 0.328542 0.942447 0.112600
H28   H     H_    0.442974 0.347089 0.063353 0.112868
H29   H     H_    0.030368 0.828543 0.942447 0.112601
H30   H     H_    0.942973 0.847088 0.063354 0.112874
H31   H     H_    0.427785 0.992245 0.069921 0.133445
H32   H     H_    0.519369 0.970745 0.951907 0.143574
H33   H     H_    0.927786 0.492244 0.069921 0.133447
H34   H     H_    0.849449 0.671128 0.994898 0.117276
H35   H     H_    0.019370 0.470745 0.951907 0.143574
H36   H     H_    0.853487 0.012848 0.069997 0.149194
H37   H     H_    0.133790 0.954350 0.915992 0.129003
H38   H     H_    0.353487 0.512848 0.069997 0.149192
H39   H     H_    0.633790 0.454350 0.915992 0.129003
H40   H     H_    0.646799 0.728074 0.886113 0.168259
H41   H     H_    0.366490 0.784435 0.122972 0.152490
H42   H     H_    0.146798 0.228074 0.886113 0.168259
H43   H     H_    0.866490 0.284439 0.122972 0.152491
H44   H     H_    0.864482 0.970652 0.947642 0.149184
H45   H     H_    0.562450 0.954269 0.638667 0.145522
H46   H     H_    0.120964 0.915097 0.041898 0.133720
H47   H     H_    0.364482 0.470652 0.947641 0.149184
H48   H     H_    0.620964 0.415097 0.041898 0.133721
H49   H     H_    0.068561 0.123009 0.959082 0.086867
H50   H     H_    0.961051 0.199930 0.059604 0.104002
H51   H     H_    0.568561 0.623009 0.959082 0.086868
H52   H     H_    0.461050 0.699928 0.059602 0.104000
H53   H     H_    0.079743 0.132709 0.091174 0.090156
H54   H     H_    0.956624 0.190656 0.926847 0.098205
H55   H     H_    0.579742 0.632710 0.091174 0.090153
H56   H     H_    0.471173 0.936199 0.387450 0.136219
H57   H     H_    0.456623 0.690654 0.926845 0.098205
H58   H     H_    0.669729 0.758744 0.148810 0.130455
H59   H     H_    0.356914 0.772218 0.859356 0.107525
H60   H     H_    0.169729 0.258743 0.148810 0.130450
H61   H     H_    0.856917 0.272219 0.859357 0.107526
H62   H     H_    0.410350 0.427513 0.469365 0.150887
H63   H     H_    0.411664 0.348161 0.383312 0.126472
H64   H     H_    0.438066 0.501690 0.389966 0.127791
H65   H     H_    0.622841 0.373517 0.609955 0.149412
H66   H     H_    0.566971 0.314532 0.676946 0.128831
H67   H     H_    0.062449 0.454267 0.638668 0.145520
H68   H     H_    0.568438 0.470300 0.665100 0.127923
H69   H     H_    0.910471 0.927802 0.469526 0.151036
H70   H     H_    0.911538 0.848226 0.383554 0.126475
H71   H     H_    0.938050 0.001701 0.389994 0.127789
H72   H     H_    0.122850 0.873503 0.609955 0.149416
H73   H     H_    0.066976 0.814519 0.676946 0.128834
H74   H     H_    0.068449 0.970286 0.665103 0.127934
H75   H     H_    0.793172 0.268556 0.743094 0.149501
H76   H     H_    0.847215 0.130664 0.744746 0.117893
H77   H     H_    0.768639 0.143382 0.795811 0.154805
H78   H     H_    0.971174 0.436197 0.387450 0.136222
H79   H     H_    0.093665 0.228047 0.269101 0.096270
H80   H     H_    0.083455 0.066353 0.281234 0.122663
H81   H     H_    0.142253 0.117974 0.218556 0.150185
H82   H     H_    0.293160 0.768570 0.743087 0.149515
H83   H     H_    0.347220 0.630694 0.744747 0.117872
H84   H     H_    0.268642 0.643390 0.795810 0.154806
H85   H     H_    0.593661 0.728042 0.269100 0.096263
H86   H     H_    0.583453 0.566347 0.281235 0.122653
H87   H     H_    0.642250 0.617966 0.218555 0.150190
H88   H     H_    0.037791 0.263294 0.581357 0.096549
O1    O     O_R   0.788190 0.043000 0.172520 -0.533766
O2    O     O_R   0.454170 0.051610 0.669840 -0.540684
O3    O     O_R   0.045830 0.551610 0.330160 -0.545756
O4    O     O_R   0.954170 0.551610 0.669840 -0.540686
O5    O     O_R   0.681920 0.959720 0.327070 -0.485441
O6    O     O_R   0.318080 0.959720 0.672930 -0.522639
O7    O     O_R   0.181920 0.459720 0.327070 -0.485443
O8    O     O_R   0.818080 0.459720 0.672930 -0.522630
O9    O     O_3   0.668190 0.168190 0.250820 -0.282629
O10   O     O_3   0.331810 0.168190 0.749180 -0.295827
O11   O     O_3   0.168190 0.668190 0.250820 -0.282636
O12   O     O_R   0.211810 0.043000 0.827480 -0.536222
O13   O     O_3   0.831810 0.668190 0.749180 -0.295826
O14   O     O_R   0.766240 0.292300 0.176860 -0.522404
O15   O     O_R   0.233760 0.292300 0.823140 -0.515478
O16   O     O_R   0.266240 0.792300 0.176860 -0.522404
O17   O     O_R   0.733760 0.792300 0.823140 -0.515478
O18   O     O_R   0.670310 0.409160 0.168720 -0.535948
O19   O     O_R   0.329690 0.409160 0.831280 -0.533453
O20   O     O_R   0.170310 0.909160 0.168720 -0.535948
O21   O     O_R   0.829690 0.909160 0.831280 -0.533460
O22   O     O_R   0.556160 0.251900 0.173380 -0.526059
O23   O     O_R   0.288190 0.543000 0.172520 -0.533775
O24   O     O_R   0.443840 0.251900 0.826620 -0.519956
O25   O     O_R   0.056160 0.751900 0.173380 -0.526052
O26   O     O_R   0.943840 0.751900 0.826620 -0.519954
O27   O     O_R   0.545410 0.050140 0.168240 -0.519621
O28   O     O_R   0.454590 0.050140 0.831760 -0.516639
O29   O     O_R   0.045410 0.550140 0.168240 -0.519622
O30   O     O_R   0.954590 0.550140 0.831760 -0.516640
O31   O     O_R   0.681530 0.958350 0.176970 -0.500742
O32   O     O_R   0.318470 0.958350 0.823030 -0.532019
O33   O     O_R   0.181530 0.458350 0.176970 -0.500741
O34   O     O_R   0.711810 0.543000 0.827480 -0.536222
O35   O     O_R   0.818470 0.458350 0.823030 -0.532018
O36   O     O_R   0.788610 0.044480 0.334450 -0.544670
O37   O     O_R   0.211390 0.044480 0.665550 -0.556849
O38   O     O_R   0.288610 0.544480 0.334450 -0.544688
O39   O     O_R   0.711390 0.544480 0.665550 -0.556844
O40   O     O_R   0.766630 0.293670 0.326970 -0.536778
O41   O     O_R   0.233370 0.293670 0.673030 -0.530597
O42   O     O_R   0.266630 0.793670 0.326970 -0.536778
O43   O     O_R   0.733370 0.793670 0.673030 -0.530593
O44   O     O_R   0.670730 0.410640 0.330640 -0.475705
O45   O     O_R   0.556550 0.253260 0.323480 -0.454014
O46   O     O_R   0.329270 0.410640 0.669360 -0.483308
O47   O     O_R   0.170730 0.910640 0.330640 -0.475708
O48   O     O_R   0.829270 0.910640 0.669360 -0.483339
O49   O     O_3   0.510867 0.381384 0.433016 -0.536985
O50   O     O_3   0.514206 0.383406 0.582465 -0.552533
O51   O     O_3   0.010859 0.881374 0.433007 -0.537000
O52   O     O_3   0.014214 0.883404 0.582466 -0.552613
O53   O     O_3   0.749634 0.125103 0.687480 -0.577310
O54   O     O_3   0.179478 0.143483 0.321808 -0.561248
O55   O     O_3   0.249638 0.625093 0.687481 -0.577311
O56   O     O_R   0.443450 0.253260 0.676520 -0.461246
O57   O     O_3   0.679476 0.643481 0.321806 -0.561240
O58   O     O_R   0.056550 0.753260 0.323480 -0.453959
O59   O     O_R   0.943450 0.753260 0.676520 -0.461247
O60   O     O_R   0.545830 0.051610 0.330160 -0.545737

loop_
_geom_bond_atom_site_label_1
_geom_bond_atom_site_label_2
_ccdc_geom_bond_type
Cr4   O13   S    
C99   C103  A    
C11   H21   S    
C23   O42   A    
C15   H25   S    
C43   C89   S    
C25   O43   A    
C111  C118  A    
C54   H82   S    
C66   C97   A    
Cr2   O28   S    
C53   O54   S    
Cr3   O33   S    
Cr2   O6    S    
C148  O55   S    
C82   C87   A    
C100  C104  A    
C98   C108  A    
C7    H17   S    
C50   H69   S    
C29   O59   A    
C67   C138  A    
C61   O19   A    
C38   C45   S    
C134  C143  A    
C65   C96   A    
C123  C145  A    
C38   H30   S    
C110  O52   S    
C26   O45   A    
C81   C86   A    
Cr4   O35   S    
C35   C71   A    
C17   C30   S    
C102  C111  A    
C20   C132  A    
C19   C32   S    
C53   H80   S    
C51   O52   S    
C22   C122  S    
C79   H52   S    
C29   O4    A    
C83   O17   A    
Cr4   O8    S    
Cr12  O60   S    
C98   C102  A    
Cr9   O24   S    
C73   H41   S    
C34   C39   S    
C103  C112  A    
C36   H28   S    
Cr12  O5    S    
C21   C123  S    
C37   C38   S    
C127  H35   S    
C91   O25   A    
C139  O12   A    
C3    O57   S    
C30   O5    A    
C34   C44   S    
Cr12  O27   S    
C49   H68   S    
Cr7   O17   S    
C20   C33   S    
C42   C116  S    
C17   C133  A    
C18   C130  A    
C52   H76   S    
C115  H88   S    
C14   C130  A    
C31   O6    A    
C28   O58   A    
C52   O53   S    
C84   C88   A    
C95   C139  S    
C51   H73   S    
C28   O3    A    
C66   C70   A    
C69   H47   S    
C48   H62   S    
C32   O7    A    
Cr12  O9    S    
C92   O30   A    
C141  O34   A    
Cr7   O13   S    
C146  O53   S    
Cr8   O18   S    
C89   O27   A    
C41   C45   S    
C63   H36   S    
C90   O28   A    
C18   C31   S    
C101  C109  A    
C83   C138  S    
Cr10  O11   S    
C113  C115  A    
Cr11  O21   S    
C26   O60   A    
C47   C92   S    
C41   C127  S    
Cr3   O11   S    
C71   H40   S    
C44   C105  S    
C5    C9    A    
C144  H11   S    
C133  C142  A    
C74   C76   A    
Cr8   O45   S    
C35   C58   A    
C64   C68   A    
C53   H81   S    
Cr10  O47   S    
C32   O38   A    
C78   C80   A    
C113  H67   S    
C82   H53   S    
C72   O20   A    
C43   C94   S    
C33   O39   A    
C24   C57   A    
C107  C108  A    
C37   C47   S    
C9    H19   S    
C26   C99   S    
C114  H78   S    
C13   C56   A    
C16   C132  A    
Cr2   O2    S    
Cr10  O58   S    
C89   O22   A    
C109  O51   S    
C61   O15   A    
C76   C82   A    
C75   H43   S    
C3    C128  A    
C48   H64   S    
C77   C84   A    
C124  C146  A    
C116  C127  S    
C27   O56   A    
C85   H58   S    
C121  C125  A    
C62   C97   A    
C55   O57   S    
C8    C12   A    
C81   H57   S    
C73   C79   A    
C21   O44   A    
C87   H60   S    
C20   C136  A    
C75   C77   A    
Cr1   O9    S    
C77   H50   S    
C68   H46   S    
C49   H65   S    
Cr4   O4    S    
Cr10  O25   S    
Cr8   O9    S    
C101  C106  A    
C137  O31   A    
C143  H10   S    
C40   C94   S    
C119  H4    S    
C96   C140  S    
C47   C127  S    
C117  H2    S    
C140  O23   A    
C54   H83   S    
C57   C75   A    
C45   C116  S    
C13   C69   A    
C50   H70   S    
C18   C134  A    
C34   C36   S    
C112  H56   S    
C37   C41   S    
C102  C103  A    
Cr5   O15   S    
C21   O40   A    
C114  C117  A    
Cr6   O16   S    
C104  C113  A    
C40   C44   S    
C15   C131  A    
C1    C24   S    
C135  H7    S    
Cr7   O39   S    
C46   C73   A    
Cr11  O59   S    
C94   C105  S    
C100  C110  A    
C5    C147  A    
C53   H79   S    
C104  C106  A    
C23   C121  S    
C58   C93   A    
C3    C7    A    
C48   O49   S    
C23   O47   A    
Cr8   O22   S    
C19   C135  A    
Cr8   O44   S    
C91   O29   A    
C22   O41   A    
C94   H31   S    
C28   C101  S    
C12   H22   S    
C1    O18   A    
Cr5   O41   S    
C115  C117  A    
C55   H86   S    
C134  H6    S    
C111  H45   S    
C4    H14   S    
C64   H37   S    
C5    H15   S    
C31   O37   A    
C2    C72   S    
Cr5   O10   S    
C80   H55   S    
Cr1   O1    S    
C118  H3    S    
C72   O16   A    
C56   C74   A    
C12   C129  A    
C24   C70   A    
C139  O32   A    
Cr11  O48   S    
C107  O49   S    
C126  C148  A    
Cr3   O3    S    
C74   H42   S    
C56   C60   A    
C1    O14   A    
C54   O55   S    
C9    C14   A    
C80   C85   A    
C133  H5    S    
C11   C16   A    
Cr11  O13   S    
C97   C141  S    
Cr4   O30   S    
C142  H9    S    
C60   C96   A    
C125  C147  A    
Cr1   O40   S    
Cr9   O56   S    
Cr6   O23   S    
C22   O46   A    
C25   C120  S    
Cr1   O14   S    
C40   H12   S    
C29   C100  S    
Cr11  O26   S    
C33   O8    A    
C6    C10   A    
C112  C119  A    
C137  O1    A    
C108  O50   S    
C99   C107  A    
C63   C93   A    
C2    C68   A    
C10   H20   S    
C109  C110  A    
C62   C88   A    
C65   C69   A    
C124  C129  A    
C86   H59   S    
C49   O50   S    
C45   C91   S    
Cr2   O32   S    
C88   H61   S    
C41   H23   S    
C36   C43   S    
Cr5   O12   S    
C78   H51   S    
Cr6   O11   S    
C52   H75   S    
C76   H49   S    
Cr9   O46   S    
C37   H29   S    
C27   C98   S    
C46   C59   A    
C121  C143  A    
C122  C144  A    
C140  O33   A    
C4    C8    A    
C57   C62   A    
C2    C46   A    
C7    C11   A    
C50   O51   S    
C106  C114  A    
C51   H74   S    
C27   O2    A    
C38   C42   S    
C10   C15   A    
C35   C138  A    
C70   H48   S    
C42   H34   S    
C83   O21   A    
C118  C119  A    
C141  O35   A    
C67   H44   S    
C125  C130  A    
Cr6   O38   S    
C39   H1    S    
C136  C145  A    
C147  O54   S    
C55   H87   S    
C105  H32   S    
C34   H27   S    
Cr12  O31   S    
C59   C95   A    
C128  C132  A    
C60   C87   A    
C84   H54   S    
C19   C131  A    
Cr9   O19   S    
C63   C67   A    
Cr10  O20   S    
C17   C129  A    
C36   C40   S    
C120  C142  A    
C79   C81   A    
C39   C43   S    
C136  H8    S    
Cr6   O42   S    
C65   H38   S    
C54   H84   S    
C122  C126  A    
C6    C148  A    
Cr9   O10   S    
C4    C146  A    
C30   O36   A    
C50   H71   S    
C52   H77   S    
C116  H33   S    
C135  C144  A    
C145  H13   S    
C25   O48   A    
C92   O26   A    
C58   C85   A    
C44   C90   S    
Cr3   O7    S    
C39   C105  S    
Cr7   O43   S    
C51   H72   S    
C90   O24   A    
C66   H39   S    
C64   C95   A    
C14   H24   S    
C48   H63   S    
Cr7   O34   S    
Cr3   O29   S    
C59   C86   A    
C16   H26   S    
Cr2   O10   S    
Cr5   O37   S    
C123  C128  A    
C6    H16   S    
C126  C131  A    
Cr1   O36   S    
C42   C47   S    
C93   C137  S    
C8    H18   S    
C13   C61   S    
C55   H85   S    
C49   H66   S    
C71   C78   A    
C120  C124  A    
