data_mof_unit_45021.cif
_audit_creation_date              2012-12-10T19:52:20-0500
_audit_creation_method            fapswitch 2.2
_symmetry_space_group_name_H-M    P1
_symmetry_Int_Tables_number       1
_space_group_crystal_system       triclinic
_cell_length_a                    15.014212
_cell_length_b                    14.243361
_cell_length_c                    10.679771
_cell_angle_alpha                 89.041739
_cell_angle_beta                  91.748308
_cell_angle_gamma                 89.751678
_cell_volume                      2282.49012009

loop_
_atom_site_label
_atom_site_type_symbol
_atom_type_description
_atom_site_fract_x
_atom_site_fract_y
_atom_site_fract_z
_atom_type_partial_charge
C1    C     C_R   0.327730 0.500111 0.511220 0.863641
C2    C     C_R   0.904447 0.550676 0.598452 0.011857
C3    C     C_R   0.810802 0.446817 0.415947 -0.203836
C4    C     C_R   0.812145 0.551835 0.593155 -0.239214
C5    C     C_R   0.766462 0.499443 0.503335 -0.056279
C6    C     C_R   0.950003 0.500140 0.506533 0.007097
C7    C     C_R   0.445406 0.101301 0.437142 -0.297958
C8    C     C_R   0.491341 0.903658 0.407111 -0.282293
C9    C     C_R   0.505979 0.500370 0.258339 0.999370
C10   C     C_R   0.450610 0.198806 0.418447 0.169199
C11   C     C_R   0.482360 0.805814 0.397046 0.157917
C12   C     C_3   0.532911 0.598962 0.928269 1.115006
C13   C     C_R   0.548824 0.208695 0.594780 -0.001055
C14   C     C_R   0.524506 0.788643 0.611397 0.031180
C15   C     C_R   0.551895 0.109513 0.607627 -0.289121
C16   C     C_R   0.526256 0.887609 0.625139 -0.297027
C17   C     C_R   0.500579 0.053548 0.525993 0.112760
C18   C     C_R   0.507393 0.947211 0.521531 0.117019
C19   C     C_R   0.671588 0.499818 0.500784 0.901568
C20   C     C_R   0.504284 0.499500 0.742482 0.919319
C21   C     C_3   0.415681 0.475690 0.069641 0.389678
C22   C     C_3   0.577836 0.426215 0.076939 0.391389
C23   C     C_R   0.091119 0.584327 0.502643 -0.198950
C24   C     C_3   0.415984 0.470654 0.926877 -0.546836
C25   C     C_3   0.578905 0.427921 0.932336 -0.530314
C26   C     C_3   0.537490 0.597248 0.071138 -0.394247
C27   C     C_3   0.509665 0.500197 0.121997 -0.202552
C28   C     C_3   0.508262 0.499364 0.879385 -0.120069
C29   C     C_R   0.411395 0.235065 0.298773 0.140476
C30   C     C_R   0.326399 0.275914 0.293245 -0.117877
C31   C     C_R   0.277541 0.282237 0.179964 -0.163941
C32   C     C_R   0.313313 0.247718 0.070567 -0.144652
C33   C     C_R   0.399248 0.209472 0.074115 -0.183722
C34   C     C_R   0.091039 0.416396 0.537220 -0.208748
C35   C     C_R   0.448091 0.203460 0.187342 -0.209203
C36   C     C_R   0.440198 0.775456 0.276784 0.092861
C37   C     C_R   0.467010 0.817151 0.162887 -0.252676
C38   C     C_R   0.411670 0.814467 0.055213 -0.080692
C39   C     C_R   0.329755 0.768609 0.058703 -0.048283
C40   C     C_R   0.303072 0.726082 0.169850 -0.069556
C41   C     C_R   0.357980 0.729640 0.277637 -0.069782
C42   C     C_R   0.220888 0.680908 0.554680 0.124314
C43   C     C_R   0.275185 0.692167 0.663124 -0.049701
C44   C     C_R   0.309556 0.780346 0.692897 -0.130862
C45   C     C_R   0.182483 0.587237 0.524437 -0.000802
C46   C     C_R   0.288182 0.858609 0.617295 -0.134183
C47   C     C_R   0.231790 0.849107 0.512053 -0.138072
C48   C     C_R   0.197440 0.761072 0.481459 -0.208039
C49   C     C_R   0.224838 0.324537 0.596358 0.116495
C50   C     C_R   0.196085 0.237495 0.548759 -0.206809
C51   C     C_R   0.237009 0.153783 0.590435 -0.139875
C52   C     C_R   0.306347 0.155796 0.680437 -0.110179
C53   C     C_R   0.333605 0.241252 0.730352 -0.135224
C54   C     C_R   0.290972 0.324567 0.691823 -0.079986
C55   C     C_R   0.947972 0.397822 0.313337 0.126705
C56   C     C_R   0.183336 0.414792 0.550624 -0.007804
C57   C     C_R   0.003217 0.446254 0.230482 -0.093655
C58   C     C_R   0.042895 0.398772 0.132996 -0.145849
C59   C     C_R   0.027697 0.302911 0.117295 -0.131116
C60   C     C_R   0.973017 0.254229 0.199362 -0.123906
C61   C     C_R   0.932965 0.301443 0.296784 -0.164411
C62   C     C_R   0.951580 0.602551 0.700225 0.120443
C63   C     C_R   0.012574 0.556208 0.782916 -0.113900
C64   C     C_R   0.061682 0.606972 0.871965 -0.144014
C65   C     C_R   0.049110 0.703816 0.880953 -0.103413
C66   C     C_R   0.987157 0.750074 0.801172 -0.115496
C67   C     C_R   0.230943 0.500695 0.532152 -0.161222
C68   C     C_R   0.938428 0.699770 0.711223 -0.157723
C69   C     C_R   0.046296 0.499717 0.509239 0.069431
C70   C     C_R   0.903045 0.448358 0.414304 0.000448
F1    F     F_    0.352887 0.540471 0.105553 -0.671562
F2    F     F_    0.662451 0.444383 0.126179 -0.666289
F3    F     F_    0.468956 0.664225 0.887950 -0.713327
F4    F     F_    0.614692 0.626918 0.883633 -0.697317
H1    H     H_    0.773217 0.407627 0.346103 0.197334
H2    H     H_    0.558650 0.354759 0.109382 0.114693
H3    H     H_    0.401852 0.397124 0.900283 0.151887
H4    H     H_    0.564340 0.356171 0.897565 0.162634
H5    H     H_    0.362541 0.516441 0.884297 0.228709
H6    H     H_    0.646240 0.447297 0.899959 0.250731
H7    H     H_    0.490937 0.649876 0.104543 0.237290
H8    H     H_    0.605423 0.615879 0.107007 0.210373
H9    H     H_    0.052915 0.648849 0.491339 0.141076
H10   H     H_    0.052656 0.353335 0.553924 0.137100
H11   H     H_    0.296000 0.298736 0.376587 0.167915
H12   H     H_    0.775699 0.590922 0.661519 0.178635
H13   H     H_    0.211620 0.312822 0.177598 0.155352
H14   H     H_    0.274793 0.251571 0.983388 0.140404
H15   H     H_    0.427426 0.181795 0.990411 0.129441
H16   H     H_    0.512510 0.168779 0.189639 0.135473
H17   H     H_    0.529413 0.854784 0.158673 0.146530
H18   H     H_    0.432331 0.848205 0.969383 0.145535
H19   H     H_    0.286523 0.766559 0.975930 0.118721
H20   H     H_    0.238900 0.691911 0.173314 0.136129
H21   H     H_    0.333450 0.702610 0.363449 0.173240
H22   H     H_    0.291564 0.632522 0.723842 0.126104
H23   H     H_    0.400159 0.062794 0.376332 0.142553
H24   H     H_    0.353351 0.788050 0.774146 0.165576
H25   H     H_    0.315361 0.926596 0.640275 0.126144
H26   H     H_    0.215123 0.909863 0.453627 0.127474
H27   H     H_    0.154843 0.755019 0.398358 0.122127
H28   H     H_    0.144512 0.234553 0.475812 0.136417
H29   H     H_    0.215970 0.087553 0.551386 0.126916
H30   H     H_    0.339354 0.091365 0.710998 0.121127
H31   H     H_    0.388366 0.243226 0.797977 0.116150
H32   H     H_    0.311235 0.390139 0.732509 0.101403
H33   H     H_    0.014741 0.520798 0.240522 0.127347
H34   H     H_    0.481196 0.946980 0.323925 0.138463
H35   H     H_    0.085618 0.436130 0.069694 0.130250
H36   H     H_    0.058639 0.266307 0.041844 0.125314
H37   H     H_    0.961462 0.179934 0.187289 0.127959
H38   H     H_    0.890479 0.262941 0.359506 0.127719
H39   H     H_    0.023116 0.481177 0.777068 0.128786
H40   H     H_    0.109993 0.571449 0.933455 0.132662
H41   H     H_    0.087409 0.742994 0.949701 0.115266
H42   H     H_    0.977495 0.825122 0.808215 0.127240
H43   H     H_    0.892011 0.736864 0.648277 0.133061
H44   H     H_    0.587503 0.250760 0.659738 0.132353
H45   H     H_    0.541400 0.745203 0.692282 0.218830
H46   H     H_    0.595113 0.077396 0.679239 0.139027
H47   H     H_    0.541125 0.916631 0.716365 0.142315
H48   H     H_    0.396330 0.406895 0.108426 0.134921
N1    N     N_R   0.499980 0.252470 0.500000 -0.108976
N2    N     N_R   0.499980 0.747530 0.500000 -0.124253
O1    O     O_R   0.369070 0.579480 0.500010 -0.628364
O2    O     O_R   0.369070 0.420520 0.500010 -0.618527
O3    O     O_R   0.499990 0.579480 0.314790 -0.612087
O4    O     O_R   0.499990 0.420520 0.314790 -0.640800
O5    O     O_R   0.630940 0.579480 0.499990 -0.616633
O6    O     O_R   0.630940 0.420520 0.499990 -0.628481
O7    O     O_R   0.500020 0.579480 0.685200 -0.580869
O8    O     O_R   0.500020 0.420520 0.685200 -0.651431
Zn1   Zn    Zn3+2 0.500010 0.606140 0.500000 0.982098
Zn2   Zn    Zn3+2 0.500010 0.393860 0.500000 0.951067

loop_
_geom_bond_atom_site_label_1
_geom_bond_atom_site_label_2
_ccdc_geom_bond_type
C19   O5    A    
C7    C10   A    
C66   C68   A    
C46   H25   S    
C34   C56   A    
C23   C45   A    
C12   F4    S    
C6    C69   S    
C25   H6    S    
C23   C69   A    
C11   N2    A    
C22   H2    S    
C16   H47   S    
C13   H44   S    
O6    Zn2   S    
C53   C54   A    
C25   C28   S    
C26   C27   S    
C29   C30   A    
C23   H9    S    
N2    Zn1   S    
C12   C28   S    
C36   C37   A    
C1    O1    A    
O4    Zn2   S    
C30   C31   A    
C13   N1    A    
C4    H12   S    
C51   H29   S    
C49   C54   A    
C58   H35   S    
C38   H18   S    
C59   H36   S    
C15   H46   S    
C15   C17   A    
C21   H48   S    
C41   H21   S    
C39   H19   S    
C1    C67   S    
C44   H24   S    
C52   H30   S    
C47   C48   A    
C7    C17   A    
C22   C25   S    
C45   C67   A    
C3    H1    S    
C19   O6    A    
C21   C27   S    
C59   C60   A    
C26   H8    S    
C12   F3    S    
C65   H41   S    
C36   C41   A    
C2    C6    A    
C34   H10   S    
C20   O8    A    
C8    H34   S    
C22   F2    S    
C44   C46   A    
C43   H22   S    
C9    O4    A    
C64   H40   S    
C37   H17   S    
N1    Zn2   S    
C51   C52   A    
C24   C28   S    
C3    C70   A    
C14   N2    A    
C1    O2    A    
C10   N1    A    
C39   C40   A    
C54   H32   S    
C42   C48   A    
C20   C28   S    
C50   C51   A    
C58   C59   A    
C8    C18   A    
C47   H26   S    
C25   H4    S    
C12   C26   S    
C60   C61   A    
C42   C45   S    
C2    C4    A    
C43   C44   A    
C37   C38   A    
C33   H15   S    
C68   H43   S    
C24   H5    S    
C31   C32   A    
C62   C63   A    
C17   C18   S    
C9    O3    A    
C30   H11   S    
C34   C69   A    
C66   H42   S    
O5    Zn1   S    
C16   C18   A    
C40   C41   A    
C57   H33   S    
C21   F1    S    
C50   H28   S    
C26   H7    S    
C22   C27   S    
C55   C57   A    
C49   C50   A    
C14   C16   A    
C31   H13   S    
C42   C43   A    
C20   O7    A    
C49   C56   S    
C3    C5    A    
C52   C53   A    
C9    C27   S    
O1    Zn1   S    
C6    C70   A    
C46   C47   A    
C11   C36   S    
C7    H23   S    
O3    Zn1   S    
C40   H20   S    
C4    C5    A    
O7    Zn1   S    
C5    C19   S    
C56   C67   A    
C29   C35   A    
C62   C68   A    
C64   C65   A    
C13   C15   A    
C60   H37   S    
C32   C33   A    
C10   C29   S    
C57   C58   A    
C38   C39   A    
C8    C11   A    
C48   H27   S    
C55   C61   A    
C33   C35   A    
C65   C66   A    
C55   C70   S    
C63   C64   A    
C63   H39   S    
C35   H16   S    
C53   H31   S    
C24   H3    S    
O2    Zn2   S    
O8    Zn2   S    
C14   H45   S    
C21   C24   S    
C61   H38   S    
C2    C62   S    
C32   H14   S    
