data_mof_unit_56588.cif
_audit_creation_date              2012-10-26T20:22:31-0400
_audit_creation_method            fapswitch 2.2
_symmetry_space_group_name_H-M    P1
_symmetry_Int_Tables_number       1
_space_group_crystal_system       triclinic
_cell_length_a                    9.51901
_cell_length_b                    10.83047
_cell_length_c                    17.26123
_cell_angle_alpha                 90.467576
_cell_angle_beta                  86.701137
_cell_angle_gamma                 89.271227
_cell_volume                      1776.38959714

loop_
_atom_site_label
_atom_site_type_symbol
_atom_type_description
_atom_site_fract_x
_atom_site_fract_y
_atom_site_fract_z
_atom_type_partial_charge
C1    C     C_R   0.498681 0.737709 0.503138 0.585811
C2    C     C_R   0.081443 0.449546 0.439420 0.037423
C3    C     C_R   0.067202 0.549745 0.560753 0.046654
C4    C     C_R   0.932818 0.450106 0.439292 0.066101
C5    C     C_R   0.482702 0.502687 0.650161 0.564878
C6    C     C_R   0.517273 0.498155 0.349821 0.572573
C7    C     C_R   0.477012 0.514775 0.734802 0.037886
C8    C     C_R   0.522950 0.487867 0.265094 0.038954
C9    C     C_R   0.602866 0.528979 0.772501 -0.119349
C10   C     C_R   0.397418 0.471789 0.227366 -0.112413
C11   C     C_R   0.599894 0.543739 0.852382 -0.095463
C12   C     C_R   0.501358 0.262212 0.497093 0.595124
C13   C     C_R   0.400565 0.458432 0.147381 -0.094678
C14   C     C_R   0.471399 0.543476 0.895754 0.051100
C15   C     C_R   0.528919 0.461667 0.104012 0.054244
C16   C     C_R   0.345154 0.531351 0.858775 -0.121075
C17   C     C_R   0.654821 0.476252 0.140960 -0.125635
C18   C     C_R   0.347794 0.517102 0.778364 -0.101332
C19   C     C_R   0.651979 0.489474 0.221422 -0.130056
C20   C     C_2   0.470337 0.549604 0.981069 0.261515
C21   C     C_2   0.530093 0.455447 0.018724 0.261483
C22   C     C_3   0.590632 0.246892 0.014421 -0.012880
C23   C     C_R   0.603330 0.929836 0.459174 -0.151777
C24   C     C_3   0.636917 0.144036 0.957724 -0.358457
C25   C     C_3   0.411880 0.758381 0.986169 -0.012701
C26   C     C_3   0.365590 0.860771 0.043204 -0.357304
C27   C     C_R   0.397301 0.069964 0.541897 -0.146032
C28   C     C_R   0.607325 0.057563 0.454168 0.252419
C29   C     C_R   0.393628 0.942171 0.547121 0.255939
C30   C     C_R   0.503129 0.128221 0.496698 -0.040439
C31   C     C_R   0.497267 0.871601 0.504138 -0.043543
C32   C     C_R   0.918568 0.550392 0.560600 0.017189
Cu1   Cu    Cu3+1 0.359340 0.499980 0.500000 1.032954
Cu2   Cu    Cu3+1 0.640660 0.500020 0.500000 1.018535
H1    H     H_    0.704030 0.528998 0.740414 0.124481
H2    H     H_    0.318439 0.125154 0.574638 0.183943
H3    H     H_    0.857293 0.591603 0.609004 0.106879
H4    H     H_    0.142731 0.408387 0.391004 0.115117
H5    H     H_    0.117010 0.589784 0.609546 0.156182
H6    H     H_    0.883062 0.410093 0.390496 0.144409
H7    H     H_    0.480082 0.228773 0.035809 0.129222
H8    H     H_    0.660717 0.244347 0.063773 0.149247
H9    H     H_    0.747317 0.158417 0.935583 0.170294
H10   H     H_    0.630197 0.053492 0.987361 0.096118
H11   H     H_    0.567645 0.143016 0.908096 0.169864
H12   H     H_    0.296428 0.469019 0.259521 0.123777
H13   H     H_    0.343122 0.762514 0.936280 0.154695
H14   H     H_    0.523105 0.775688 0.965693 0.128499
H15   H     H_    0.433562 0.860184 0.093398 0.170689
H16   H     H_    0.374280 0.951728 0.014185 0.096238
H17   H     H_    0.254523 0.847233 0.064419 0.171192
H18   H     H_    0.748747 0.260946 0.302308 0.347018
H19   H     H_    0.045856 0.825071 0.591752 0.352180
H20   H     H_    0.750086 0.501008 0.249298 0.120715
H21   H     H_    0.249417 0.507510 0.750480 0.133772
H22   H     H_    0.245405 0.530985 0.892300 0.123647
H23   H     H_    0.754419 0.479093 0.107389 0.122904
H24   H     H_    0.302926 0.446617 0.119023 0.124790
H25   H     H_    0.697828 0.553905 0.880695 0.127397
H26   H     H_    0.681992 0.874607 0.426324 0.185147
N1    N     N_R   0.147930 0.499970 0.499980 -0.227518
N2    N     N_R   0.852070 0.500030 0.500020 -0.227620
O1    O     O_R   0.381260 0.680340 0.500000 -0.421901
O2    O     O_3   0.398535 0.643276 0.023685 -0.587020
O3    O     O_2   0.853248 0.173080 0.440055 -0.271605
O4    O     O_2   0.804195 0.026184 0.336948 -0.292133
O5    O     O_3   0.671655 0.236871 0.339923 -0.537414
O6    O     O_2   0.317761 0.768952 0.652231 -0.301677
O7    O     O_2   0.203437 0.971926 0.667470 -0.301738
O8    O     O_3   0.129584 0.830297 0.555155 -0.502593
O9    O     O_R   0.618740 0.319660 0.500000 -0.427642
O10   O     O_R   0.618830 0.680370 0.500010 -0.521413
O11   O     O_R   0.381170 0.319630 0.499990 -0.515069
O12   O     O_R   0.367440 0.500000 0.613600 -0.500500
O13   O     O_R   0.632560 0.500000 0.386400 -0.504126
O14   O     O_R   0.605010 0.500030 0.613600 -0.527571
O15   O     O_R   0.394990 0.499970 0.386400 -0.524643
O16   O     O_3   0.601498 0.361498 0.976116 -0.587793
S1    S     S_3+6 0.740332 0.122764 0.391802 0.012957
S2    S     S_3+6 0.260412 0.876958 0.609426 0.010954

loop_
_geom_bond_atom_site_label_1
_geom_bond_atom_site_label_2
_ccdc_geom_bond_type
O6    S2    D    
O3    S1    D    
C27   C29   A    
C1    C31   S    
C6    O13   A    
O4    S1    D    
C24   H11   S    
C26   H16   S    
C11   C14   A    
C22   H7    S    
C4    N2    A    
Cu2   N2    S    
C7    C9    A    
C5    O12   A    
C28   S1    S    
C4    H6    S    
C21   O16   S    
C10   H12   S    
C25   H13   S    
C2    N1    A    
Cu2   O13   S    
C3    H5    S    
C12   O11   A    
C27   C30   A    
C11   H25   S    
H19   O8    S    
C1    O1    A    
C3    N1    A    
C23   H26   S    
C1    O10   A    
O8    S2    S    
C8    C19   A    
C14   C20   S    
O5    S1    S    
C22   O16   S    
C26   H15   S    
C5    C7    S    
C6    O15   A    
C6    C8    S    
C13   H24   S    
C25   C26   S    
C23   C28   A    
C25   O2    S    
C23   C31   A    
C20   O2    S    
C2    C4    A    
C16   H22   S    
C2    H4    S    
Cu1   O1    S    
C7    C18   A    
Cu1   Cu2   S    
C32   H3    S    
C9    C11   A    
C25   H14   S    
H18   O5    S    
C18   H21   S    
C19   H20   S    
Cu1   N1    S    
C12   O9    A    
C13   C15   A    
C24   H10   S    
C22   C24   S    
Cu2   O10   S    
Cu1   O11   S    
C15   C17   A    
C12   C30   S    
C8    C10   A    
C10   C13   A    
C27   H2    S    
C5    O14   A    
C28   C30   A    
C32   N2    A    
C29   C31   A    
C26   H17   S    
Cu1   O15   S    
C22   H8    S    
C29   S2    S    
C17   C19   A    
C14   C16   A    
C3    C32   A    
Cu1   O12   S    
C15   C21   S    
C20   C21   D    
C16   C18   A    
Cu2   O14   S    
C9    H1    S    
C24   H9    S    
O7    S2    D    
Cu2   O9    S    
C17   H23   S    
