data_mof_unit_50590.cif
_audit_creation_date              2012-10-26T19:29:02-0400
_audit_creation_method            fapswitch 2.2
_symmetry_space_group_name_H-M    P1
_symmetry_Int_Tables_number       1
_space_group_crystal_system       triclinic
_cell_length_a                    9.510883
_cell_length_b                    10.984013
_cell_length_c                    17.43917
_cell_angle_alpha                 91.886393
_cell_angle_beta                  85.055264
_cell_angle_gamma                 91.415584
_cell_volume                      1813.6279041

loop_
_atom_site_label
_atom_site_type_symbol
_atom_type_description
_atom_site_fract_x
_atom_site_fract_y
_atom_site_fract_z
_atom_type_partial_charge
C1    C     C_R   0.500094 0.740149 0.501785 0.562682
C2    C     C_R   0.538415 0.496078 0.262494 -0.046840
C3    C     C_3   0.352339 0.926925 0.479061 -0.140544
C4    C     C_R   0.480019 0.489440 0.649548 0.613274
C5    C     C_3   0.348626 0.068350 0.491297 -0.249091
C6    C     C_3   0.516777 0.936543 0.589039 -0.015596
C7    C     C_3   0.613726 0.927040 0.440154 -0.083949
C8    C     C_3   0.498758 0.879032 0.503658 -0.094756
C9    C     C_3   0.500028 0.122841 0.500889 -0.057526
C10   C     C_3   0.546610 0.082005 0.582074 -0.037825
C11   C     C_3   0.595359 0.066265 0.430175 -0.057524
C12   C     C_R   0.341499 0.437727 0.778925 0.068644
C13   C     C_3   0.915417 0.378241 0.475388 -0.120941
C14   C     C_3   0.082893 0.377317 0.470666 -0.005900
C15   C     C_3   0.929035 0.586697 0.443756 -0.120506
C16   C     C_R   0.499372 0.260410 0.497849 0.510548
C17   C     C_3   0.906709 0.526622 0.576812 -0.015736
C18   C     C_3   0.093803 0.591158 0.447784 -0.128550
C19   C     C_3   0.073891 0.524810 0.577132 -0.024074
C20   C     C_R   0.520696 0.499311 0.349260 0.523494
C21   C     C_R   0.469992 0.463732 0.733356 0.031438
C22   C     C_R   0.597369 0.458527 0.768100 -0.088296
C23   C     C_R   0.437885 0.513729 0.138863 -0.058910
C24   C     C_R   0.599326 0.437503 0.845659 -0.083826
C25   C     C_R   0.473444 0.424814 0.892667 0.012770
C26   C     C_R   0.343062 0.423555 0.859354 0.036832
C27   C     C_2   0.319594 0.884250 0.398571 0.224335
C28   C     C_2   0.376711 0.913162 0.641085 0.321630
C29   C     C_2   0.461859 0.151393 0.647490 0.155036
C30   C     C_2   0.763077 0.888242 0.447285 0.331365
C31   C     C_2   0.296520 0.586522 0.253390 0.257849
C32   C     C_2   0.722029 0.140425 0.397498 0.300824
C33   C     C_2   0.631702 0.874437 0.628587 0.286888
C34   C     C_R   0.424595 0.526681 0.218990 0.010608
C35   C     C_2   0.698924 0.126262 0.591966 0.234795
C36   C     C_2   0.137134 0.345820 0.387944 0.301157
C37   C     C_2   0.850094 0.643048 0.613282 0.318348
C38   C     C_2   0.797522 0.428159 0.256416 0.244739
C39   C     C_2   0.134564 0.641771 0.613315 0.326354
C40   C     C_2   0.208738 0.404674 0.908493 0.235664
C41   C     C_2   0.207581 0.409844 0.744434 0.284155
C42   C     C_R   0.669527 0.463144 0.220428 0.010710
C43   C     C_R   0.680629 0.459051 0.139749 -0.054930
C44   C     C_R   0.564879 0.479940 0.099495 -0.018618
C45   C     C_2   0.477740 0.417250 0.976925 -0.115021
C46   C     C_2   0.578838 0.472467 0.015258 -0.117389
Cu1   Cu    Cu3+1 0.357600 0.500140 0.499960 0.974973
Cu2   Cu    Cu3+1 0.642400 0.499860 0.500040 0.934159
H1    H     H_    0.778977 0.434018 0.107574 0.181472
H2    H     H_    0.700974 0.431964 0.868665 0.146809
H3    H     H_    0.698143 0.468706 0.735140 0.174123
H4    H     H_    0.262502 0.887630 0.515452 0.101714
H5    H     H_    0.306372 0.788380 0.387089 0.111799
H6    H     H_    0.303973 0.110019 0.442717 0.256568
H7    H     H_    0.281327 0.959597 0.631342 0.094758
H8    H     H_    0.381746 0.213518 0.634992 0.175681
H9    H     H_    0.804542 0.880801 0.502371 0.124141
H10   H     H_    0.588774 0.881924 0.384556 0.140064
H11   H     H_    0.303893 0.647654 0.301967 0.098793
H12   H     H_    0.274180 0.093886 0.541344 0.109858
H13   H     H_    0.701247 0.220361 0.366281 0.073389
H14   H     H_    0.734033 0.915744 0.635726 0.145777
H15   H     H_    0.719374 0.201414 0.632017 0.143302
H16   H     H_    0.876081 0.348283 0.420052 0.135221
H17   H     H_    0.114124 0.303508 0.507573 0.161979
H18   H     H_    0.097448 0.392813 0.340793 0.147406
H19   H     H_    0.904562 0.562204 0.383978 0.167527
H20   H     H_    0.144352 0.580034 0.389166 0.137271
H21   H     H_    0.838732 0.721123 0.578893 0.089787
H22   H     H_    0.789978 0.381693 0.309573 0.103301
H23   H     H_    0.530078 0.070645 0.380326 0.131179
H24   H     H_    0.863765 0.453490 0.615707 0.122264
H25   H     H_    0.141486 0.726368 0.583282 0.085955
H26   H     H_    0.670064 0.516964 0.985663 0.158732
H27   H     H_    0.198568 0.332351 0.949565 0.126029
H28   H     H_    0.115852 0.464859 0.759813 0.196443
H29   H     H_    0.874362 0.309449 0.517293 0.174468
H30   H     H_    0.096571 0.449599 0.614232 0.163015
H31   H     H_    0.887985 0.678314 0.455705 0.148311
H32   H     H_    0.126963 0.684241 0.465080 0.096604
H33   H     H_    0.351062 0.537651 0.106199 0.180838
H34   H     H_    0.390581 0.372994 0.010166 0.130517
N1    N     N_3   0.856560 0.499750 0.498270 -0.306824
N2    N     N_3   0.143860 0.496700 0.498910 -0.296758
O1    O     O_R   0.379740 0.682430 0.499960 -0.541731
O2    O     O_2   0.368815 0.849114 0.697381 -0.362286
O3    O     O_2   0.483407 0.137672 0.714763 -0.471222
O4    O     O_2   0.840160 0.864133 0.389304 -0.461508
O5    O     O_2   0.183689 0.572694 0.225396 -0.444924
O6    O     O_2   0.844294 0.113129 0.402640 -0.415688
O7    O     O_2   0.609224 0.773591 0.654874 -0.411009
O8    O     O_2   0.800882 0.083815 0.554509 -0.538084
O9    O     O_2   0.222107 0.265873 0.372395 -0.470032
O10   O     O_2   0.833789 0.654495 0.683386 -0.458127
O11   O     O_2   0.915073 0.447741 0.224758 -0.455281
O12   O     O_R   0.620260 0.682190 0.500020 -0.504152
O13   O     O_2   0.165206 0.645338 0.679800 -0.456089
O14   O     O_2   0.109033 0.471319 0.904295 -0.485909
O15   O     O_2   0.194643 0.318163 0.704221 -0.553389
O16   O     O_R   0.365800 0.500150 0.613560 -0.463482
O17   O     O_R   0.606310 0.499910 0.613620 -0.499273
O18   O     O_R   0.379740 0.317810 0.499980 -0.493012
O19   O     O_R   0.620260 0.317570 0.500040 -0.535658
O20   O     O_R   0.393690 0.500090 0.386380 -0.504214
O21   O     O_R   0.634200 0.499850 0.386440 -0.529566
O22   O     O_2   0.305742 0.954262 0.346901 -0.453800

loop_
_geom_bond_atom_site_label_1
_geom_bond_atom_site_label_2
_ccdc_geom_bond_type
C15   C18   S    
C38   H22   S    
C37   H21   S    
C1    C8    S    
C45   H34   S    
C14   N2    S    
C7    C8    S    
C45   C46   D    
C7    C11   S    
Cu1   O1    S    
C9    C16   S    
C32   H13   S    
C38   C42   S    
C33   O7    D    
C14   C36   S    
C36   H18   S    
C39   O13   D    
C18   H20   S    
C30   H9    S    
C31   H11   S    
C36   O9    D    
C32   O6    D    
Cu1   Cu2   S    
C33   H14   S    
C31   O5    D    
C38   O11   D    
C18   N2    S    
C41   O15   D    
C10   C35   S    
Cu2   O12   S    
C9    C10   S    
C7    H10   S    
C35   O8    D    
C2    C34   A    
C7    C30   S    
C21   C22   A    
C1    O1    A    
Cu2   N1    S    
C28   H7    S    
C44   C46   S    
C24   H2    S    
C13   H29   S    
C2    C20   S    
C5    H6    S    
C24   C25   A    
C3    C8    S    
C43   H1    S    
C6    C8    S    
C27   O22   D    
C25   C26   A    
Cu2   O19   S    
C12   C21   A    
Cu1   O16   S    
C12   C26   A    
C17   N1    S    
C19   H30   S    
C43   C44   A    
C5    C9    S    
C12   C41   S    
C16   O19   A    
Cu2   O21   S    
C23   C34   A    
C15   H19   S    
C4    O17   A    
C27   H5    S    
C31   C34   S    
C17   C37   S    
Cu1   N2    S    
C9    C11   S    
C19   C39   S    
C16   O18   A    
C11   C32   S    
C4    O16   A    
C28   O2    D    
C22   C24   A    
C42   C43   A    
C30   O4    D    
C19   N2    S    
C25   C45   S    
C46   H26   S    
C20   O21   A    
Cu1   O20   S    
C23   H33   S    
C5    H12   S    
C3    C5    S    
C6    C10   S    
C15   N1    S    
C3    H4    S    
C6    C33   S    
C20   O20   A    
C29   H8    S    
C15   H31   S    
C13   N1    S    
C40   H27   S    
C3    C27   S    
C41   H28   S    
C40   O14   D    
C4    C21   S    
C10   C29   S    
C26   C40   S    
C13   H16   S    
C2    C42   A    
C1    O12   A    
Cu2   O17   S    
C17   C19   S    
C14   H17   S    
C37   O10   D    
C11   H23   S    
C39   H25   S    
C29   O3    D    
C23   C44   A    
C6    C28   S    
C17   H24   S    
C18   H32   S    
Cu1   O18   S    
C35   H15   S    
C13   C14   S    
C22   H3    S    
