data_mof_unit_15594.cif
_audit_creation_date              2012-12-10T19:10:03-0500
_audit_creation_method            fapswitch 2.2
_symmetry_space_group_name_H-M    P1
_symmetry_Int_Tables_number       1
_space_group_crystal_system       triclinic
_cell_length_a                    10.855578
_cell_length_b                    10.87473
_cell_length_c                    9.523813
_cell_angle_alpha                 88.995963
_cell_angle_beta                  90.318397
_cell_angle_gamma                 90.264298
_cell_volume                      1124.09877469

loop_
_atom_site_label
_atom_site_type_symbol
_atom_type_description
_atom_site_fract_x
_atom_site_fract_y
_atom_site_fract_z
_atom_type_partial_charge
C1    C     C_R   0.499778 0.262559 0.500907 0.823051
C2    C     C_R   0.200472 0.697324 0.995858 -0.149726
C3    C     C_R   0.932483 0.543277 0.386331 -0.219207
C4    C     C_R   0.871405 0.491786 0.501912 -0.082912
C5    C     C_R   0.939122 0.440654 0.615778 0.004042
C6    C     C_R   0.067068 0.448710 0.613559 -0.230747
C7    C     C_R   0.128154 0.500277 0.497287 -0.059526
C8    C     C_R   0.059863 0.545762 0.380900 0.048016
C9    C     C_R   0.895607 0.410708 0.872238 -0.157275
C10   C     C_R   0.839239 0.345980 0.982851 -0.077175
C11   C     C_R   0.771537 0.239322 0.956346 -0.099790
C12   C     C_R   0.262148 0.501463 0.499163 0.806475
C13   C     C_R   0.759847 0.197396 0.819122 -0.131260
C14   C     C_R   0.812992 0.263677 0.707660 -0.095256
C15   C     C_R   0.880648 0.371489 0.733441 0.118023
C16   C     C_R   0.514384 0.060850 0.624346 0.085876
C17   C     C_R   0.504713 0.129880 0.500368 -0.142337
C18   C     C_R   0.501741 0.069305 0.371917 -0.220882
C19   C     C_R   0.496102 0.941919 0.367525 0.247883
C20   C     C_R   0.500016 0.871787 0.494709 -0.156748
C21   C     C_R   0.513170 0.933948 0.621479 0.061518
C22   C     C_3   0.434637 0.924963 0.749945 -0.415387
C23   C     C_R   0.497239 0.737929 0.498331 0.827161
C24   C     C_3   0.436100 0.064276 0.752592 -0.432294
C25   C     C_R   0.545276 0.598553 0.071815 0.365679
C26   C     C_R   0.448383 0.406104 0.075873 -0.059749
C27   C     C_R   0.448476 0.406002 0.927017 -0.084778
C28   C     C_R   0.542596 0.599993 0.924262 0.264964
C29   C     C_3   0.668703 0.653714 0.915027 -0.508855
C30   C     C_3   0.674504 0.646297 0.073990 -0.504733
C31   C     C_R   0.737614 0.495727 0.500765 0.788310
C32   C     C_R   0.172008 0.774218 0.106933 -0.058058
C33   C     C_R   0.130035 0.724080 0.234154 -0.192196
C34   C     C_R   0.115843 0.596344 0.250846 0.068068
C35   C     C_R   0.144001 0.518976 0.138228 0.290906
C36   C     C_R   0.186175 0.570161 0.011366 -0.196417
Cu1   Cu    Cu3+1 0.499990 0.499980 0.640670 0.944037
Cu2   Cu    Cu3+1 0.500010 0.500020 0.359330 0.981438
H1    H     H_    0.233049 0.736237 0.897466 0.143066
H2    H     H_    0.729044 0.188599 0.042218 0.135607
H3    H     H_    0.710377 0.113005 0.799402 0.134117
H4    H     H_    0.802484 0.230506 0.601656 0.109193
H5    H     H_    0.496265 0.120919 0.273730 0.190310
H6    H     H_    0.341854 0.885696 0.728166 0.189300
H7    H     H_    0.484065 0.881966 0.840517 0.221408
H8    H     H_    0.344268 0.106029 0.732032 0.200425
H9    H     H_    0.486375 0.101319 0.844716 0.199262
H10   H     H_    0.407915 0.329261 0.132624 0.181994
H11   H     H_    0.182049 0.872853 0.094247 0.174406
H12   H     H_    0.407666 0.329430 0.872551 0.151890
H13   H     H_    0.734987 0.592859 0.862924 0.227018
H14   H     H_    0.667678 0.749673 0.873029 0.201769
H15   H     H_    0.740867 0.576364 0.113252 0.193414
H16   H     H_    0.683627 0.737549 0.123330 0.236354
H17   H     H_    0.106836 0.784759 0.318940 0.141832
H18   H     H_    0.207092 0.511409 0.924259 0.161517
H19   H     H_    0.880801 0.582673 0.299162 0.146314
H20   H     H_    0.119377 0.409273 0.700495 0.158965
H21   H     H_    0.948162 0.493060 0.894224 0.137728
H22   H     H_    0.848722 0.377977 0.089328 0.157101
N1    N     N_R   0.500790 0.500930 0.147930 -0.199189
N2    N     N_R   0.500790 0.500890 0.852020 -0.193490
O1    O     O_R   0.500000 0.319640 0.618810 -0.584211
O2    O     O_R   0.500010 0.319680 0.381230 -0.594365
O3    O     O_R   0.319640 0.499990 0.618790 -0.602224
O4    O     O_R   0.319650 0.500030 0.381210 -0.548699
O5    O     O_R   0.499990 0.680320 0.618770 -0.589708
O6    O     O_R   0.500000 0.680360 0.381190 -0.535493
O7    O     O_R   0.680350 0.499970 0.618790 -0.577255
O8    O     O_R   0.680360 0.500010 0.381210 -0.591101
Br1   Br    Br    0.466784 0.878029 0.183831 -0.626710
Br2   Br    Br    0.126506 0.343608 0.154467 -0.600688

loop_
_geom_bond_atom_site_label_1
_geom_bond_atom_site_label_2
_ccdc_geom_bond_type
C23   O6    A    
C33   H17   S    
C10   H22   S    
C27   H12   S    
C16   C21   A    
C36   H18   S    
C27   N2    A    
Cu1   O7    S    
C11   C13   A    
C12   O3    A    
C6    H20   S    
C1    C17   S    
C19   C20   A    
C20   C23   S    
C26   H10   S    
C14   H4    S    
Cu2   N1    S    
C24   H8    S    
C32   C33   A    
C13   H3    S    
C33   C34   A    
C9    C15   A    
C7    C8    A    
C16   C24   S    
C8    C34   S    
C21   C22   S    
C25   C28   A    
C18   H5    S    
C30   H16   S    
C26   C27   A    
C29   C30   S    
C12   O4    A    
C5    C6    A    
C1    O1    A    
C28   C29   S    
Cu1   O1    S    
Cu1   Cu2   S    
Cu2   O6    S    
C35   Br2   S    
C17   C18   A    
C6    C7    A    
Cu2   O2    S    
C3    C8    A    
C29   H13   S    
C11   H2    S    
C32   H11   S    
C30   H15   S    
C22   C24   S    
C7    C12   S    
C5    C15   S    
C4    C31   S    
C16   C17   A    
C10   C11   A    
Cu1   O5    S    
Cu2   O8    S    
C23   O5    A    
C3    C4    A    
C1    O2    A    
C3    H19   S    
C31   O7    A    
C22   H7    S    
C20   C21   A    
C2    C32   A    
C34   C35   A    
C9    C10   A    
C2    C36   A    
C25   C30   S    
Cu1   N2    S    
C14   C15   A    
C18   C19   A    
C25   N1    A    
C29   H14   S    
C13   C14   A    
C24   H9    S    
C19   Br1   S    
C2    H1    S    
C26   N1    A    
C31   O8    A    
C22   H6    S    
Cu2   O4    S    
C28   N2    A    
C4    C5    A    
C9    H21   S    
C35   C36   A    
Cu1   O3    S    
