data_mof_unit_59843.cif
_audit_creation_date              2012-12-10T17:33:41-0500
_audit_creation_method            fapswitch 2.2
_symmetry_space_group_name_H-M    P1
_symmetry_Int_Tables_number       1
_space_group_crystal_system       triclinic
_cell_length_a                    11.71412
_cell_length_b                    12.359721
_cell_length_c                    13.292158
_cell_angle_alpha                 116.90252
_cell_angle_beta                  76.8931
_cell_angle_gamma                 100.945934
_cell_volume                      1663.0401858

loop_
_atom_site_label
_atom_site_type_symbol
_atom_type_description
_atom_site_fract_x
_atom_site_fract_y
_atom_site_fract_z
_atom_type_partial_charge
C1    C     C_R   0.514651 0.854808 0.286357 0.766360
C2    C     C_R   0.504926 0.227831 0.830783 -0.085908
C3    C     C_R   0.455621 0.812477 0.103821 -0.177091
C4    C     C_R   0.427793 0.731051 0.996857 -0.140924
C5    C     C_R   0.446937 0.608637 0.951495 -0.179808
C6    C     C_R   0.502269 0.566742 0.009785 0.084384
C7    C     C_R   0.542380 0.654061 0.112679 0.089522
C8    C     C_R   0.521599 0.442111 0.969037 0.078356
C9    C     C_R   0.589295 0.410469 0.025983 0.145656
C10   C     C_R   0.641468 0.501012 0.116634 -0.213611
C11   C     C_R   0.618614 0.621194 0.159303 -0.200816
C12   C     C_R   0.715673 0.999683 0.499829 0.808362
C13   C     C_R   0.478039 0.348071 0.872661 -0.253640
C14   C     C_R   0.567954 0.197416 0.891503 -0.029425
C15   C     C_R   0.509346 0.774102 0.164515 -0.095227
C16   C     C_R   0.704630 0.354086 0.345213 -0.315063
C17   C     C_R   0.330673 0.749349 0.637399 0.306053
C18   C     C_R   0.282935 0.637166 0.643759 0.117029
C19   C     C_R   0.346674 0.537301 0.583201 -0.259912
C20   C     C_R   0.458582 0.545626 0.522102 -0.044871
C21   C     C_R   0.498543 0.653926 0.505790 0.254870
C22   C     C_R   0.528775 0.445752 0.471376 0.000389
C23   C     C_R   0.488920 0.145080 0.712789 0.783284
C24   C     C_R   0.636275 0.452621 0.399625 0.176295
C25   C     C_R   0.673912 0.557399 0.382268 -0.287514
C26   C     C_R   0.604446 0.653725 0.431000 -0.142940
C27   C     C_R   0.498241 0.340010 0.491902 0.022076
C28   C     C_R   0.667177 0.250552 0.364753 0.084223
C29   C     C_R   0.284307 0.000368 0.500280 0.808221
C30   C     C_1   0.837379 0.999490 0.500096 -0.175410
C31   C     C_1   0.939921 0.999749 0.500243 0.001324
C32   C     C_1   0.059928 0.000279 0.500301 -0.003186
C33   C     C_1   0.162523 0.000578 0.500286 -0.186729
C34   C     C_R   0.608900 0.288962 0.989047 -0.232633
Cu1   Cu    Cu3+1 0.526510 0.098270 0.475420 0.938724
Cu2   Cu    Cu3+1 0.473490 0.901730 0.524580 0.938311
H1    H     H_    0.757398 0.564579 0.329093 0.141952
H2    H     H_    0.786412 0.357240 0.288356 0.136293
H3    H     H_    0.423339 0.331185 0.552829 0.118248
H4    H     H_    0.305103 0.451817 0.583360 0.153174
H5    H     H_    0.635455 0.724582 0.404963 0.188834
H6    H     H_    0.701592 0.478188 0.153152 0.142591
H7    H     H_    0.660515 0.266152 0.033816 0.137928
H8    H     H_    0.426480 0.366174 0.825298 0.136668
H9    H     H_    0.431468 0.904725 0.140822 0.155766
H10   H     H_    0.420377 0.550154 0.869568 0.133412
H11   H     H_    0.387605 0.762468 0.950494 0.144094
H12   H     H_    0.664890 0.689822 0.225930 0.125498
H13   H     H_    0.720048 0.174435 0.323625 0.128670
N1    N     N_R   0.566700 0.246290 0.438210 -0.183012
N2    N     N_R   0.434010 0.754320 0.561170 -0.226675
O1    O     O_R   0.533340 0.972510 0.318140 -0.580410
O2    O     O_R   0.488570 0.806530 0.359650 -0.582168
O3    O     O_R   0.685190 0.083000 0.479260 -0.576156
O4    O     O_R   0.640410 0.917020 0.520770 -0.585202
O5    O     O_R   0.511430 0.193470 0.640350 -0.575553
O6    O     O_R   0.466660 0.027490 0.681860 -0.582941
O7    O     O_R   0.359590 0.082980 0.479230 -0.576350
O8    O     O_R   0.314810 0.917000 0.520740 -0.598432
C35   C     C_1   0.601238 0.075974 0.850601 0.245148
N3    N     N_1   0.628139 0.978797 0.817858 -0.277083
C36   C     C_3   0.264638 0.860731 0.717739 -0.342966
C37   C     C_3   0.281403 0.905776 0.841720 -0.866827
H14   H     H_    0.237147 0.840134 0.877055 0.252495
H15   H     H_    0.376561 0.920419 0.847541 0.272174
H16   H     H_    0.242787 0.993729 0.895405 0.240232
H17   H     H_    0.288250 0.938892 0.698919 0.255096
H18   H     H_    0.170020 0.841954 0.710011 0.155625
C38   C     C_3   0.161414 0.614779 0.707925 -0.401471
C39   C     C_3   0.168369 0.575508 0.800221 -0.834504
H19   H     H_    0.202233 0.484951 0.762091 0.240530
H20   H     H_    0.226283 0.642920 0.860486 0.247023
H21   H     H_    0.078969 0.568697 0.849093 0.245791
H22   H     H_    0.108976 0.693416 0.749316 0.209533
H23   H     H_    0.108752 0.541107 0.645310 0.204242

loop_
_geom_bond_atom_site_label_1
_geom_bond_atom_site_label_2
_ccdc_geom_bond_type
C16   C28   A    
C21   C26   A    
C37   H15   S    
C8    C13   A    
C10   H6    S    
C19   C20   A    
Cu2   O8    S    
C17   N2    A    
C23   O5    A    
C7    C11   A    
C36   H17   S    
Cu1   O7    S    
C5    C6    A    
C29   C33   S    
C18   C19   A    
C2    C13   A    
C1    O2    A    
Cu2   O2    S    
C25   H1    S    
C28   N1    A    
Cu1   Cu2   S    
C27   H3    S    
C8    C9    A    
C39   H19   S    
C1    C15   S    
C9    C10   A    
C27   N1    A    
C18   C38   S    
C7    C15   A    
C37   H16   S    
C16   C24   A    
Cu1   O3    S    
C11   H12   S    
C39   H21   S    
C29   O8    A    
C24   C25   A    
Cu2   O6    S    
C19   H4    S    
C6    C8    A    
C25   C26   A    
C3    H9    S    
C35   N3    T    
C36   C37   S    
C17   C36   S    
C28   H13   S    
C31   C32   S    
Cu1   N1    S    
C17   C18   A    
C38   H22   S    
C29   O7    A    
Cu2   N2    S    
C20   C22   A    
C22   C27   A    
C9    C34   A    
C22   C24   A    
C3    C4    A    
C21   N2    A    
C3    C15   A    
C23   O6    A    
C12   C30   S    
Cu1   O5    S    
C34   H7    S    
C4    C5    A    
C14   C34   A    
C6    C7    A    
C14   C35   S    
C5    H10   S    
C36   H18   S    
C32   C33   T    
Cu2   O4    S    
Cu1   O1    S    
C30   C31   T    
C38   H23   S    
C38   C39   S    
C2    C14   A    
C1    O1    A    
C12   O4    A    
C10   C11   A    
C37   H14   S    
C20   C21   A    
C2    C23   S    
C39   H20   S    
C13   H8    S    
C12   O3    A    
C26   H5    S    
C16   H2    S    
C4    H11   S    
