data_mof_unit_55090.cif
_audit_creation_date              2013-03-05T16:03:00-0500
_audit_creation_method            fapswitch 2.2
_symmetry_space_group_name_H-M    P1
_symmetry_Int_Tables_number       1
_space_group_crystal_system       triclinic
_cell_length_a                    15.134731
_cell_length_b                    14.196902
_cell_length_c                    10.802945
_cell_angle_alpha                 95.42515
_cell_angle_beta                  86.844511
_cell_angle_gamma                 92.676276
_cell_volume                      2305.2769219

loop_
_atom_site_label
_atom_site_type_symbol
_atom_site_description
_atom_site_fract_x
_atom_site_fract_y
_atom_site_fract_z
_atom_type_partial_charge
O1    O     O_R   0.367850 0.580280 0.500030 -0.556639
O2    O     O_R   0.632150 0.419720 0.499970 -0.577279
O3    O     O_R   0.632150 0.580280 0.499970 -0.538282
O4    O     O_R   0.367850 0.419720 0.500030 -0.571778
C1    C     C_R   0.326318 0.497835 0.504998 1.065936
C2    C     C_R   0.673411 0.501971 0.496288 1.058900
O5    O     O_R   0.499970 0.580260 0.313950 -0.578424
O6    O     O_R   0.500030 0.419740 0.686050 -0.593191
O7    O     O_R   0.500030 0.580260 0.686050 -0.526306
O8    O     O_R   0.499970 0.419740 0.313950 -0.576956
C3    C     C_R   0.497298 0.495995 0.257363 1.089984
C4    C     C_R   0.504113 0.503332 0.742959 1.092914
Zn1   Zn    Zn3+2 0.500000 0.607200 0.500000 1.179956
Zn2   Zn    Zn3+2 0.500000 0.392800 0.500000 1.148543
C5    C     C_3   0.446949 0.562091 0.055348 0.363628
C6    C     C_3   0.553283 0.431185 0.945388 0.376983
C7    C     C_3   0.533345 0.584543 0.981385 0.397212
C8    C     C_3   0.467646 0.410348 0.022451 0.309131
C9    C     C_3   0.420886 0.483240 0.954411 -0.427191
C10   C     C_3   0.580155 0.509573 0.046163 -0.317697
H1    H     H_    0.354614 0.468866 0.920061 0.286559
H2    H     H_    0.649460 0.518729 0.069930 0.297265
C11   C     C_3   0.507923 0.506338 0.878840 -0.319096
C12   C     C_3   0.493580 0.489256 0.122389 -0.293649
C13   C     C_R   0.821184 0.494466 0.381948 0.372830
C14   C     C_R   0.177186 0.503598 0.620490 0.393928
C15   C     C_R   0.769938 0.506693 0.495269 -0.235847
C16   C     C_R   0.229312 0.490264 0.507182 -0.257118
C17   C     C_R   0.811283 0.517800 0.609218 0.240600
C18   C     C_R   0.188162 0.457806 0.395937 0.246560
C19   C     C_R   0.900659 0.499112 0.611624 0.012985
C20   C     C_R   0.095887 0.459105 0.392017 0.015126
C21   C     C_R   0.951748 0.482018 0.499688 0.026498
C22   C     C_R   0.044195 0.476463 0.503298 0.021348
C23   C     C_R   0.911577 0.475824 0.384429 0.001155
C24   C     C_R   0.084548 0.490027 0.618456 -0.008451
C25   C     C_R   0.939759 0.496052 0.725213 -0.075085
C26   C     C_R   0.054173 0.444627 0.278520 -0.087205
C27   C     C_R   0.030223 0.491572 0.728775 -0.063639
C28   C     C_R   0.963349 0.451398 0.275044 -0.061140
H3    H     H_    0.900815 0.498612 0.812574 0.219586
H4    H     H_    0.091386 0.431576 0.190642 0.207021
H5    H     H_    0.055712 0.490939 0.819877 0.222448
H6    H     H_    0.934809 0.437017 0.185421 0.218369
C29   C     C_R   0.579164 0.804184 0.496352 0.460896
C30   C     C_R   0.422170 0.193921 0.512292 0.415133
C31   C     C_R   0.422143 0.799188 0.508621 0.463498
C32   C     C_R   0.577327 0.201310 0.466322 0.436395
N1    N     N_R   0.500000 0.750030 0.500000 -0.195298
N2    N     N_R   0.500000 0.249970 0.500000 -0.216249
C33   C     C_R   0.421279 0.892601 0.468018 -0.186227
C34   C     C_R   0.580241 0.102808 0.483040 -0.198025
C35   C     C_R   0.581135 0.901007 0.468495 -0.205799
C36   C     C_R   0.421645 0.093876 0.472568 -0.185691
C37   C     C_R   0.501197 0.946769 0.467472 -0.053948
C38   C     C_R   0.501057 0.047637 0.473373 -0.050971
C39   C     C_R   0.343077 0.937037 0.437750 0.368081
C40   C     C_R   0.660621 0.055385 0.485148 0.377653
C41   C     C_R   0.660964 0.956720 0.454574 0.397691
C42   C     C_R   0.345651 0.038164 0.433196 0.356332
S1    S     S_3+6 0.367542 0.649057 0.110366 0.138161
O9    O     O_2   0.275799 0.603859 0.114321 -0.218810
O10   O     O_2   0.388551 0.692949 0.237571 -0.229657
O11   O     O_3   0.370522 0.735064 0.013495 -0.467830
H7    H     H_    0.325875 0.779975 0.049869 0.422007
S2    S     S_3+6 0.629673 0.342278 0.885330 0.144637
O12   O     O_2   0.592700 0.284760 0.774741 -0.270751
O13   O     O_2   0.717992 0.386529 0.848537 -0.219044
O14   O     O_3   0.645891 0.269832 0.995258 -0.448347
H8    H     H_    0.684974 0.220961 0.953946 0.415018
S3    S     S_3+6 0.586010 0.700264 0.003298 0.114044
O15   O     O_2   0.550831 0.766486 0.919958 -0.225439
O16   O     O_2   0.568254 0.739183 0.136165 -0.242216
O17   O     O_3   0.695994 0.692836 0.977856 -0.493323
H9    H     H_    0.720935 0.756778 0.004740 0.412223
S4    S     S_3+6 0.414652 0.296814 0.046261 0.137619
O18   O     O_2   0.468668 0.218275 0.983519 -0.204461
O19   O     O_2   0.404264 0.284472 0.182572 -0.215521
O20   O     O_3   0.313963 0.287366 0.986615 -0.418591
H10   H     H_    0.284168 0.345650 0.019718 0.401655
S5    S     S_3+6 0.776410 0.517850 0.240409 0.045084
O21   O     O_2   0.844261 0.569379 0.161607 -0.281529
O22   O     O_2   0.750063 0.425176 0.170689 -0.209302
O23   O     O_3   0.688550 0.586090 0.268553 -0.577214
H11   H     H_    0.703001 0.643133 0.224368 0.433877
S6    S     S_3+6 0.223744 0.535477 0.766381 0.067979
O24   O     O_2   0.174580 0.616440 0.833659 -0.227534
O25   O     O_2   0.212563 0.451320 0.841169 -0.296151
O26   O     O_3   0.330226 0.569202 0.752509 -0.554297
H12   H     H_    0.340333 0.611676 0.828643 0.434683
N3    N     N_R   0.767887 0.563472 0.718630 0.232353
O27   O     O_R   0.808112 0.634294 0.780931 -0.308129
O28   O     O_R   0.686979 0.539927 0.751740 -0.395700
N4    N     N_R   0.238869 0.417618 0.289494 0.222646
O29   O     O_R   0.214353 0.335695 0.235003 -0.302027
O30   O     O_R   0.310009 0.461071 0.248033 -0.407963
S7    S     S_3+6 0.666924 0.775497 0.586956 0.120732
O31   O     O_2   0.739146 0.726878 0.507969 -0.204415
O32   O     O_2   0.706131 0.863566 0.655078 -0.246397
O33   O     O_3   0.626934 0.706530 0.694519 -0.479372
H13   H     H_    0.669012 0.719070 0.761052 0.446031
S8    S     S_3+6 0.332959 0.231110 0.618519 0.151720
O34   O     O_2   0.262474 0.277898 0.556903 -0.197978
O35   O     O_2   0.290520 0.146184 0.674955 -0.216594
O36   O     O_3   0.369732 0.306358 0.734502 -0.471132
H14   H     H_    0.415841 0.271597 0.770292 0.394921
S9    S     S_3+6 0.351370 0.786143 0.643187 0.136616
O37   O     O_2   0.310931 0.878529 0.689825 -0.245585
O38   O     O_2   0.277529 0.713662 0.620173 -0.163110
O39   O     O_3   0.413683 0.755011 0.754329 -0.478388
H15   H     H_    0.443558 0.815497 0.785369 0.400441
S10   S     S_3+6 0.656483 0.238634 0.349008 0.136443
O40   O     O_2   0.734656 0.292178 0.404962 -0.209525
O41   O     O_2   0.690610 0.153674 0.270346 -0.226705
O42   O     O_3   0.611702 0.304299 0.251495 -0.454043
H16   H     H_    0.567460 0.260673 0.209633 0.398345
S11   S     S_3+6 0.243543 0.867131 0.403651 0.158136
O43   O     O_2   0.258204 0.762929 0.395055 -0.230629
O44   O     O_2   0.174626 0.890868 0.505985 -0.174641
O45   O     O_3   0.203271 0.888340 0.267740 -0.461090
H17   H     H_    0.145195 0.853225 0.264814 0.402671
S12   S     S_3+6 0.756756 0.112966 0.550542 0.149301
O46   O     O_2   0.826139 0.130960 0.449603 -0.170366
O47   O     O_2   0.734462 0.205080 0.623034 -0.229276
O48   O     O_3   0.798252 0.042822 0.648047 -0.459542
H18   H     H_    0.857538 0.071658 0.666564 0.405523
S13   S     S_3+6 0.753614 0.910193 0.364289 0.152819
O49   O     O_2   0.828385 0.897131 0.446181 -0.154168
O50   O     O_2   0.727888 0.817271 0.294699 -0.276760
O51   O     O_3   0.788516 0.986057 0.259785 -0.457857
H19   H     H_    0.840183 0.956441 0.214053 0.401051
S14   S     S_3+6 0.269209 0.090747 0.343486 0.164307
O52   O     O_2   0.176229 0.076288 0.396649 -0.174629
O53   O     O_2   0.290036 0.194383 0.338313 -0.197366
O54   O     O_3   0.277911 0.041183 0.195901 -0.451928
H20   H     H_    0.234982 0.073881 0.150744 0.420325

loop_
_geom_bond_atom_site_label_1
_geom_bond_atom_site_label_2
_geom_bond_distance
_ccdc_geom_bond_type
S2    O13   1.499898 D    
C37   C38   1.427490 A    
C15   C17   1.403790 A    
S4    O20   1.681709 S    
O3    C2    1.296638 A    
C42   S14   1.782111 S    
S10   O41   1.503256 D    
S5    O21   1.505250 D    
C35   C41   1.421691 A    
O54   H20   0.990690 S    
C31   N1    1.391637 A    
C36   C42   1.426398 A    
O5    C3    1.290880 A    
C30   S8    1.788867 S    
C4    C11   1.468737 S    
C7    C11   1.543495 S    
C8    C12   1.533471 S    
C9    H1    1.092197 S    
S4    O19   1.498198 D    
C26   H4    1.081851 S    
O14   H8    0.990517 S    
S11   O44   1.503023 D    
S8    O35   1.503825 D    
S6    O25   1.502479 D    
S2    O14   1.677790 S    
C41   S13   1.779864 S    
O42   H16   0.988999 S    
C3    C12   1.456211 S    
C7    C10   1.546050 S    
S8    O36   1.670045 S    
C8    C9    1.543224 S    
S1    O10   1.498483 D    
O7    Zn1   2.081202 S    
O39   H15   0.990079 S    
S7    O32   1.503910 D    
C5    C9    1.540468 S    
C10   C12   1.539145 S    
S14   O52   1.502857 D    
O6    Zn2   2.010138 S    
S9    O37   1.504913 D    
C19   C21   1.406450 A    
C33   C39   1.434246 A    
C20   C26   1.403428 A    
C18   C20   1.400566 A    
C28   H6    1.079852 S    
C22   C24   1.408919 A    
O3    Zn1   2.053672 S    
C6    C10   1.538327 S    
C32   N2    1.400129 A    
S2    O12   1.501212 D    
C29   C35   1.433300 A    
C13   S5    1.771563 S    
S9    O38   1.498144 D    
S1    O9    1.502319 D    
S10   O40   1.500293 D    
S5    O22   1.501332 D    
S7    O31   1.501913 D    
C35   C37   1.400764 A    
C36   C38   1.396937 A    
C40   S12   1.782459 S    
O17   H9    0.990504 S    
S4    O18   1.500728 D    
O8    Zn2   2.081203 S    
S11   O45   1.678445 S    
N3    O27   1.301747 A    
S3    O16   1.503050 D    
S6    O24   1.505138 D    
C39   C42   1.439819 A    
C27   H5    1.077633 S    
C14   S6    1.772826 S    
C40   C41   1.408611 A    
O2    C2    1.301168 A    
C20   C22   1.405852 A    
S1    O11   1.679098 S    
C9    C11   1.549564 S    
S13   O50   1.501268 D    
N3    O28   1.294326 A    
C1    C16   1.466128 S    
C2    C15   1.458796 S    
O5    Zn1   2.010140 S    
O6    C4    1.284333 A    
C30   C36   1.444171 A    
C21   C22   1.407948 A    
C5    S1    1.800869 S    
N4    O29   1.300440 A    
O23   H11   0.988213 S    
N4    O30   1.295204 A    
C34   C40   1.419933 A    
C13   C23   1.407691 A    
S14   O53   1.495840 D    
Zn1   N1    2.027744 S    
C6    C8    1.533753 S    
C5    C12   1.535528 S    
C32   S10   1.795181 S    
C10   H2    1.092538 S    
C7    S3    1.793147 S    
C6    C11   1.547346 S    
C31   S9    1.776467 S    
O48   H18   0.991301 S    
S9    O39   1.670416 S    
O1    C1    1.306693 A    
C6    S2    1.802664 S    
S12   O47   1.501915 D    
S13   O49   1.502828 D    
C17   N3    1.434659 S    
S5    O23   1.679086 S    
O45   H17   0.990588 S    
C39   S11   1.800642 S    
C14   C24   1.407390 A    
C5    C7    1.531020 S    
C8    S4    1.800661 S    
S7    O33   1.660592 S    
C17   C19   1.392662 A    
C24   C27   1.409137 A    
O4    C1    1.295365 A    
S6    O26   1.662476 S    
S3    O17   1.678701 S    
C31   C33   1.436510 A    
C13   C15   1.413579 A    
O36   H14   0.988918 S    
C30   N2    1.397701 A    
C14   C16   1.421385 A    
O11   H7    0.990539 S    
S12   O48   1.680841 S    
C16   C18   1.412566 A    
O51   H19   0.990574 S    
S12   O46   1.502866 D    
S13   O51   1.680686 S    
S3    O15   1.495825 D    
C18   N4    1.434024 S    
O4    Zn2   2.053673 S    
C29   S7    1.776820 S    
S11   O43   1.499567 D    
C26   C28   1.385238 A    
Zn2   N2    2.027745 S    
S14   O54   1.681618 S    
O33   H13   0.984615 S    
C21   C23   1.409024 A    
C29   N1    1.393794 A    
C23   C28   1.405892 A    
C33   C37   1.402714 A    
C25   H3    1.083357 S    
S8    O34   1.500086 D    
O2    Zn2   2.018626 S    
O7    C4    1.308431 A    
O8    C3    1.295873 A    
O20   H10   0.988453 S    
C19   C25   1.396523 A    
C32   C34   1.429874 A    
O1    Zn1   2.018627 S    
C25   C27   1.376404 A    
O26   H12   0.987376 S    
S10   O42   1.661750 S    
C34   C38   1.404030 A    
