data_mof_unit_28525.cif
_audit_creation_date              2012-12-10T17:11:46-0500
_audit_creation_method            fapswitch 2.2
_symmetry_space_group_name_H-M    P1
_symmetry_Int_Tables_number       1
_space_group_crystal_system       triclinic
_cell_length_a                    19.143614
_cell_length_b                    10.71986
_cell_length_c                    10.035031
_cell_angle_alpha                 89.628647
_cell_angle_beta                  89.678838
_cell_angle_gamma                 90.552205
_cell_volume                      2059.18559675

loop_
_atom_site_label
_atom_site_type_symbol
_atom_type_description
_atom_site_fract_x
_atom_site_fract_y
_atom_site_fract_z
_atom_type_partial_charge
C1    C     C_R   0.496477 0.262813 0.500309 0.886271
C2    C     C_R   0.852473 0.430554 0.506668 0.019926
C3    C     C_2   0.484093 0.932988 0.395784 -0.224869
C4    C     C_R   0.365388 0.502525 0.500323 0.900725
C5    C     C_2   0.513539 0.869490 0.495927 0.301596
C6    C     C_2   0.488713 0.066871 0.389141 -0.150137
C7    C     C_2   0.484856 0.131807 0.501511 -0.235893
C8    C     C_2   0.550670 0.543850 0.926178 0.084852
C9    C     C_2   0.554997 0.523024 0.073994 -0.102214
C10   C     C_R   0.502930 0.737317 0.499396 0.786902
C11   C     C_R   0.634339 0.494951 0.499618 0.871723
C12   C     C_R   0.289130 0.506050 0.501882 -0.243561
C13   C     C_R   0.253946 0.489564 0.623545 -0.347309
C14   C     C_R   0.181479 0.485602 0.628707 0.528257
C15   C     C_R   0.143514 0.482861 0.508312 -0.123277
C16   C     C_R   0.178598 0.505747 0.387333 -0.314173
C17   C     C_R   0.250486 0.524711 0.384152 0.510663
C18   C     C_3   0.124226 0.598653 0.787292 0.109765
C19   C     C_3   0.182296 0.680857 0.846008 -0.396511
C20   C     C_3   0.153522 0.805332 0.893353 -0.941393
C21   C     C_3   0.301346 0.682183 0.260687 0.119140
C22   C     C_3   0.238228 0.766364 0.236569 -0.416033
C23   C     C_R   0.928134 0.426627 0.504213 0.295851
C24   C     C_3   0.261133 0.901030 0.210032 -0.923993
C25   C     C_3   0.671283 0.261507 0.303206 0.129263
C26   C     C_3   0.716968 0.151676 0.261991 -0.402380
C27   C     C_3   0.677591 0.027923 0.278332 -0.897623
C28   C     C_R   0.068052 0.458070 0.506341 0.328868
C29   C     C_R   0.818520 0.479497 0.618179 -0.157743
C30   C     C_R   0.747428 0.501310 0.614240 -0.252923
C31   C     C_R   0.709174 0.471808 0.499874 -0.153798
C32   C     C_R   0.742478 0.413329 0.390832 0.487586
C33   C     C_R   0.814505 0.397651 0.393398 -0.243276
H1    H     H_    0.282424 0.481403 0.716159 0.206029
H2    H     H_    0.840647 0.359015 0.307168 0.163636
H3    H     H_    0.455428 0.886121 0.317015 0.129131
H4    H     H_    0.577581 0.863013 0.646371 0.335507
H5    H     H_    0.431330 0.380013 0.832656 0.375865
H6    H     H_    0.082920 0.584829 0.864338 0.181706
H7    H     H_    0.098923 0.647698 0.702107 0.121992
H8    H     H_    0.206878 0.631297 0.930989 0.245736
H9    H     H_    0.223076 0.700121 0.769289 0.220492
H10   H     H_    0.128734 0.855913 0.809307 0.271502
H11   H     H_    0.196813 0.864001 0.932311 0.277545
H12   H     H_    0.495153 0.111070 0.292044 0.173257
H13   H     H_    0.114347 0.790077 0.974042 0.265535
H14   H     H_    0.339127 0.695518 0.177223 0.168789
H15   H     H_    0.329039 0.711751 0.352820 0.111680
H16   H     H_    0.208234 0.731306 0.150138 0.246113
H17   H     H_    0.203348 0.764321 0.325438 0.218241
H18   H     H_    0.290675 0.937982 0.296456 0.265661
H19   H     H_    0.214402 0.959739 0.194165 0.275948
H20   H     H_    0.294617 0.906676 0.119386 0.262901
H21   H     H_    0.623279 0.260288 0.241480 0.187773
H22   H     H_    0.653620 0.249230 0.408751 0.118638
H23   H     H_    0.472621 0.087860 0.596845 0.199046
H24   H     H_    0.733251 0.163471 0.156134 0.240671
H25   H     H_    0.764582 0.149413 0.324692 0.221672
H26   H     H_    0.661617 0.013560 0.383964 0.294167
H27   H     H_    0.711955 0.950008 0.248324 0.263974
H28   H     H_    0.630378 0.026584 0.214472 0.262129
H29   H     H_    0.593272 0.594807 0.878462 0.073679
H30   H     H_    0.605606 0.532629 0.120967 0.171654
H31   H     H_    0.452539 0.513562 0.105372 0.241144
H32   H     H_    0.150392 0.510999 0.294224 0.195107
H33   H     H_    0.847443 0.506578 0.706031 0.160025
H34   H     H_    0.722601 0.543345 0.700000 0.173326
N1    N     N_R   0.032022 0.468370 0.390875 -0.182126
N2    N     N_R   0.963190 0.453055 0.389783 -0.172034
N3    N     N_R   0.964131 0.412355 0.618918 -0.180329
N4    N     N_R   0.033005 0.426633 0.619542 -0.127606
N5    N     N_2   0.500750 0.501330 0.852150 0.046863
N6    N     N_2   0.500770 0.501360 0.147810 -0.177319
O1    O     O_R   0.499990 0.319060 0.613040 -0.606957
O2    O     O_3   0.460337 0.411448 0.906712 -0.701782
O3    O     O_3   0.149387 0.479115 0.752522 -0.625233
O4    O     O_3   0.281815 0.554203 0.263139 -0.623710
O5    O     O_3   0.706299 0.376543 0.278365 -0.650825
O6    O     O_R   0.500010 0.319100 0.386900 -0.619657
O7    O     O_R   0.398130 0.499970 0.613110 -0.633715
O8    O     O_R   0.398150 0.500010 0.386970 -0.578661
O9    O     O_R   0.499990 0.680900 0.613100 -0.622931
O10   O     O_R   0.500010 0.680940 0.386960 -0.638367
O11   O     O_R   0.601850 0.499990 0.613030 -0.626774
O12   O     O_R   0.601870 0.500030 0.386890 -0.587003
O13   O     O_3   0.557306 0.927204 0.586879 -0.782264
Zn1   Zn    Zn3+2 0.499990 0.499970 0.650990 0.971447
Zn2   Zn    Zn3+2 0.500010 0.500030 0.349010 0.964428

loop_
_geom_bond_atom_site_label_1
_geom_bond_atom_site_label_2
_ccdc_geom_bond_type
C24   H19   S    
C6    H12   S    
C23   N2    A    
C19   C20   S    
O11   Zn1   S    
C3    C6    S    
C20   H10   S    
C26   C27   S    
C2    C29   A    
C1    O1    A    
C28   N1    A    
C4    O7    A    
O7    Zn1   S    
C27   H27   S    
C30   C31   A    
C15   C16   A    
C10   O10   A    
C18   C19   S    
C18   H7    S    
C27   H28   S    
N1    N2    A    
C4    O8    A    
C8    C9    S    
C12   C17   A    
H31   N6    S    
N3    N4    A    
O1    Zn1   S    
C4    C12   S    
C30   H34   S    
C19   H9    S    
C22   H17   S    
C21   H15   S    
C24   H18   S    
O10   Zn2   S    
C11   C31   S    
C9    H30   S    
C13   C14   A    
C23   N3    A    
C9    N6    D    
C7    H23   S    
N5    O2    S    
O6    Zn2   S    
C20   H11   S    
H5    O2    S    
C8    N5    D    
C25   O5    S    
H4    O13   S    
C25   H21   S    
C16   C17   A    
C24   H20   S    
C10   O9    A    
C14   O3    S    
C18   H6    S    
N6    Zn2   S    
C29   C30   A    
C31   C32   A    
C17   O4    S    
C26   H25   S    
C22   H16   S    
C5    O13   S    
C2    C33   A    
C1    O6    A    
C22   C24   S    
C28   N4    A    
N5    Zn1   S    
O12   Zn2   S    
C18   O3    S    
C1    C7    S    
C25   H22   S    
C3    C5    D    
C6    C7    D    
C11   O11   A    
C32   C33   A    
C25   C26   S    
C5    C10   S    
C27   H26   S    
C15   C28   S    
C3    H3    S    
C11   O12   A    
C33   H2    S    
C26   H24   S    
O8    Zn2   S    
C32   O5    S    
C29   H33   S    
C19   H8    S    
C13   H1    S    
C12   C13   A    
C21   O4    S    
C2    C23   S    
C14   C15   A    
C16   H32   S    
C21   C22   S    
C20   H13   S    
O9    Zn1   S    
C8    H29   S    
C21   H14   S    
