data_mof_unit_43168.cif
_audit_creation_date              2012-12-10T17:29:17-0500
_audit_creation_method            fapswitch 2.2
_symmetry_space_group_name_H-M    P1
_symmetry_Int_Tables_number       1
_space_group_crystal_system       triclinic
_cell_length_a                    12.047971
_cell_length_b                    12.822469
_cell_length_c                    13.123596
_cell_angle_alpha                 87.007638
_cell_angle_beta                  113.668059
_cell_angle_gamma                 93.574659
_cell_volume                      1852.43224561

loop_
_atom_site_label
_atom_site_type_symbol
_atom_type_description
_atom_site_fract_x
_atom_site_fract_y
_atom_site_fract_z
_atom_type_partial_charge
C1    C     C_R   0.476984 0.299727 0.497794 0.924931
C2    C     C_R   0.555915 0.482540 0.988594 0.004444
C3    C     C_R   0.530382 0.451360 0.879986 0.003703
C4    C     C_R   0.462632 0.469602 0.028212 0.044061
C5    C     C_R   0.353812 0.410801 0.967677 0.025451
C6    C     C_R   0.338456 0.367129 0.867447 0.577533
C7    C     C_R   0.425472 0.387571 0.823902 -0.261909
C8    C     C_R   0.474271 0.514918 0.126143 -0.201882
C9    C     C_R   0.283118 0.433051 0.113670 -0.146335
C10   C     C_R   0.609874 0.486156 0.829428 -0.165907
C11   C     C_R   0.543368 0.811112 0.517596 -0.141970
C12   C     C_R   0.566333 0.491785 0.708595 0.869021
C13   C     C_R   0.461470 0.188636 0.493048 -0.179824
C14   C     C_R   0.348449 0.034069 0.404215 -0.275985
C15   C     C_R   0.353860 0.140843 0.418256 0.631400
C16   C     C_R   0.561322 0.130763 0.556731 -0.341338
C17   C     C_R   0.556389 0.024445 0.543697 0.140052
C18   C     C_R   0.449849 0.976122 0.465813 0.082111
C19   C     C_R   0.445805 0.870406 0.451342 -0.216077
C20   C     C_R   0.650339 0.857928 0.597563 -0.044067
C21   C     C_R   0.656377 0.966120 0.607541 -0.136457
C22   C     C_R   0.015875 0.613866 0.417627 -0.343246
C23   C     C_R   0.524610 0.700103 0.506097 0.866052
C24   C     C_R   0.132246 0.601476 0.420548 0.146881
C25   C     C_R   0.153934 0.448344 0.535267 -0.015668
C26   C     C_R   0.035016 0.457619 0.531831 0.078495
C27   C     C_R   0.965838 0.541799 0.472040 0.080322
C28   C     C_R   0.847119 0.551692 0.466828 -0.022207
C29   C     C_R   0.864610 0.398396 0.579239 0.024127
C30   C     C_R   0.982952 0.385441 0.586128 -0.257935
C31   C     C_R   0.433181 0.503693 0.291457 0.911297
C32   C     C_R   0.263534 0.395088 0.009963 -0.126703
C33   C     C_R   0.390796 0.490239 0.172810 -0.055744
C34   C     C_R   0.725023 0.530168 0.893541 -0.289541
C35   C     C_R   0.758011 0.546202 0.005953 0.704877
C36   C     C_R   0.673643 0.525279 0.052969 -0.266201
H1    H     H_    0.217988 0.412876 0.150063 0.198081
H2    H     H_    0.266174 0.997062 0.344780 0.176029
H3    H     H_    0.736849 0.004586 0.668031 0.182231
H4    H     H_    0.643582 0.169138 0.615042 0.171514
H5    H     H_    0.793279 0.615918 0.419718 0.130282
H6    H     H_    0.825486 0.342035 0.621086 0.138659
H7    H     H_    0.963328 0.679030 0.370647 0.156554
H8    H     H_    0.032619 0.319126 0.632824 0.213170
H9    H     H_    0.208041 0.384219 0.582034 0.160236
H10   H     H_    0.180478 0.349777 0.965453 0.200178
H11   H     H_    0.551177 0.566138 0.171316 0.145457
H12   H     H_    0.787784 0.555414 0.855869 0.187329
H13   H     H_    0.703913 0.540682 0.140271 0.159020
H14   H     H_    0.410807 0.351686 0.746441 0.175184
H15   H     H_    0.365231 0.833489 0.389640 0.166338
N1    N     N_R   0.798200 0.480260 0.519790 -0.104371
N2    N     N_R   0.201820 0.519740 0.480210 -0.118374
O1    O     O_R   0.579910 0.341070 0.505280 -0.628768
O2    O     O_R   0.388440 0.353740 0.492580 -0.582569
O3    O     O_R   0.643280 0.490550 0.663120 -0.626741
O4    O     O_R   0.451810 0.503220 0.650420 -0.620397
O5    O     O_R   0.611560 0.646260 0.507420 -0.638911
O6    O     O_R   0.420090 0.658930 0.494720 -0.608875
O7    O     O_R   0.548190 0.496780 0.349580 -0.624566
O8    O     O_R   0.356720 0.509450 0.336880 -0.543055
Zn1   Zn    Zn3+2 0.627850 0.491540 0.508480 0.947120
Zn2   Zn    Zn3+2 0.372150 0.508460 0.491520 1.014041
C37   C     C_2   0.752011 0.795956 0.675925 0.420155
H16   H     H_    0.740289 0.712479 0.688121 0.084503
O9    O     O_2   0.850721 0.838156 0.729800 -0.544031
F1    F     F_    0.257365 0.197894 0.354932 -0.654075
C38   C     C_2   0.173861 0.680751 0.357128 0.507583
H17   H     H_    0.163415 0.762830 0.365981 0.005235
O10   O     O_2   0.209288 0.656108 0.287365 -0.527769
F2    F     F_    0.238597 0.305896 0.810633 -0.696817
F3    F     F_    0.869989 0.587475 0.068350 -0.645340

loop_
_geom_bond_atom_site_label_1
_geom_bond_atom_site_label_2
_ccdc_geom_bond_type
C31   O7    A    
O5    Zn1   S    
C23   O5    A    
C2    C4    A    
C1    O1    A    
C31   C33   S    
C20   C37   S    
C29   C30   A    
C19   H15   S    
C29   H6    S    
C14   H2    S    
C28   N1    A    
C14   C18   A    
O6    Zn2   S    
C22   H7    S    
C21   H3    S    
C4    C8    A    
C5    C32   A    
C15   F1    S    
C37   H16   S    
C9    H1    S    
C2    C3    A    
C1    O2    A    
C8    H11   S    
C10   C34   A    
C3    C10   A    
N1    Zn1   S    
O4    Zn2   S    
O7    Zn1   S    
C23   O6    A    
N2    Zn2   S    
C30   H8    S    
C26   C27   A    
C6    C7    A    
C10   C12   S    
C9    C33   A    
C12   O4    A    
C11   C23   S    
C12   O3    A    
C16   H4    S    
C35   F3    S    
C26   C30   A    
C3    C7    A    
C8    C33   A    
C13   C15   A    
C5    C6    A    
C22   C24   A    
C11   C20   A    
C1    C13   S    
C24   C38   S    
C16   C17   A    
C25   H9    S    
C28   H5    S    
C22   C27   A    
C34   H12   S    
C20   C21   A    
C24   N2    A    
C17   C18   A    
C34   C35   A    
C13   C16   A    
C2    C36   A    
C27   C28   A    
O8    Zn2   S    
C18   C19   A    
C31   O8    A    
C14   C15   A    
C11   C19   A    
C37   O9    D    
O1    Zn1   S    
C9    C32   A    
C25   C26   A    
C38   H17   S    
C38   O10   D    
C32   H10   S    
O3    Zn1   S    
C17   C21   A    
C36   H13   S    
C35   C36   A    
C7    H14   S    
C25   N2    A    
C4    C5    A    
C6    F2    S    
C29   N1    A    
O2    Zn2   S    
