data_mof_unit_20166.cif
_audit_creation_date              2013-03-05T15:43:38-0500
_audit_creation_method            fapswitch 2.2
_symmetry_space_group_name_H-M    P1
_symmetry_Int_Tables_number       1
_space_group_crystal_system       triclinic
_cell_length_a                    8.304544
_cell_length_b                    15.183727
_cell_length_c                    18.940639
_cell_angle_alpha                 100.972179
_cell_angle_beta                  91.378695
_cell_angle_gamma                 99.930121
_cell_volume                      2305.51617216

loop_
_atom_site_label
_atom_site_type_symbol
_atom_site_description
_atom_site_fract_x
_atom_site_fract_y
_atom_site_fract_z
_atom_type_partial_charge
P1    P     P_3+3 0.038110 0.412300 0.335300 0.540938
O1    O     O_2   0.871030 0.438240 0.324420 -0.320969
O2    O     O_3   0.120590 0.445310 0.413740 -0.333669
O3    O     O_3   0.663040 0.605930 0.370050 -0.351933
O4    O     O_2   0.752085 0.530511 0.243573 -0.337218
O5    O     O_3   0.014996 0.293803 0.301429 -0.641757
O6    O     O_3   0.733927 0.702127 0.258256 -0.517641
C1    C     C_3   0.636535 0.834517 0.239252 -0.822524
H1    H     H_    0.759855 0.863295 0.223837 0.286671
H2    H     H_    0.561861 0.796404 0.189973 0.219817
P2    P     P_3+3 0.679950 0.711710 0.558590 0.569730
P3    P     P_3+3 0.144540 0.769843 0.403015 0.561793
O7    O     O_2   0.855660 0.723510 0.537160 -0.335013
O8    O     O_3   0.086340 0.654970 0.406630 -0.334952
O9    O     O_2   0.032136 0.819597 0.454433 -0.282773
O10   O     O_3   0.706024 0.743370 0.652820 -0.517696
O11   O     O_3   0.079418 0.783416 0.317886 -0.479744
C2    C     C_3   0.193142 0.756229 0.268554 0.376435
H3    H     H_    0.226527 0.690274 0.274990 0.034977
C3    C     C_3   0.119431 0.743818 0.192257 -0.840479
H4    H     H_    0.012819 0.686833 0.182334 0.267976
H5    H     H_    0.079097 0.807411 0.184161 0.267770
C4    C     C_3   0.131738 0.760238 0.659915 0.749864
C5    C     C_3   0.142745 0.849599 0.715300 -0.674848
H6    H     H_    0.272878 0.881327 0.730428 0.289601
H7    H     H_    0.081672 0.898741 0.693353 0.268444
H8    H     H_    0.080249 0.837560 0.764357 0.224611
Ba1   Ba    Ba6+2 0.854120 0.540280 0.465540 1.715702
C6    C     C_3   0.899107 0.238563 0.334078 0.438559
C7    C     C_3   0.854321 0.143379 0.282674 0.287247
H9    H     H_    0.970839 0.120738 0.267161 0.077861
C8    C     C_3   0.711632 0.666015 0.682736 0.447891
H10   H     H_    0.587947 0.626687 0.681319 0.170255
C9    C     C_3   0.778177 0.695555 0.761172 -0.874462
H11   H     H_    0.912991 0.703798 0.764982 0.191084
H12   H     H_    0.743054 0.761203 0.786426 0.312516
P4    P     P_3+3 0.151600 0.587780 0.664700 0.528228
O12   O     O_2   0.318670 0.561790 0.675630 -0.327599
O13   O     O_3   0.069120 0.554770 0.586270 -0.367916
O14   O     O_3   0.526680 0.394150 0.629950 -0.377777
O15   O     O_3   0.231647 0.705937 0.684507 -0.543264
P5    P     P_3+3 0.053980 0.228277 0.592274 0.605831
O16   O     O_3   0.607620 0.388570 0.462320 -0.347477
O17   O     O_3   0.103380 0.345110 0.593380 -0.367248
O18   O     O_2   0.173437 0.182446 0.542780 -0.252182
O19   O     O_3   0.100279 0.207636 0.677659 -0.466548
Ba2   Ba    Ba6+2 0.335710 0.459790 0.534460 1.726588
P6    P     P_3+3 0.642148 0.597508 0.277524 0.527580
C10   C     C_3   0.651310 0.771075 0.291305 0.451253
H13   H     H_    0.526175 0.745450 0.306646 -0.077721
H14   H     H_    0.575807 0.891052 0.264898 0.262566
O20   O     O_3   0.582100 0.611510 0.537680 -0.406317
C11   C     C_3   0.392389 0.264939 0.309460 0.747545
C12   C     C_3   0.309233 0.189069 0.247899 -0.793090
H15   H     H_    0.400170 0.166552 0.209883 0.301150
P7    P     P_3+3 0.513818 0.273010 0.441479 0.520052
O21   O     O_2   0.334040 0.276520 0.462890 -0.305190
O22   O     O_3   0.502424 0.228674 0.348348 -0.596503
H16   H     H_    0.212362 0.727515 0.153012 0.201131
C13   C     C_3   0.072154 0.281946 0.729692 0.397279
H17   H     H_    0.946797 0.295734 0.722186 -0.021408
C14   C     C_3   0.091879 0.260966 0.804484 -0.729245
H18   H     H_    0.218849 0.251784 0.815345 0.318126
H19   H     H_    0.064554 0.318113 0.845709 0.205892
H20   H     H_    0.007425 0.197355 0.808739 0.240668
P8    P     P_3+3 0.550132 0.405805 0.723382 0.488587
C15   C     C_3   0.575216 0.236284 0.727659 0.752441
H21   H     H_    0.676651 0.260919 0.695071 -0.195639
O23   O     O_2   0.425064 0.466127 0.752097 -0.330546
O24   O     O_3   0.470943 0.300561 0.746656 -0.548328
H22   H     H_    0.748916 0.273968 0.820637 0.059719
C16   C     C_3   0.653066 0.215182 0.796059 -0.185773
C17   C     C_R   0.991542 0.459308 0.049851 0.042392
C18   C     C_R   0.899532 0.408564 0.095349 -0.138191
C19   C     C_R   0.766934 0.430919 0.955744 -0.231959
C20   C     C_R   0.931779 0.462315 0.978892 -0.003544
C21   C     C_R   0.705574 0.440291 0.888905 0.363663
C22   C     C_R   0.812645 0.467553 0.836793 -0.164379
C23   C     C_R   0.976382 0.508283 0.860535 -0.017866
C24   C     C_R   0.032928 0.508682 0.933132 0.035993
C25   C     C_R   0.761027 0.459329 0.763093 0.161976
C26   C     C_R   0.874777 0.488644 0.715105 -0.474236
C27   C     C_R   0.029510 0.541176 0.738344 0.168840
C28   C     C_R   0.078182 0.555800 0.814408 -0.155412
C29   C     C_R   0.149697 0.507111 0.076006 0.044563
C30   C     C_R   0.208168 0.507899 0.148075 0.028971
C31   C     C_R   0.106265 0.463456 0.195143 -0.070314
C32   C     C_R   0.955146 0.411231 0.166039 0.018439
H23   H     H_    0.837355 0.475327 0.658408 0.153809
H24   H     H_    0.876188 0.372110 0.197573 0.210883
C33   C     C_R   0.215945 0.619189 0.849230 0.414511
C34   C     C_R   0.264701 0.621674 0.920956 -0.151768
C35   C     C_R   0.186084 0.560159 0.961140 0.036079
C36   C     C_R   0.249229 0.555307 0.030832 0.100766
C37   C     C_R   0.411961 0.594318 0.055765 -0.154142
C38   C     C_R   0.369941 0.551617 0.172348 -0.003664
C39   C     C_R   0.471322 0.591213 0.124323 -0.200563
C40   C     C_R   0.425606 0.554705 0.243971 0.201256
C41   C     C_R   0.316534 0.520968 0.292204 -0.412503
C42   C     C_R   0.159788 0.472022 0.269138 0.219904
H25   H     H_    0.597690 0.621733 0.139101 0.180537
H26   H     H_    0.677804 0.411368 0.993019 0.191664
H27   H     H_    0.366045 0.674536 0.944898 0.158202
H28   H     H_    0.498425 0.625567 0.022181 0.166237
C43   C     C_R   0.743300 0.237829 0.537468 -0.369979
C44   C     C_R   0.843600 0.179898 0.555565 0.214093
C45   C     C_R   0.792448 0.085476 0.536016 -0.153486
C46   C     C_R   0.632587 0.046809 0.505428 0.111972
C47   C     C_R   0.539646 0.107668 0.482810 -0.056989
C48   C     C_R   0.600910 0.201347 0.494346 0.244511
C49   C     C_R   0.427362 0.905270 0.446303 -0.217020
C50   C     C_R   0.363467 0.812244 0.435067 0.187645
C51   C     C_R   0.587997 0.789654 0.510637 0.193515
C52   C     C_R   0.640709 0.885152 0.529333 0.216759
C53   C     C_R   0.568715 0.944636 0.492789 0.003078
C54   C     C_R   0.454483 0.753980 0.460707 -0.379695
H29   H     H_    0.358497 0.945396 0.420565 0.155905
H30   H     H_    0.882639 0.044165 0.541894 0.195660
H31   H     H_    0.421926 0.084877 0.454123 0.152326
H32   H     H_    0.409284 0.681205 0.448886 0.173048
H33   H     H_    0.785551 0.310903 0.549376 0.162115
H34   H     H_    0.723868 0.810270 0.340852 0.141468
H35   H     H_    0.788602 0.269234 0.343545 0.079250
N1    N     N_R   0.972491 0.229075 0.402164 0.185653
O25   O     O_R   0.995704 0.298977 0.454808 -0.375966
O26   O     O_R   0.052738 0.163196 0.404711 -0.395110
N2    N     N_R   0.766302 0.147902 0.215699 0.239105
O27   O     O_R   0.835391 0.200733 0.174310 -0.388251
O28   O     O_R   0.642300 0.084573 0.188571 -0.329623
N3    N     N_R   0.762137 0.074891 0.318809 0.219950
O29   O     O_R   0.832712 0.011506 0.336675 -0.402005
O30   O     O_R   0.607137 0.072146 0.328440 -0.408616
H36   H     H_    0.787929 0.620445 0.652363 0.009614
H37   H     H_    0.729487 0.642966 0.792367 0.255896
H38   H     H_    0.294595 0.289008 0.342298 0.070149
N4    N     N_R   0.482332 0.341535 0.282184 0.190666
O31   O     O_R   0.494460 0.339949 0.213538 -0.410555
O32   O     O_R   0.552145 0.413275 0.328140 -0.371553
H39   H     H_    0.250807 0.129485 0.269984 0.238612
H40   H     H_    0.215019 0.213366 0.217756 0.235966
H41   H     H_    0.161745 0.344185 0.726667 0.157467
N5    N     N_R   0.480242 0.153714 0.682585 0.245361
O33   O     O_R   0.410287 0.160081 0.622472 -0.348779
O34   O     O_R   0.476519 0.073041 0.697140 -0.312108
H42   H     H_    0.715906 0.155928 0.781221 0.145258
N6    N     N_R   0.533426 0.196404 0.849290 0.299363
O35   O     O_R   0.409408 0.129555 0.832973 -0.287477
O36   O     O_R   0.566118 0.235768 0.916519 -0.330785
N7    N     N_R   0.539123 0.450666 0.884845 0.253035
O37   O     O_R   0.513232 0.532442 0.884965 -0.426634
O38   O     O_R   0.425024 0.392112 0.905097 -0.365488
N8    N     N_R   0.293834 0.692825 0.818950 0.243406
O39   O     O_R   0.251368 0.771647 0.840242 -0.405745
O40   O     O_R   0.441559 0.691602 0.798730 -0.360697
H43   H     H_    0.358150 0.527545 0.347801 0.176857
H44   H     H_    0.783623 0.364662 0.077318 0.180886
H45   H     H_    0.303692 0.810350 0.275812 0.059012
N9    N     N_R   0.753039 0.920593 0.590754 0.226462
O41   O     O_R   0.903584 0.907528 0.588443 -0.368974
O42   O     O_R   0.704100 0.964278 0.649835 -0.327317
N10   N     N_R   0.189030 0.777928 0.591635 0.238227
O43   O     O_R   0.253427 0.859535 0.583349 -0.372750
O44   O     O_R   0.197573 0.707959 0.541709 -0.380169
H46   H     H_    0.003911 0.726490 0.651956 -0.005589

loop_
_geom_bond_atom_site_label_1
_geom_bond_atom_site_label_2
_geom_bond_distance
_ccdc_geom_bond_type
O14   Ba2   2.805877 S    
C43   C48   1.388389 A    
Ba1   Ba2   4.608103 S    
C35   C36   1.428237 A    
P2    O7    1.513971 D    
C17   C18   1.414758 A    
C32   H24   1.076624 S    
C49   C50   1.394132 A    
C11   H38   1.104586 S    
C5    H8    1.105117 S    
P3    C50   1.866251 S    
C31   C32   1.401688 A    
C52   C53   1.434087 A    
C21   C22   1.416696 A    
C46   C47   1.419134 A    
C6    C7    1.560934 S    
C26   H23   1.081789 S    
C46   C53   1.521215 S    
N1    O26   1.301450 A    
O2    Ba1   2.933502 S    
C5    H7    1.106899 S    
C15   C16   1.545381 S    
N7    O38   1.300833 A    
C23   C28   1.436544 A    
P8    O23   1.542437 D    
C44   C45   1.397600 A    
C9    H37   1.109028 S    
C16   H42   1.110627 S    
C6    N1    1.455470 S    
P7    O21   1.563536 D    
C13   C14   1.521078 S    
C9    H11   1.103920 S    
P5    O19   1.751042 S    
C10   H13   1.110785 S    
C52   N9    1.431615 S    
C14   H19   1.110231 S    
P2    O20   1.568635 S    
C34   H27   1.080874 S    
O3    Ba1   2.806524 S    
C12   H15   1.107771 S    
C12   H40   1.110153 S    
C41   C42   1.397496 A    
C1    H1    1.110671 S    
C41   H43   1.081144 S    
P3    O11   1.748636 S    
C19   H26   1.078699 S    
C45   C46   1.416861 A    
O7    Ba1   2.851448 S    
C28   C33   1.418626 A    
P4    Ba2   3.403085 S    
C45   H30   1.073052 S    
C2    C3    1.520715 S    
O17   Ba2   2.772115 S    
C51   C54   1.401620 A    
O14   P8    1.747368 S    
N9    O42   1.299878 A    
C11   N4    1.457780 S    
P5    O17   1.746462 S    
C12   H39   1.109650 S    
C8    H36   1.108332 S    
P1    C42   1.895057 S    
P7    C48   1.833318 S    
N10   O44   1.294112 A    
N10   O43   1.302125 A    
N6    O36   1.300033 A    
O4    P6    1.543187 D    
N6    O35   1.300472 A    
C43   H33   1.082456 S    
C15   H21   1.111183 S    
C5    H6    1.111333 S    
O6    C10   1.406221 S    
N4    O32   1.295099 A    
C4    H46   1.089706 S    
C21   N7    1.419884 S    
C33   C34   1.399912 A    
C22   C23   1.417148 A    
C2    H3    1.111394 S    
Ba1   O13   2.818136 S    
C29   C30   1.434968 A    
C25   C26   1.402466 A    
C54   H32   1.082011 S    
C38   C40   1.412203 A    
C13   H17   1.107780 S    
P1    O2    1.573803 S    
P5    O18   1.543281 D    
C8    C9    1.528071 S    
N3    O30   1.299076 A    
C19   C20   1.400006 A    
N2    O28   1.301543 A    
P4    O12   1.526333 D    
C13   H41   1.109089 S    
Ba2   O21   2.851520 S    
P5    C44   1.838449 S    
C29   C36   1.419370 A    
C27   C28   1.451733 A    
P3    O9    1.548361 D    
C7    H9    1.109403 S    
C4    C5    1.536426 S    
C38   C39   1.402924 A    
C14   H18   1.106683 S    
O11   C2    1.401964 S    
C18   H44   1.078775 S    
P1    Ba1   3.402445 S    
N8    O39   1.299248 A    
C3    H16   1.110350 S    
C19   C21   1.394679 A    
C1    H14   1.108847 S    
C17   C29   1.414315 A    
O12   Ba2   2.843505 S    
C30   C38   1.415407 A    
N8    O40   1.296065 A    
C26   C27   1.402427 A    
N9    O41   1.299677 A    
C17   C20   1.433123 A    
N5    O34   1.301257 A    
N2    O27   1.299814 A    
C33   N8    1.417711 S    
C50   C54   1.402238 A    
C37   H28   1.079227 S    
C47   H31   1.075580 S    
O13   Ba2   2.934480 S    
C51   C52   1.413405 A    
O3    P6    1.734966 S    
P1    O1    1.525922 D    
C7    N2    1.467677 S    
C14   H20   1.109048 S    
O19   C13   1.406265 S    
C30   C31   1.426408 A    
C20   C24   1.419791 A    
C3    H5    1.110628 S    
N4    O31   1.302489 A    
C49   C53   1.420717 A    
C11   O22   1.405792 S    
C37   C39   1.389935 A    
C11   C12   1.529409 S    
Ba2   O20   2.795029 S    
O10   C8    1.404892 S    
P6    C40   1.856016 S    
C43   C44   1.392387 A    
Ba1   O16   2.795463 S    
C4    O15   1.395964 S    
C49   H29   1.075042 S    
C15   O24   1.415843 S    
O8    Ba1   2.771556 S    
O6    P6    1.747564 S    
N3    O29   1.301260 A    
P3    O8    1.742651 S    
H22   C16   1.107238 S    
P4    O13   1.573637 S    
C2    H45   1.108041 S    
C7    N3    1.468834 S    
C47   C48   1.398767 A    
C8    H10   1.092411 S    
P8    C25   1.872579 S    
Ba1   O20   2.927188 S    
C22   C25   1.426320 A    
P8    O24   1.760702 S    
P2    Ba1   3.412978 S    
C16   N6    1.464554 S    
C10   H34   1.111067 S    
C6    H35   1.102150 S    
O2    Ba2   2.818614 S    
C34   C35   1.400765 A    
P7    O22   1.758311 S    
C9    H12   1.110385 S    
P4    O15   1.766852 S    
C36   C37   1.409588 A    
P2    C51   1.869812 S    
P2    O10   1.755653 S    
C23   C24   1.440845 A    
O16   P7    1.758271 S    
O5    C6    1.399928 S    
C3    H4    1.110738 S    
C1    H2    1.110579 S    
C40   C41   1.405489 A    
P1    O5    1.766691 S    
C31   C42   1.435065 A    
N5    O33   1.293314 A    
P4    C27   1.915913 S    
O1    Ba1   2.842758 S    
C18   C32   1.396694 A    
C24   C35   1.406019 A    
N7    O37   1.295764 A    
C15   N5    1.463505 S    
O16   Ba2   2.926351 S    
C1    C10   1.520354 S    
C39   H25   1.078490 S    
N1    O25   1.294294 A    
C4    N10   1.445266 S    
