data_mof_unit_32402.cif
_audit_creation_date              2012-12-11T14:01:30-0500
_audit_creation_method            fapswitch 2.2
_symmetry_space_group_name_H-M    P1
_symmetry_Int_Tables_number       1
_space_group_crystal_system       triclinic
_cell_length_a                    19.081925
_cell_length_b                    10.973484
_cell_length_c                    18.814983
_cell_angle_alpha                 89.775144
_cell_angle_beta                  89.743203
_cell_angle_gamma                 90.097022
_cell_volume                      3939.69142716

loop_
_atom_site_label
_atom_site_type_symbol
_atom_type_description
_atom_site_fract_x
_atom_site_fract_y
_atom_site_fract_z
_atom_type_partial_charge
C1    C     C_R   0.272815 0.040930 0.854006 0.553363
C2    C     C_R   0.727166 0.041141 0.145990 0.555176
C3    C     C_R   0.772818 0.540920 0.854011 0.553352
C4    C     C_R   0.227170 0.541153 0.145995 0.555203
C5    C     C_R   0.486045 0.047193 0.070936 -0.073516
C6    C     C_R   0.518629 0.045571 0.926550 -0.074015
C7    C     C_R   0.984922 0.546729 0.071309 -0.073791
C8    C     C_R   0.017558 0.546034 0.926928 -0.073756
C9    C     C_R   0.992084 0.656217 0.034368 -0.119307
C10   C     C_R   0.011783 0.655793 0.963293 -0.119209
C11   C     C_R   0.493909 0.156465 0.033905 -0.119267
C12   C     C_R   0.513567 0.155512 0.962823 -0.119361
C13   C     C_2   0.246267 0.576849 0.918993 -0.119223
C14   C     C_2   0.753815 0.577450 0.081133 -0.118942
C15   C     C_2   0.746244 0.076819 0.918977 -0.119290
C16   C     C_2   0.253796 0.077477 0.081120 -0.118875
C17   C     C_2   0.248979 0.581538 0.075506 -0.113437
C18   C     C_2   0.750996 0.580970 0.924400 -0.113667
C19   C     C_2   0.748966 0.081487 0.075492 -0.113390
C20   C     C_2   0.250982 0.081014 0.924386 -0.113720
C21   C     C_2   0.287719 0.507428 0.034358 -0.178997
C22   C     C_2   0.712775 0.506245 0.966148 -0.179105
C23   C     C_2   0.787651 0.007304 0.034332 -0.178922
C24   C     C_2   0.212722 0.006340 0.966127 -0.179152
C25   C     C_2   0.298423 0.532557 0.958714 -0.164698
C26   C     C_2   0.701898 0.531825 0.041663 -0.164493
C27   C     C_2   0.798378 0.032449 0.958694 -0.164664
C28   C     C_2   0.201861 0.031914 0.041646 -0.164524
C29   C     C_2   0.511806 0.839483 0.584114 -0.105344
C30   C     C_2   0.513542 0.828713 0.428316 -0.106473
C31   C     C_2   0.011806 0.339483 0.584114 -0.105333
C32   C     C_2   0.013541 0.328713 0.428315 -0.106472
C33   C     C_2   0.544714 0.747625 0.471854 -0.170266
C34   C     C_2   0.530494 0.741239 0.547414 -0.173778
C35   C     C_2   0.044712 0.247624 0.471854 -0.170259
C36   C     C_2   0.030492 0.241238 0.547413 -0.173778
C37   C     C_2   0.244835 0.563286 0.584226 -0.075781
C38   C     C_2   0.752184 0.569315 0.418649 -0.074229
C39   C     C_2   0.744837 0.063280 0.584228 -0.075797
C40   C     C_2   0.252181 0.069315 0.418649 -0.074213
C41   C     C_2   0.239245 0.570637 0.426295 -0.136956
C42   C     C_2   0.761671 0.572366 0.573587 -0.132519
C43   C     C_2   0.739245 0.070635 0.426296 -0.136962
C44   C     C_2   0.261671 0.072366 0.573588 -0.132506
C45   C     C_R   0.470813 0.820706 0.853246 0.549591
C46   C     C_R   0.529457 0.820871 0.146504 0.553439
C47   C     C_R   0.970766 0.320729 0.853289 0.549778
C48   C     C_R   0.029405 0.320844 0.146549 0.553222
C49   C     C_2   0.189507 0.534123 0.472247 -0.158125
C50   C     C_2   0.813467 0.542040 0.528397 -0.152495
C51   C     C_2   0.689509 0.034115 0.472248 -0.158110
C52   C     C_2   0.313462 0.042027 0.528397 -0.152508
C53   C     C_2   0.187889 0.582958 0.544374 0.240091
C54   C     C_2   0.812529 0.579790 0.453944 0.238139
C55   C     C_2   0.687890 0.082947 0.544377 0.240083
C56   C     C_2   0.312526 0.079782 0.453945 0.238136
C57   C     C_R   0.260499 0.635548 0.850996 0.553387
C58   C     C_R   0.739480 0.635769 0.148998 0.557577
C59   C     C_R   0.760495 0.135542 0.850993 0.553347
C60   C     C_R   0.239477 0.135775 0.148994 0.557637
C61   C     C_R   0.273236 0.044499 0.647327 0.549737
C62   C     C_R   0.726969 0.044141 0.352601 0.549625
C63   C     C_R   0.773237 0.544499 0.647327 0.549713
C64   C     C_R   0.226969 0.544141 0.352600 0.549663
C65   C     C_R   0.472212 0.824730 0.649267 0.549959
C66   C     C_R   0.532045 0.823108 0.353845 0.554702
C67   C     C_R   0.972212 0.324730 0.649267 0.550010
C68   C     C_R   0.032045 0.323108 0.353845 0.554649
C69   C     C_R   0.259976 0.634872 0.647084 0.569895
C70   C     C_R   0.739653 0.635039 0.353149 0.568505
C71   C     C_R   0.759976 0.134870 0.647085 0.569887
C72   C     C_R   0.239653 0.135039 0.353149 0.568520
C73   C     C_R   0.502621 0.823068 0.073957 -0.053520
C74   C     C_R   0.498458 0.822567 0.925405 -0.053425
C75   C     C_R   0.002425 0.322930 0.074068 -0.053598
C76   C     C_R   0.998274 0.322686 0.925512 -0.053393
C77   C     C_R   0.497180 0.934597 0.036468 -0.027917
C78   C     C_R   0.505483 0.934066 0.962013 -0.027463
C79   C     C_R   0.996581 0.434441 0.036695 -0.027930
C80   C     C_R   0.004900 0.434207 0.962241 -0.027446
C81   C     C_R   0.498363 0.710659 0.963759 0.258280
C82   C     C_R   0.502165 0.710830 0.036239 0.257855
C83   C     C_R   0.998344 0.210701 0.963801 0.258192
C84   C     C_R   0.002142 0.210766 0.036281 0.257967
Cr1   Cr    Cr6+3 0.230530 0.836340 0.748870 1.003046
Cr2   Cr    Cr6+3 0.769470 0.836340 0.251130 0.989298
Cr3   Cr    Cr6+3 0.730530 0.336340 0.748870 1.002901
Cr4   Cr    Cr6+3 0.269470 0.336340 0.251130 0.989432
Cr5   Cr    Cr6+3 0.387420 0.989430 0.750820 1.014409
Cr6   Cr    Cr6+3 0.612580 0.989430 0.249180 1.008708
Cr7   Cr    Cr6+3 0.887420 0.489430 0.750820 1.014250
Cr8   Cr    Cr6+3 0.112580 0.489430 0.249180 1.008880
Cr9   Cr    Cr6+3 0.385640 0.677860 0.749230 1.007353
Cr10  Cr    Cr6+3 0.614360 0.677860 0.250770 1.000917
Cr11  Cr    Cr6+3 0.885640 0.177860 0.749230 1.007451
Cr12  Cr    Cr6+3 0.114360 0.177860 0.250770 1.000770
H1    H     H_    0.144536 0.481880 0.454178 0.138010
H2    H     H_    0.860882 0.498181 0.547688 0.141082
H3    H     H_    0.644539 0.981868 0.454180 0.138011
H4    H     H_    0.360875 0.998159 0.547687 0.141079
H5    H     H_    0.284525 0.623776 0.442391 0.076639
H6    H     H_    0.713427 0.615902 0.556682 0.071945
H7    H     H_    0.784523 0.123778 0.442392 0.076623
H8    H     H_    0.213429 0.115915 0.556684 0.071956
H9    H     H_    0.285637 0.502842 0.565228 0.052058
H10   H     H_    0.707232 0.526239 0.443736 0.037294
H11   H     H_    0.785640 0.002840 0.565230 0.052063
H12   H     H_    0.207227 0.026246 0.443736 0.037297
H13   H     H_    0.470418 0.051773 0.126186 0.128927
H14   H     H_    0.533924 0.048547 0.871134 0.126832
H15   H     H_    0.969362 0.550840 0.126595 0.128727
H16   H     H_    0.032951 0.549461 0.871550 0.126998
H17   H     H_    0.983677 0.741587 0.061074 0.104328
H18   H     H_    0.021300 0.740745 0.936145 0.103973
H19   H     H_    0.486092 0.242061 0.060548 0.104628
H20   H     H_    0.523620 0.240212 0.935598 0.103699
H21   H     H_    0.225625 0.663818 0.053748 0.110837
H22   H     H_    0.773968 0.663840 0.945611 0.111040
H23   H     H_    0.725658 0.163814 0.053743 0.110821
H24   H     H_    0.273982 0.163857 0.945602 0.111045
H25   H     H_    0.193890 0.586303 0.941334 0.114389
H26   H     H_    0.806136 0.587842 0.058707 0.114061
H27   H     H_    0.693870 0.086316 0.941318 0.114609
H28   H     H_    0.306119 0.087835 0.058694 0.113874
H29   H     H_    0.578396 0.676326 0.450853 0.154469
H30   H     H_    0.529718 0.650964 0.571400 0.151778
H31   H     H_    0.078394 0.176324 0.450853 0.154473
H32   H     H_    0.029716 0.150963 0.571399 0.151778
O1    O     O_R   0.215090 0.709860 0.828130 -0.537789
O2    O     O_R   0.784910 0.709860 0.171870 -0.534570
O3    O     O_R   0.715090 0.209860 0.828130 -0.538083
O4    O     O_R   0.284910 0.209860 0.171870 -0.534253
O5    O     O_R   0.445660 0.919250 0.676780 -0.504560
O6    O     O_R   0.554340 0.919250 0.323220 -0.498787
O7    O     O_R   0.945660 0.419250 0.676780 -0.504531
O8    O     O_R   0.054340 0.419250 0.323220 -0.498821
O9    O     O_R   0.456260 0.718170 0.670000 -0.524855
O10   O     O_R   0.543740 0.718170 0.330000 -0.527641
O11   O     O_R   0.956260 0.218170 0.670000 -0.524886
O12   O     O_R   0.043740 0.218170 0.330000 -0.527630
O13   O     O_R   0.320940 0.626760 0.674370 -0.520155
O14   O     O_R   0.679060 0.626760 0.325630 -0.532127
O15   O     O_R   0.820940 0.126760 0.674370 -0.520140
O16   O     O_R   0.179060 0.126760 0.325630 -0.532145
O17   O     O_3   0.334530 0.834540 0.749640 -0.247933
O18   O     O_3   0.665470 0.834540 0.250360 -0.246584
O19   O     O_3   0.834530 0.334540 0.749640 -0.247890
O20   O     O_3   0.165470 0.334540 0.250360 -0.246624
O21   O     O_R   0.236990 0.958390 0.823710 -0.517181
O22   O     O_R   0.763010 0.958390 0.176290 -0.515236
O23   O     O_R   0.736990 0.458390 0.823710 -0.517155
O24   O     O_R   0.263010 0.458390 0.176290 -0.515339
O25   O     O_R   0.332380 0.074750 0.830850 -0.507952
O26   O     O_R   0.667620 0.074750 0.169150 -0.508563
O27   O     O_R   0.832380 0.574750 0.830850 -0.508023
O28   O     O_R   0.167620 0.574750 0.169150 -0.508467
O29   O     O_R   0.445800 0.917770 0.825070 -0.508442
O30   O     O_R   0.554200 0.917770 0.174930 -0.507616
O31   O     O_R   0.945800 0.417770 0.825070 -0.508707
O32   O     O_R   0.054200 0.417770 0.174930 -0.507308
O33   O     O_R   0.456410 0.716580 0.829970 -0.481491
O34   O     O_R   0.543590 0.716580 0.170030 -0.478550
O35   O     O_R   0.956410 0.216580 0.829970 -0.481269
O36   O     O_R   0.043590 0.216580 0.170030 -0.478858
O37   O     O_R   0.321080 0.625290 0.822650 -0.487739
O38   O     O_R   0.678920 0.625290 0.177350 -0.486175
O39   O     O_R   0.821080 0.125290 0.822650 -0.487618
O40   O     O_R   0.178920 0.125290 0.177350 -0.486308
O41   O     O_R   0.214930 0.711450 0.668160 -0.446575
O42   O     O_R   0.785070 0.711450 0.331840 -0.461888
O43   O     O_R   0.714930 0.211450 0.668160 -0.446548
O44   O     O_R   0.285070 0.211450 0.331840 -0.461946
O45   O     O_R   0.236850 0.959870 0.675420 -0.497116
O46   O     O_R   0.763150 0.959870 0.324580 -0.511053
O47   O     O_R   0.736850 0.459870 0.675420 -0.497072
O48   O     O_R   0.263150 0.459870 0.324580 -0.511078
O49   O     O_R   0.332230 0.076350 0.670880 -0.517055
O50   O     O_R   0.667770 0.076350 0.329120 -0.522091
O51   O     O_R   0.832230 0.576350 0.670880 -0.517054
O52   O     O_R   0.167770 0.576350 0.329120 -0.522102
O53   O     O_3   0.481185 0.599496 0.933365 -0.551157
C85   C     C_3   0.540541 0.543884 0.902576 0.040559
H33   H     H_    0.568414 0.491826 0.944463 0.152218
H34   H     H_    0.577292 0.610944 0.877615 0.126654
C86   C     C_3   0.515027 0.455245 0.845338 -0.281654
H35   H     H_    0.476188 0.391232 0.868902 0.154914
H36   H     H_    0.488062 0.505487 0.802156 0.195109
C87   C     C_3   0.575090 0.383731 0.812395 -0.451103
H37   H     H_    0.609385 0.446075 0.781280 0.176516
H38   H     H_    0.553900 0.313475 0.775972 0.137786
H39   H     H_    0.605906 0.337788 0.854453 0.165533
O54   O     O_3   0.519651 0.599884 0.067110 -0.550245
C88   C     C_3   0.460319 0.542330 0.097191 0.040851
H40   H     H_    0.433255 0.490113 0.054980 0.153135
H41   H     H_    0.422890 0.608134 0.121734 0.127138
C89   C     C_3   0.485852 0.453659 0.154751 -0.280319
H42   H     H_    0.526623 0.392922 0.132092 0.155803
H43   H     H_    0.510454 0.504526 0.198980 0.192772
C90   C     C_3   0.426422 0.376959 0.185421 -0.455420
H44   H     H_    0.389924 0.435903 0.215741 0.178788
H45   H     H_    0.448022 0.307329 0.222247 0.134928
H46   H     H_    0.397952 0.329860 0.142212 0.163322
O55   O     O_3   0.981135 0.099580 0.933370 -0.551006
C91   C     C_3   0.040496 0.043735 0.902735 0.040545
H47   H     H_    0.068156 0.991494 0.944694 0.152525
H48   H     H_    0.077424 0.110641 0.877909 0.126502
C92   C     C_3   0.014995 0.955302 0.845378 -0.281377
H49   H     H_    0.975569 0.892084 0.868659 0.155284
H50   H     H_    0.988720 0.005855 0.801876 0.194538
C93   C     C_3   0.074906 0.882534 0.813097 -0.451541
H51   H     H_    0.109660 0.944030 0.781947 0.177420
H52   H     H_    0.053588 0.812177 0.776810 0.137699
H53   H     H_    0.105262 0.836581 0.855505 0.164604
O56   O     O_3   0.019591 0.099772 0.067119 -0.550320
C94   C     C_3   0.960270 0.042527 0.097423 0.040940
H54   H     H_    0.932940 0.990488 0.055317 0.152726
H55   H     H_    0.923056 0.108534 0.122121 0.127299
C95   C     C_3   0.985838 0.953668 0.154865 -0.280593
H56   H     H_    0.025961 0.891995 0.131881 0.155308
H57   H     H_    0.011250 0.004237 0.198735 0.193463
C96   C     C_3   0.926206 0.878393 0.186314 -0.454846
H58   H     H_    0.890281 0.938319 0.216700 0.177672
H59   H     H_    0.947686 0.808744 0.223203 0.134912
H60   H     H_    0.897127 0.831420 0.143488 0.164444
O57   O     O_3   0.132245 0.653233 0.570568 -0.535914
C97   C     C_3   0.090168 0.706032 0.516793 0.021867
H61   H     H_    0.042704 0.743178 0.543098 0.130733
H62   H     H_    0.070348 0.636459 0.479145 0.117773
C98   C     C_3   0.127755 0.812791 0.479017 -0.258009
H63   H     H_    0.124388 0.895485 0.512794 0.147415
H64   H     H_    0.184188 0.792450 0.471380 0.177415
C99   C     C_3   0.096071 0.840013 0.406109 -0.479299
H65   H     H_    0.091542 0.755630 0.374232 0.179401
H66   H     H_    0.129997 0.904712 0.376397 0.161752
H67   H     H_    0.043588 0.881675 0.411469 0.132649
O58   O     O_3   0.872993 0.619684 0.418936 -0.546453
C100  C     C_3   0.911449 0.704514 0.459904 0.009724
H68   H     H_    0.963376 0.714241 0.434075 0.134128
H69   H     H_    0.922001 0.671815 0.514786 0.119837
C101  C     C_3   0.876854 0.830910 0.460069 -0.247702
H70   H     H_    0.879523 0.870226 0.405597 0.185848
H71   H     H_    0.820801 0.823314 0.475738 0.171391
C102  C     C_3   0.913292 0.917207 0.511736 -0.490066
H72   H     H_    0.903279 0.887564 0.567384 0.157234
H73   H     H_    0.893023 0.011126 0.504380 0.153547
H74   H     H_    0.970564 0.919599 0.502496 0.137725
O59   O     O_3   0.632243 0.153210 0.570574 -0.535933
C103  C     C_3   0.590164 0.206012 0.516802 0.021863
H75   H     H_    0.542698 0.243145 0.543108 0.130720
H76   H     H_    0.570350 0.136443 0.479149 0.117779
C104  C     C_3   0.627747 0.312783 0.479032 -0.258010
H77   H     H_    0.624386 0.395466 0.512820 0.147428
H78   H     H_    0.684179 0.292442 0.471384 0.177411
C105  C     C_3   0.596051 0.340030 0.406134 -0.479313
H79   H     H_    0.591529 0.255660 0.374243 0.179385
H80   H     H_    0.629966 0.404755 0.376428 0.161753
H81   H     H_    0.543564 0.381672 0.411508 0.132667
O60   O     O_3   0.372992 0.119668 0.418937 -0.546434
C106  C     C_3   0.411448 0.204497 0.459906 0.009728
H82   H     H_    0.463382 0.214197 0.434088 0.134122
H83   H     H_    0.421984 0.171816 0.514794 0.119844
C107  C     C_3   0.376868 0.330905 0.460047 -0.247675
H84   H     H_    0.379584 0.370225 0.405578 0.185794
H85   H     H_    0.320802 0.323330 0.475669 0.171434
C108  C     C_3   0.413274 0.417185 0.511746 -0.490061
H86   H     H_    0.403197 0.387560 0.567386 0.157235
H87   H     H_    0.393035 0.511117 0.504363 0.153550
H88   H     H_    0.470556 0.419530 0.502567 0.137716
H89   H     H_    0.311407 0.425399 0.055886 0.143822
H90   H     H_    0.689543 0.423542 0.945180 0.142562
H91   H     H_    0.811281 0.925213 0.055848 0.143648
H92   H     H_    0.189454 0.923673 0.945153 0.142706
H93   H     H_    0.350223 0.517609 0.936413 0.191960
H94   H     H_    0.650198 0.515822 0.064102 0.190903
H95   H     H_    0.850177 0.017456 0.936397 0.191855
H96   H     H_    0.150159 0.015951 0.064086 0.191037
H97   H     H_    0.480077 0.901461 0.447603 0.108383
H98   H     H_    0.516498 0.930367 0.561360 0.111244
H99   H     H_    0.980077 0.401461 0.447602 0.108375
H100  H     H_    0.016497 0.430367 0.561359 0.111238

loop_
_geom_bond_atom_site_label_1
_geom_bond_atom_site_label_2
_ccdc_geom_bond_type
Cr12  O12   S    
C16   C28   D    
O55   C91   S    
C38   C70   S    
Cr10  O18   S    
C14   H26   S    
C37   C69   S    
Cr8   O20   S    
Cr4   O24   S    
C67   O7    A    
C35   C36   S    
C50   C54   S    
C81   O53   S    
C106  C107  S    
C13   C25   D    
Cr10  O38   S    
C107  C108  S    
Cr7   O19   S    
C81   C82   A    
C44   H8    S    
C21   H89   S    
C104  H77   S    
C47   O31   A    
C77   C78   A    
Cr9   O13   S    
Cr5   O17   S    
C88   H40   S    
C48   O32   A    
C23   H91   S    
C3    O23   A    
C60   O40   A    
Cr3   O19   S    
C2    O22   A    
C24   H92   S    
C87   H39   S    
Cr4   O44   S    
C72   O44   A    
C7    C79   A    
Cr1   O17   S    
C47   C76   S    
C5    C11   A    
C98   C99   S    
C30   H97   S    
C8    H16   S    
Cr9   O9    S    
C6    C12   A    
C64   O52   A    
C49   C53   S    
C75   C84   A    
C104  H78   S    
C13   C57   S    
C37   H9    S    
C69   O13   A    
C102  H72   S    
C62   O46   A    
Cr2   O18   S    
C63   O51   A    
O58   C100  S    
C3    C18   S    
C87   H38   S    
C35   H31   S    
C16   C60   S    
Cr3   O3    S    
C45   O33   A    
C85   H33   S    
C99   H65   S    
C105  H80   S    
Cr8   O52   S    
C53   O57   S    
C66   O6    A    
Cr5   O25   S    
C41   C49   D    
C1    O21   A    
C39   C55   D    
Cr1   O1    S    
C20   C24   D    
C84   O56   S    
C40   C56   D    
Cr7   O51   S    
C92   C93   S    
Cr1   O45   S    
Cr12  O40   S    
C45   O29   A    
Cr9   O17   S    
C59   O3    A    
Cr5   O49   S    
Cr6   O26   S    
C18   C22   D    
C11   H19   S    
C108  H86   S    
Cr10  O34   S    
C107  H84   S    
Cr7   O31   S    
Cr1   O21   S    
C10   H18   S    
C103  C104  S    
C17   H21   S    
C40   H12   S    
C65   O9    A    
C22   H90   S    
C2    C19   S    
Cr9   O37   S    
C90   H44   S    
C2    O26   A    
C96   H59   S    
C55   O59   S    
C100  H68   S    
C6    H14   S    
C48   C75   S    
C60   O4    A    
Cr8   O8    S    
C36   H32   S    
C89   C90   S    
C4    O24   A    
C42   H6    S    
C76   C83   A    
C101  H71   S    
C103  H76   S    
O57   C97   S    
C43   H7    S    
C51   H3    S    
C14   C58   S    
C50   H2    S    
Cr5   O5    S    
C39   H11   S    
C86   H36   S    
C92   H49   S    
Cr10  O14   S    
C32   C35   D    
C76   C80   A    
C68   O8    A    
Cr11  O19   S    
C83   O55   S    
C94   C95   S    
C26   H94   S    
O56   C94   S    
Cr2   O2    S    
C104  C105  S    
C107  H85   S    
C105  H81   S    
C102  H73   S    
C29   H98   S    
O53   C85   S    
C25   H93   S    
C29   C34   D    
C52   H4    S    
C101  C102  S    
Cr1   O41   S    
Cr12  O36   S    
Cr12  O20   S    
C45   C74   S    
Cr2   O46   S    
C85   C86   S    
C88   H41   S    
Cr6   O30   S    
C19   C23   D    
C94   H54   S    
Cr7   O27   S    
C98   H63   S    
Cr11  O35   S    
C90   H46   S    
C96   H58   S    
C13   H25   S    
C15   C27   D    
C83   C84   A    
C38   C54   D    
C91   C92   S    
Cr9   O33   S    
C61   O49   A    
C34   H30   S    
C102  H74   S    
Cr3   O43   S    
C38   H10   S    
C17   C21   D    
C33   H29   S    
C33   C34   S    
Cr4   O20   S    
C61   O45   A    
Cr5   O29   S    
Cr8   O28   S    
C69   O41   A    
C14   C26   D    
C1    O25   A    
C31   H100  S    
C108  H87   S    
C90   H45   S    
C30   C66   S    
C32   H99   S    
C15   H27   S    
C42   C50   D    
C29   C65   S    
C4    C17   S    
C93   H52   S    
C89   H43   S    
C4    O28   A    
C91   H48   S    
C93   H51   S    
C23   C27   S    
C100  H69   S    
C74   C78   A    
Cr10  O10   S    
C71   O43   A    
Cr11  O11   S    
C68   O12   A    
C64   O48   A    
C3    O27   A    
Cr4   O4    S    
C74   C81   A    
C5    C77   A    
C106  H82   S    
C97   C98   S    
C73   C82   A    
C20   H24   S    
C67   O11   A    
C103  H75   S    
C98   H64   S    
C95   C96   S    
C27   H95   S    
C9    C10   A    
C57   O1    A    
C41   H5    S    
C72   O16   A    
C21   C25   S    
C1    C20   S    
C39   C71   S    
C40   C72   S    
C30   C33   D    
C82   O54   S    
C99   H66   S    
Cr2   O42   S    
C15   C59   S    
C95   H56   S    
C56   O60   S    
Cr11  O15   S    
C24   C28   S    
C49   H1    S    
C92   H50   S    
C89   H42   S    
C86   C87   S    
Cr11  O39   S    
C44   C52   D    
C62   O50   A    
C70   O14   A    
O59   C103  S    
C63   O47   A    
C54   O58   S    
C48   O36   A    
C44   C61   S    
C96   H60   S    
C93   H53   S    
Cr3   O47   S    
C22   C26   S    
C97   H62   S    
Cr4   O48   S    
C32   C68   S    
C95   H57   S    
Cr8   O32   S    
C9    H17   S    
O54   C88   S    
C105  H79   S    
Cr2   O22   S    
O60   C106  S    
C70   O42   A    
C37   C53   D    
Cr6   O18   S    
C106  H83   S    
C88   C89   S    
C18   H22   S    
C43   C51   D    
C86   H35   S    
C71   O15   A    
C5    H13   S    
C58   O2    A    
C47   O35   A    
Cr6   O6    S    
C59   O39   A    
C101  H70   S    
C7    H15   S    
C51   C55   S    
C99   H67   S    
C16   H28   S    
C58   O38   A    
C108  H88   S    
C85   H34   S    
C19   H23   S    
C94   H55   S    
C6    C78   A    
C31   C67   S    
C66   O10   A    
C79   C80   A    
C7    C9    A    
Cr7   O7    S    
C91   H47   S    
C43   C62   S    
C8    C10   A    
C97   H61   S    
C46   O34   A    
C100  C101  S    
C8    C80   A    
C73   C77   A    
C31   C36   D    
C87   H37   S    
C57   O37   A    
Cr3   O23   S    
C41   C64   S    
Cr12  O16   S    
C75   C79   A    
C42   C63   S    
C46   C73   S    
C65   O5    A    
C52   C56   S    
C11   C12   A    
Cr6   O50   S    
C12   H20   S    
C28   H96   S    
C46   O30   A    
