data_mof_unit_48320.cif
_audit_creation_date              2013-03-05T15:41:14-0500
_audit_creation_method            fapswitch 2.2
_symmetry_space_group_name_H-M    P1
_symmetry_Int_Tables_number       1
_space_group_crystal_system       triclinic
_cell_length_a                    16.82704
_cell_length_b                    16.808253
_cell_length_c                    16.84196
_cell_angle_alpha                 68.100616
_cell_angle_beta                  68.129323
_cell_angle_gamma                 68.14408
_cell_volume                      3948.16397038

loop_
_atom_site_label
_atom_site_type_symbol
_atom_site_description
_atom_site_fract_x
_atom_site_fract_y
_atom_site_fract_z
_atom_type_partial_charge
O1    O     O_R   0.124540 0.978640 0.385460 -0.523291
O2    O     O_R   0.875460 0.021360 0.614540 -0.508846
O3    O     O_R   0.978640 0.385460 0.124540 -0.522217
O4    O     O_R   0.021360 0.614540 0.875460 -0.512477
O5    O     O_R   0.385460 0.124540 0.978640 -0.523340
O6    O     O_R   0.614540 0.875460 0.021360 -0.516897
O7    O     O_R   0.614540 0.021360 0.875460 -0.502608
O8    O     O_R   0.385460 0.978640 0.124540 -0.504743
O9    O     O_R   0.875460 0.614540 0.021360 -0.500894
O10   O     O_R   0.124540 0.385460 0.978640 -0.513891
O11   O     O_R   0.021360 0.875460 0.614540 -0.499202
O12   O     O_R   0.978640 0.124540 0.385460 -0.513857
C1    C     C_R   0.306156 0.015365 0.430057 0.001332
C2    C     C_R   0.677274 0.050294 0.546195 0.002174
C3    C     C_R   0.014179 0.430457 0.306486 0.001831
C4    C     C_R   0.049244 0.546131 0.677647 0.002524
C5    C     C_R   0.428767 0.309685 0.009920 -0.000265
C6    C     C_R   0.570721 0.689860 0.991412 0.001767
C7    C     C_R   0.544608 0.058244 0.674239 0.000923
C8    C     C_R   0.446567 0.975336 0.318103 -0.004493
C9    C     C_R   0.677224 0.549879 0.043277 -0.001188
C10   C     C_R   0.322373 0.449737 0.958042 -0.005148
C11   C     C_R   0.058274 0.674097 0.544809 0.001628
C12   C     C_R   0.973344 0.318683 0.446878 -0.004529
Cu1   Cu    Cu3+1 0.995180 0.995180 0.424630 1.057859
Cu2   Cu    Cu3+1 0.004820 0.004820 0.575370 1.069459
Cu3   Cu    Cu3+1 0.995180 0.424630 0.995180 1.061441
Cu4   Cu    Cu3+1 0.004820 0.575370 0.004820 1.076072
Cu5   Cu    Cu3+1 0.424630 0.995180 0.995180 1.065644
Cu6   Cu    Cu3+1 0.575370 0.004820 0.004820 1.070798
C13   C     C_R   0.029871 0.828098 0.563976 0.828799
C14   C     C_R   0.972992 0.171596 0.435159 0.806547
C15   C     C_R   0.828366 0.564134 0.029158 0.832009
C16   C     C_R   0.171620 0.435785 0.971018 0.800293
C17   C     C_R   0.564050 0.029643 0.828122 0.811370
C18   C     C_R   0.435008 0.973428 0.171559 0.821296
C19   C     C_R   0.430825 0.169030 0.984167 0.816187
C20   C     C_R   0.569138 0.830917 0.015970 0.829663
C21   C     C_R   0.983807 0.431178 0.169051 0.824938
C22   C     C_R   0.028128 0.564649 0.828476 0.820473
C23   C     C_R   0.168974 0.984008 0.431175 0.819836
C24   C     C_R   0.828503 0.028057 0.564658 0.826734
O13   O     O_R   0.013780 0.867370 0.487190 -0.607832
O14   O     O_R   0.986220 0.132630 0.512810 -0.628285
O15   O     O_R   0.867370 0.487190 0.013780 -0.605796
O16   O     O_R   0.132630 0.512810 0.986220 -0.621919
O17   O     O_R   0.487190 0.013780 0.867370 -0.623060
O18   O     O_R   0.512810 0.986220 0.132630 -0.626796
O19   O     O_R   0.512810 0.132630 0.986220 -0.600196
O20   O     O_R   0.487190 0.867370 0.013780 -0.597492
O21   O     O_R   0.986220 0.512810 0.132630 -0.601897
O22   O     O_R   0.013780 0.487190 0.867370 -0.614109
O23   O     O_R   0.132630 0.986220 0.512810 -0.605093
O24   O     O_R   0.867370 0.013780 0.487190 -0.613007
C25   C     C_R   0.399196 0.002313 0.397354 0.068922
C26   C     C_R   0.586832 0.050890 0.586134 0.070605
C27   C     C_R   0.000597 0.397908 0.399560 0.069150
C28   C     C_R   0.050145 0.586104 0.587179 0.070698
C29   C     C_R   0.400247 0.403732 0.987431 0.069992
C30   C     C_R   0.599104 0.595792 0.014291 0.072315
C31   C     C_R   0.262842 0.987381 0.390344 -0.215890
C32   C     C_R   0.729551 0.045666 0.598641 -0.212296
C33   C     C_R   0.986588 0.390513 0.263030 -0.216911
C34   C     C_R   0.045726 0.598476 0.729587 -0.211591
C35   C     C_R   0.389261 0.263603 0.985403 -0.219966
C36   C     C_R   0.610584 0.736204 0.015104 -0.216410
C37   C     C_R   0.597872 0.048413 0.728580 -0.211356
C38   C     C_R   0.398806 0.965943 0.269073 -0.199836
C39   C     C_R   0.730305 0.600024 0.041363 -0.206558
C40   C     C_R   0.269604 0.399797 0.959142 -0.199998
C41   C     C_R   0.048965 0.728405 0.597814 -0.215111
C42   C     C_R   0.964623 0.269356 0.399070 -0.196856
C43   C     C_R   0.450196 0.078228 0.702908 -0.194349
C44   C     C_R   0.540138 0.960159 0.289973 -0.194346
C45   C     C_R   0.078489 0.702773 0.450478 -0.183197
C46   C     C_R   0.957372 0.290697 0.540450 -0.195126
C47   C     C_R   0.698374 0.455937 0.074992 -0.182735
C48   C     C_R   0.301140 0.543641 0.926595 -0.192326
C49   C     C_R   0.260536 0.055139 0.501943 -0.197757
C50   C     C_R   0.711705 0.054329 0.454323 -0.183472
C51   C     C_R   0.496472 0.265677 0.054698 -0.196804
C52   C     C_R   0.502851 0.733728 0.946917 -0.194366
C53   C     C_R   0.054084 0.502393 0.260990 -0.194610
C54   C     C_R   0.052063 0.454320 0.712325 -0.184605
C55   C     C_R   0.310504 0.961526 0.310681 0.265316
C56   C     C_R   0.688339 0.048080 0.688250 0.257069
C57   C     C_R   0.960495 0.310826 0.310733 0.270293
C58   C     C_R   0.049283 0.687913 0.688048 0.259474
C59   C     C_R   0.309125 0.309788 0.960171 0.272105
C60   C     C_R   0.690968 0.690207 0.039806 0.268146
H1    H     H_    0.271588 0.115318 0.741502 0.164002
H2    H     H_    0.709633 0.967230 0.228936 0.157694
H3    H     H_    0.115381 0.741697 0.272084 0.166819
H4    H     H_    0.962987 0.229810 0.710244 0.157479
H5    H     H_    0.722586 0.278657 0.134590 0.165872
H6    H     H_    0.276219 0.720827 0.868053 0.170731
H7    H     H_    0.188922 0.107740 0.652552 0.146975
H8    H     H_    0.783077 0.014870 0.297750 0.154273
H9    H     H_    0.633757 0.195945 0.127154 0.147888
H10   H     H_    0.364959 0.803509 0.875593 0.148976
H11   H     H_    0.107016 0.653072 0.189500 0.149586
H12   H     H_    0.010808 0.298277 0.783883 0.153654
C61   C     C_R   0.669647 0.031821 0.412101 0.086356
C62   C     C_R   0.306419 0.063861 0.551308 0.094104
C63   C     C_R   0.029084 0.412445 0.670289 0.086625
C64   C     C_R   0.062836 0.551729 0.306909 0.093362
C65   C     C_R   0.454077 0.686537 0.939286 0.097916
C66   C     C_R   0.544922 0.312874 0.062982 0.098722
C67   C     C_R   0.583433 0.984643 0.329681 0.085790
C68   C     C_R   0.401380 0.076192 0.651928 0.087823
C69   C     C_R   0.352428 0.591280 0.929711 0.089291
C70   C     C_R   0.646680 0.408222 0.072533 0.092150
C71   C     C_R   0.981623 0.330396 0.583934 0.087751
C72   C     C_R   0.075910 0.652007 0.401772 0.088614
C73   C     C_R   0.714620 0.012546 0.329824 -0.185450
C74   C     C_R   0.260878 0.091782 0.629405 -0.185213
C75   C     C_R   0.008948 0.330373 0.715339 -0.183799
C76   C     C_R   0.091080 0.629812 0.261402 -0.182410
C77   C     C_R   0.382585 0.731576 0.900985 -0.186188
C78   C     C_R   0.616225 0.267877 0.101606 -0.186551
C79   C     C_R   0.672922 0.985159 0.290809 -0.193208
C80   C     C_R   0.308068 0.096243 0.680193 -0.179662
C81   C     C_R   0.331823 0.684400 0.896789 -0.178766
C82   C     C_R   0.667043 0.315089 0.105764 -0.175032
C83   C     C_R   0.981457 0.291560 0.673536 -0.192261
C84   C     C_R   0.095975 0.680413 0.308539 -0.170234
H13   H     H_    0.412826 0.099557 0.762568 0.190954
H14   H     H_    0.581828 0.926823 0.238966 0.193296
H15   H     H_    0.100397 0.762273 0.413138 0.188973
H16   H     H_    0.923874 0.239591 0.581820 0.191256
H17   H     H_    0.752334 0.419326 0.105849 0.183357
H18   H     H_    0.247548 0.580324 0.895244 0.184446
H19   H     H_    0.189361 0.082118 0.520104 0.172034
H20   H     H_    0.769729 0.076608 0.412273 0.196226
H21   H     H_    0.511291 0.194812 0.085653 0.165898
H22   H     H_    0.488262 0.804482 0.915461 0.166280
H23   H     H_    0.081255 0.520554 0.189891 0.171759
H24   H     H_    0.073987 0.411863 0.770383 0.196229
C85   C     C_R   0.536555 0.010241 0.408631 0.031433
C86   C     C_R   0.446456 0.053802 0.571037 0.029011
C87   C     C_R   0.007885 0.409192 0.537060 0.031366
C88   C     C_R   0.052874 0.571255 0.446884 0.029105
C89   C     C_R   0.425644 0.545378 0.965920 0.027855
C90   C     C_R   0.573358 0.454083 0.036470 0.027570
C91   C     C_R   0.581611 0.028033 0.452953 0.030659
C92   C     C_R   0.399315 0.044458 0.522285 0.029341
C93   C     C_R   0.476100 0.593189 0.971453 0.029929
C94   C     C_R   0.522876 0.406248 0.030942 0.029975
C95   C     C_R   0.025887 0.453334 0.582146 0.030801
C96   C     C_R   0.043207 0.522676 0.399770 0.030661
C97   C     C_R   0.445065 0.018151 0.443179 -0.028108
C98   C     C_R   0.538133 0.044476 0.536819 -0.028613
C99   C     C_R   0.016354 0.443706 0.445505 -0.027080
C100  C     C_R   0.043210 0.536994 0.538577 -0.027934
C101  C     C_R   0.449330 0.451793 0.995127 -0.026754
C102  C     C_R   0.549751 0.547667 0.007110 -0.026471
N1    N     N_R   0.270771 0.926799 0.273205 0.142345
O25   O     O_R   0.297215 0.842200 0.278474 -0.364984
O26   O     O_R   0.218955 0.980848 0.222647 -0.303391
N2    N     N_R   0.738847 0.051449 0.738784 0.150462
O27   O     O_R   0.739415 0.128048 0.740308 -0.355969
O28   O     O_R   0.783837 0.978105 0.783524 -0.287831
N3    N     N_R   0.925864 0.273180 0.271055 0.140660
O29   O     O_R   0.979933 0.222754 0.219129 -0.306180
O30   O     O_R   0.841616 0.277167 0.298482 -0.382422
N4    N     N_R   0.055108 0.737853 0.737749 0.148959
O31   O     O_R   0.983118 0.783307 0.783423 -0.285220
O32   O     O_R   0.132638 0.738134 0.736862 -0.368665
N5    N     N_R   0.268753 0.266751 0.932166 0.144831
O33   O     O_R   0.269117 0.290496 0.849178 -0.382616
O34   O     O_R   0.219700 0.215225 0.991094 -0.305599
N6    N     N_R   0.731935 0.733784 0.066469 0.146017
O35   O     O_R   0.780958 0.784967 0.006723 -0.286192
O36   O     O_R   0.730374 0.712397 0.149594 -0.357173

loop_
_geom_bond_atom_site_label_1
_geom_bond_atom_site_label_2
_geom_bond_distance
_ccdc_geom_bond_type
C7    C26   1.416995 A    
H5    C82   1.083674 S    
C11   C28   1.416334 A    
C2    C26   1.414088 A    
C1    C49   1.425236 A    
N1    O25   1.300772 A    
C73   C79   1.394823 A    
O5    C19   1.296337 A    
C15   O15   1.289068 A    
N5    O33   1.300835 A    
C66   C78   1.404852 A    
C57   N3    1.437580 S    
N3    O29   1.302663 A    
C23   C31   1.483016 S    
C88   C96   1.414634 A    
C90   C94   1.414206 A    
C87   C99   1.401801 A    
C77   C81   1.398014 A    
Cu1   O13   1.969709 S    
C44   C67   1.392415 A    
C87   C95   1.406355 A    
C43   C68   1.407625 A    
C36   C60   1.414606 A    
N6    O35   1.302816 A    
C35   C59   1.415275 A    
C32   C56   1.416056 A    
Cu4   O16   1.972105 S    
C13   O13   1.293249 A    
Cu5   O17   1.973392 S    
C64   C76   1.406570 A    
C64   C96   1.399667 A    
H11   C76   1.083593 S    
C72   C88   1.404575 A    
Cu6   O18   1.973391 S    
N3    O30   1.300795 A    
C70   C82   1.403956 A    
C47   H17   1.081751 S    
C72   C84   1.404770 A    
Cu4   O21   1.972781 S    
C71   C83   1.402434 A    
C66   C94   1.405669 A    
C2    C32   1.427159 A    
C4    C54   1.420772 A    
C65   C93   1.405428 A    
O8    C18   1.309827 A    
C85   C97   1.401526 A    
C48   H18   1.081710 S    
H3    C84   1.083495 S    
C28   C100  1.418425 A    
H9    C78   1.083930 S    
C62   C74   1.406864 A    
C46   H16   1.078197 S    
C44   H14   1.077717 S    
O4    C22   1.303490 A    
C12   C27   1.417526 A    
C96   C99   1.408516 A    
C19   C35   1.484087 S    
C3    C27   1.412510 A    
O6    C20   1.296416 A    
C7    C37   1.433967 A    
C48   C69   1.402971 A    
C16   O16   1.289125 A    
C94   C101  1.409875 A    
C2    C50   1.420398 A    
C26   C98   1.418655 A    
C24   C32   1.495675 S    
O10   Cu3   1.966545 S    
C15   C39   1.492511 S    
Cu3   O15   1.972106 S    
C13   C41   1.503011 S    
C51   C66   1.400822 A    
O11   C13   1.307453 A    
N1    O26   1.302666 A    
O7    Cu6   1.968023 S    
O12   C14   1.309144 A    
N4    O32   1.300860 A    
C38   C55   1.404261 A    
N5    O34   1.302745 A    
C1    C31   1.432796 A    
C63   C75   1.403274 A    
C55   N1    1.437311 S    
C8    C25   1.418521 A    
C65   C77   1.404362 A    
O4    Cu4   1.967800 S    
N6    O36   1.301585 A    
C51   H21   1.079450 S    
O5    Cu5   1.964082 S    
Cu5   O20   1.970090 S    
C12   C42   1.426139 A    
C14   O14   1.287714 A    
C49   H19   1.076920 S    
C50   C61   1.387294 A    
Cu2   O14   1.969708 S    
C62   C92   1.399594 A    
C7    C43   1.421981 A    
Cu1   O24   1.972337 S    
C10   C48   1.413116 A    
C9    C30   1.415496 A    
O2    Cu2   1.966494 S    
C86   C92   1.415008 A    
C10   C29   1.415394 A    
C45   C72   1.406809 A    
C29   C101  1.416396 A    
C16   C40   1.492113 S    
C12   C46   1.415151 A    
C3    C53   1.424782 A    
O11   Cu2   1.963809 S    
Cu1   Cu2   2.670409 S    
C43   H13   1.078734 S    
C27   C99   1.418036 A    
H1    C80   1.083506 S    
C41   C58   1.415830 A    
C9    C39   1.424085 A    
N2    O28   1.303024 A    
C90   C102  1.406226 A    
C47   C70   1.404498 A    
C61   C73   1.403182 A    
C95   C100  1.406009 A    
C30   C102  1.416548 A    
Cu5   Cu6   2.668134 S    
C11   C41   1.432465 A    
C19   O19   1.292294 A    
C50   H20   1.074378 S    
C89   C101  1.406133 A    
C17   C37   1.504104 S    
C18   C38   1.497234 S    
C46   C71   1.392144 A    
C21   O21   1.286710 A    
C8    C44   1.415629 A    
O10   C16   1.304504 A    
H10   C77   1.083740 S    
C4    C28   1.414199 A    
C52   C65   1.399493 A    
C88   C100  1.400757 A    
H7    C74   1.083750 S    
C93   C102  1.409854 A    
C23   O23   1.288596 A    
H12   C75   1.083723 S    
C74   C80   1.402156 A    
O9    C15   1.304748 A    
C6    C30   1.413123 A    
O6    Cu6   1.964082 S    
Cu6   O19   1.970090 S    
C5    C29   1.412993 A    
C89   C93   1.413563 A    
C58   N4    1.435759 S    
N4    O31   1.303060 A    
C49   C62   1.400817 A    
C40   C59   1.404038 A    
C54   C63   1.387249 A    
O8    Cu5   1.968021 S    
C60   N6    1.437093 S    
C39   C60   1.404550 A    
Cu2   O23   1.972337 S    
C53   H23   1.076778 S    
C42   C57   1.404101 A    
C21   C33   1.482883 S    
Cu3   O22   1.972782 S    
C61   C91   1.396480 A    
H4    C83   1.083701 S    
O1    C23   1.300357 A    
C69   C81   1.403290 A    
C86   C98   1.400534 A    
C85   C91   1.406553 A    
C37   C56   1.415945 A    
C34   C58   1.415675 A    
H6    C81   1.083672 S    
C33   C57   1.415831 A    
O7    C17   1.307909 A    
C8    C38   1.427893 A    
C11   C45   1.421366 A    
O1    Cu1   1.966494 S    
C25   C97   1.418549 A    
C20   O20   1.292375 A    
C69   C89   1.409283 A    
C6    C36   1.426965 A    
C63   C95   1.396380 A    
C5    C35   1.427851 A    
C22   C34   1.495446 S    
C53   C64   1.400590 A    
O12   Cu1   1.963809 S    
C67   C85   1.402863 A    
N2    O27   1.300906 A    
C70   C90   1.409351 A    
C68   C86   1.404646 A    
C31   C55   1.416309 A    
C59   N5    1.437480 S    
C76   C84   1.401757 A    
C22   O22   1.289369 A    
H2    C79   1.083690 S    
C24   O24   1.291737 A    
C67   C79   1.402583 A    
H8    C73   1.083717 S    
C56   N2    1.435476 S    
O2    C24   1.304061 A    
O3    Cu3   1.967798 S    
C6    C52   1.417041 A    
C71   C87   1.403046 A    
C18   O18   1.286463 A    
C5    C51   1.417893 A    
C52   H22   1.079255 S    
C91   C98   1.406233 A    
C54   H24   1.074093 S    
C92   C97   1.408928 A    
C78   C82   1.398983 A    
C20   C36   1.484605 S    
C9    C47   1.413970 A    
Cu3   Cu4   2.665458 S    
C3    C33   1.433098 A    
C4    C34   1.428132 A    
C1    C25   1.412291 A    
C17   O17   1.291919 A    
C75   C83   1.394731 A    
C10   C40   1.422850 A    
C68   C80   1.405138 A    
O3    C21   1.299264 A    
C45   H15   1.078975 S    
O9    Cu4   1.966545 S    
C14   C42   1.495248 S    
