data_mof_unit_30038.cif
_audit_creation_date              2012-12-10T18:09:47-0500
_audit_creation_method            fapswitch 2.2
_symmetry_space_group_name_H-M    P1
_symmetry_Int_Tables_number       1
_space_group_crystal_system       triclinic
_cell_length_a                    10.627246
_cell_length_b                    12.598828
_cell_length_c                    13.128977
_cell_angle_alpha                 82.340482
_cell_angle_beta                  90.459846
_cell_angle_gamma                 102.408221
_cell_volume                      1701.08525024

loop_
_atom_site_label
_atom_site_type_symbol
_atom_type_description
_atom_site_fract_x
_atom_site_fract_y
_atom_site_fract_z
_atom_type_partial_charge
C1    C     C_R   0.480475 0.438805 0.691153 0.848909
C2    C     C_3   0.121401 0.500420 0.500213 0.183326
C3    C     C_3   0.065737 0.479396 0.393641 -0.404891
C4    C     C_3   0.100400 0.613638 0.523254 -0.383328
C5    C     C_R   0.405186 0.700158 0.064854 -0.205106
C6    C     C_R   0.501074 0.596547 0.200222 -0.051256
C7    C     C_R   0.501605 0.300640 0.837958 -0.199179
C8    C     C_R   0.514235 0.272363 0.942727 -0.151602
C9    C     C_R   0.500442 0.345602 0.010148 -0.196139
C10   C     C_R   0.467263 0.446960 0.973535 0.084051
C11   C     C_R   0.434760 0.466935 0.869668 0.086084
C12   C     C_R   0.741947 0.500599 0.500292 0.828487
C13   C     C_R   0.465316 0.529242 0.036439 0.077698
C14   C     C_R   0.411188 0.620722 0.000598 0.176628
C15   C     C_R   0.362044 0.630414 0.901980 -0.256550
C16   C     C_R   0.373750 0.554555 0.837052 -0.207712
C17   C     C_R   0.518132 0.523850 0.133686 -0.262354
C18   C     C_R   0.447916 0.686977 0.165461 -0.212865
C19   C     C_R   0.466173 0.399472 0.800739 -0.116543
C20   C     C_R   0.322195 0.088311 0.346159 -0.312528
C21   C     C_R   0.651907 0.799376 0.630233 0.020141
C22   C     C_R   0.682970 0.903841 0.658942 -0.253472
C23   C     C_R   0.512807 0.561044 0.308791 0.858456
C24   C     C_R   0.625323 0.985441 0.609763 -0.202013
C25   C     C_R   0.536017 0.962589 0.530945 0.016667
C26   C     C_R   0.508040 0.854735 0.504430 0.240619
C27   C     C_R   0.473559 0.041843 0.477639 -0.015043
C28   C     C_R   0.384783 0.011605 0.399465 0.202804
C29   C     C_R   0.359584 0.905269 0.374900 -0.307901
C30   C     C_R   0.420732 0.828269 0.426518 -0.229431
C31   C     C_R   0.495451 0.150677 0.498243 -0.057766
C32   C     C_R   0.348176 0.194407 0.370311 0.005163
C33   C     C_R   0.258053 0.499780 0.499996 0.809694
C34   C     C_3   0.905575 0.410440 0.584290 -0.403920
C35   C     C_3   0.049961 0.409903 0.584128 -0.398709
C36   C     C_3   0.921477 0.480377 0.393688 -0.398312
C37   C     C_3   0.957643 0.614089 0.523732 -0.395227
C38   C     C_3   0.878819 0.501532 0.500534 0.182176
H1    H     H_    0.849698 0.328573 0.569798 0.176160
H2    H     H_    0.902665 0.545362 0.332960 0.154936
H3    H     H_    0.117297 0.543743 0.332735 0.155257
H4    H     H_    0.433516 0.743796 0.216972 0.148165
H5    H     H_    0.316652 0.697734 0.874323 0.147050
H6    H     H_    0.362870 0.769695 0.038682 0.134015
H7    H     H_    0.568943 0.460593 0.161575 0.146276
H8    H     H_    0.523645 0.246954 0.785868 0.150091
H9    H     H_    0.513063 0.319631 0.090545 0.134495
H10   H     H_    0.540274 0.195519 0.971442 0.141193
H11   H     H_    0.874952 0.424674 0.661329 0.155976
H12   H     H_    0.333120 0.564493 0.761429 0.164715
H13   H     H_    0.301210 0.255203 0.329757 0.133215
H14   H     H_    0.292374 0.881393 0.315224 0.147894
H15   H     H_    0.254340 0.066488 0.286380 0.142631
H16   H     H_    0.561184 0.181524 0.555578 0.121548
H17   H     H_    0.696052 0.735441 0.668306 0.136309
H18   H     H_    0.652513 0.064968 0.635080 0.130913
H19   H     H_    0.751304 0.921506 0.719242 0.147622
H20   H     H_    0.397863 0.748411 0.403627 0.209629
H21   H     H_    0.089914 0.424197 0.661004 0.153131
H22   H     H_    0.063152 0.327863 0.569610 0.182249
H23   H     H_    0.865725 0.400249 0.374741 0.182075
H24   H     H_    0.078990 0.398708 0.375188 0.178451
H25   H     H_    0.939703 0.681207 0.464864 0.180265
H26   H     H_    0.928736 0.631275 0.600231 0.172973
H27   H     H_    0.140403 0.631366 0.599394 0.177245
N1    N     N_R   0.433240 0.222190 0.444680 -0.100938
N2    N     N_R   0.566070 0.776970 0.554790 -0.130551
O1    O     O_R   0.468120 0.366740 0.627160 -0.613290
O2    O     O_R   0.510770 0.544830 0.662520 -0.614133
O3    O     O_R   0.663880 0.410950 0.482330 -0.626168
O4    O     O_R   0.706530 0.589040 0.517700 -0.626228
O5    O     O_R   0.489230 0.455170 0.337480 -0.612997
O6    O     O_R   0.531880 0.633260 0.372840 -0.631604
O7    O     O_R   0.293470 0.410960 0.482300 -0.619780
O8    O     O_R   0.336120 0.589050 0.517670 -0.650735
Zn1   Zn    Zn3+2 0.471520 0.381090 0.476390 0.927687
Zn2   Zn    Zn3+2 0.528480 0.618910 0.523610 0.916668
H28   H     H_    0.150758 0.680430 0.463862 0.178533

loop_
_geom_bond_atom_site_label_1
_geom_bond_atom_site_label_2
_ccdc_geom_bond_type
C2    C35   S    
C31   N1    A    
O2    Zn2   S    
N2    Zn2   S    
O5    Zn1   S    
C22   H19   S    
C7    C8    A    
C11   C19   A    
C29   C30   A    
O7    Zn1   S    
C26   N2    A    
C28   C29   A    
C17   H7    S    
C18   H4    S    
C4    H27   S    
C15   C16   A    
C1    O1    A    
C35   H21   S    
C34   C35   S    
C33   O8    A    
C8    C9    A    
C9    C10   A    
C13   C14   A    
C21   N2    A    
C23   O6    A    
C37   H25   S    
C6    C18   A    
C1    C19   S    
C27   C31   A    
C34   H1    S    
C7    H8    S    
C36   H2    S    
C24   C25   A    
C21   H17   S    
C5    C18   A    
C20   C28   A    
C25   C26   A    
C1    O2    A    
C35   H22   S    
C2    C4    S    
C8    H10   S    
C32   H13   S    
C4    H28   S    
C37   C38   S    
C11   C16   A    
N1    Zn1   S    
O1    Zn1   S    
O8    Zn2   S    
C5    C14   A    
C2    C33   S    
C12   O4    A    
C26   C30   A    
C7    C19   A    
O3    Zn1   S    
C22   C24   A    
C24   H18   S    
C36   H23   S    
O4    Zn2   S    
C37   H26   S    
C32   N1    A    
C20   C32   A    
C3    H24   S    
C6    C17   A    
C12   O3    A    
C3    H3    S    
C34   H11   S    
C34   C38   S    
C23   O5    A    
C5    H6    S    
C16   H12   S    
C20   H15   S    
C10   C13   A    
C9    H9    S    
C25   C27   A    
C13   C17   A    
C36   C38   S    
C2    C3    S    
C15   H5    S    
C3    C36   S    
C6    C23   S    
C30   H20   S    
C31   H16   S    
C12   C38   S    
C10   C11   A    
C33   O7    A    
C4    C37   S    
C27   C28   A    
O6    Zn2   S    
C14   C15   A    
C21   C22   A    
C29   H14   S    
