data_mof_unit_58205.cif
_audit_creation_date              2012-12-10T20:40:53-0500
_audit_creation_method            fapswitch 2.2
_symmetry_space_group_name_H-M    P1
_symmetry_Int_Tables_number       1
_space_group_crystal_system       triclinic
_cell_length_a                    27.692861
_cell_length_b                    10.677424
_cell_length_c                    9.864295
_cell_angle_alpha                 89.995532
_cell_angle_beta                  90.074421
_cell_angle_gamma                 90.043508
_cell_volume                      2916.7544798

loop_
_atom_site_label
_atom_site_type_symbol
_atom_type_description
_atom_site_fract_x
_atom_site_fract_y
_atom_site_fract_z
_atom_type_partial_charge
C1    C     C_R   0.500921 0.260146 0.500109 0.906164
C2    C     C_R   0.276685 0.451040 0.401534 -0.094722
C3    C     C_R   0.253134 0.506785 0.511543 0.312290
C4    C     C_R   0.101769 0.506452 0.532886 -0.055171
C5    C     C_R   0.127492 0.393321 0.542208 -0.068792
C6    C     C_R   0.102662 0.281419 0.564643 -0.122498
C7    C     C_R   0.127123 0.620135 0.518852 -0.010704
C8    C     C_R   0.353601 0.503744 0.502298 -0.029573
C9    C     C_R   0.646791 0.501065 0.500804 -0.035921
C10   C     C_R   0.975068 0.391460 0.518758 0.043108
C11   C     C_R   0.974516 0.620775 0.546051 0.045997
C12   C     C_R   0.406116 0.500540 0.500185 0.881539
C13   C     C_R   0.949544 0.506064 0.529165 0.080768
C14   C     C_R   0.949561 0.283993 0.476369 -0.239391
C15   C     C_R   0.899623 0.284976 0.463977 -0.134453
C16   C     C_R   0.873697 0.394702 0.489211 -0.018837
C17   C     C_R   0.898618 0.506178 0.519831 -0.054820
C18   C     C_R   0.872636 0.617933 0.539833 -0.022610
C19   C     C_R   0.822213 0.615266 0.532743 0.504805
C20   C     C_R   0.823274 0.396545 0.482061 0.503988
C21   C     C_R   0.722737 0.494864 0.379837 -0.097039
C22   C     C_R   0.672539 0.493492 0.378489 -0.215703
C23   C     C_R   0.500983 0.739844 0.500061 0.906925
C24   C     C_R   0.671907 0.510063 0.624191 -0.212324
C25   C     C_R   0.722028 0.511708 0.625128 -0.103218
C26   C     C_R   0.747401 0.504138 0.503123 0.320291
C27   C     C_R   0.025588 0.390028 0.541986 -0.003630
C28   C     C_R   0.050782 0.505964 0.537198 0.050202
C29   C     C_R   0.025424 0.621560 0.536355 0.057971
C30   C     C_R   0.052438 0.278574 0.569531 0.080372
C31   C     C_R   0.101803 0.733081 0.513187 -0.134833
C32   C     C_R   0.947551 0.731033 0.569089 -0.221752
C33   C     C_R   0.897422 0.729221 0.566905 -0.134143
C34   C     C_R   0.594015 0.500107 0.500128 0.868562
C35   C     C_R   0.051844 0.734094 0.522662 -0.214234
C36   C     C_R   0.499378 0.063733 0.622232 0.076404
C37   C     C_R   0.506529 0.128634 0.501627 -0.095610
C38   C     C_R   0.521296 0.064850 0.384573 -0.221998
C39   C     C_R   0.521346 0.935276 0.384575 -0.218755
C40   C     C_R   0.506640 0.871359 0.501640 -0.095419
C41   C     C_R   0.499480 0.936173 0.622280 0.071859
C42   C     C_3   0.460564 0.927648 0.728004 -0.136624
C43   C     C_3   0.460368 0.071715 0.727704 -0.151095
C44   C     C_R   0.457824 0.511469 0.070953 0.225151
C45   C     C_R   0.177939 0.395546 0.534897 0.515403
C46   C     C_R   0.542122 0.498252 0.072008 -0.138721
C47   C     C_R   0.542121 0.498354 0.928267 -0.136814
C48   C     C_R   0.457827 0.510986 0.928388 0.217182
C49   C     C_3   0.416051 0.423149 0.922601 -0.489792
C50   C     C_3   0.415714 0.424634 0.076296 -0.521041
C51   C     C_R   0.177509 0.617931 0.510070 0.503420
C52   C     C_R   0.279772 0.561232 0.616675 -0.102081
C53   C     C_R   0.329847 0.559911 0.612060 -0.226941
C54   C     C_R   0.326862 0.449258 0.397049 -0.230872
H1    H     H_    0.344673 0.402842 0.313578 0.148562
H2    H     H_    0.261581 0.604003 0.702036 0.144407
H3    H     H_    0.120506 0.821563 0.501291 0.191716
H4    H     H_    0.964298 0.819703 0.592410 0.142717
H5    H     H_    0.652939 0.516207 0.719857 0.152270
H6    H     H_    0.878189 0.815927 0.585054 0.191522
H7    H     H_    0.741258 0.518604 0.720496 0.137927
H8    H     H_    0.034701 0.824370 0.513609 0.139426
H9    H     H_    0.530256 0.114206 0.291977 0.172265
H10   H     H_    0.530324 0.886004 0.291974 0.172079
H11   H     H_    0.256057 0.408393 0.320402 0.145064
H12   H     H_    0.473965 0.886550 0.824549 0.160784
H13   H     H_    0.473559 0.113464 0.824167 0.158737
H14   H     H_    0.576118 0.494926 0.125705 0.151242
H15   H     H_    0.576113 0.495117 0.874803 0.150767
H16   H     H_    0.383481 0.467274 0.877429 0.206264
H17   H     H_    0.425866 0.330602 0.879063 0.224343
H18   H     H_    0.383207 0.471456 0.118083 0.205058
H19   H     H_    0.424752 0.332671 0.122769 0.214561
H20   H     H_    0.122283 0.195287 0.583273 0.199117
H21   H     H_    0.654003 0.486357 0.282094 0.151646
H22   H     H_    0.742519 0.489055 0.285438 0.139120
H23   H     H_    0.881478 0.199477 0.433755 0.191306
H24   H     H_    0.967817 0.199274 0.446988 0.151655
H25   H     H_    0.349987 0.603410 0.693664 0.155831
N1    N     N_R   0.201684 0.506654 0.517832 -0.355564
N2    N     N_R   0.798815 0.505523 0.505006 -0.358551
N3    N     N_R   0.499670 0.499140 0.142800 -0.109274
N4    N     N_R   0.499670 0.499180 0.857150 -0.109656
O1    O     O_R   0.500010 0.316790 0.614690 -0.602009
O2    O     O_2   0.798763 0.290297 0.454094 -0.551446
O3    O     O_2   0.202226 0.725825 0.493126 -0.557394
O4    O     O_2   0.796667 0.721274 0.552788 -0.550704
O5    O     O_R   0.500000 0.316760 0.385350 -0.628192
O6    O     O_R   0.428760 0.500040 0.614660 -0.612414
O7    O     O_R   0.428750 0.500000 0.385310 -0.620607
O8    O     O_R   0.500000 0.683240 0.614650 -0.603511
O9    O     O_R   0.499990 0.683210 0.385310 -0.625564
O10   O     O_R   0.571250 0.500000 0.614690 -0.633728
O11   O     O_R   0.571240 0.499960 0.385340 -0.632022
O12   O     O_2   0.203172 0.287865 0.545791 -0.558280
Zn1   Zn    Zn3+2 0.500000 0.500020 0.653130 0.961509
Zn2   Zn    Zn3+2 0.500000 0.499980 0.346870 0.946649
N5    N     N_3   0.416543 0.865634 0.678963 -0.438983
H26   H     H_    0.388134 0.887728 0.744313 0.194430
H27   H     H_    0.407445 0.895108 0.581183 0.196815
N6    N     N_3   0.416221 0.132461 0.677970 -0.440421
H28   H     H_    0.387834 0.110144 0.743352 0.198780
H29   H     H_    0.407273 0.102203 0.580354 0.198037
N7    N     N_3   0.031184 0.166702 0.624215 -0.466900
H30   H     H_    0.026879 0.100471 0.547168 0.171521
H31   H     H_    0.998581 0.185344 0.673362 0.206819

loop_
_geom_bond_atom_site_label_1
_geom_bond_atom_site_label_2
_ccdc_geom_bond_type
C10   C27   A    
C44   C48   A    
C21   C26   A    
C40   C41   A    
N6    H28   S    
C41   C42   S    
C34   O10   A    
C32   H4    S    
C2    H11   S    
N7    H31   S    
C1    O1    A    
C39   H10   S    
C21   H22   S    
C12   O7    A    
C28   C29   A    
C53   H25   S    
C44   N3    A    
C42   N5    S    
C5    C6    A    
C9    C22   A    
C23   C40   S    
C18   C19   A    
O1    Zn1   S    
C50   H18   S    
C51   N1    A    
C47   H15   S    
O8    Zn1   S    
C46   N3    A    
C16   C17   A    
C47   N4    A    
C45   N1    A    
O7    Zn2   S    
O5    Zn2   S    
C16   C20   A    
C1    O5    A    
N6    H29   S    
C21   C22   A    
C27   C30   A    
C36   C41   A    
C22   H21   S    
C4    C7    A    
C3    N1    S    
C51   O3    S    
N7    H30   S    
C4    C28   A    
O9    Zn2   S    
C6    H20   S    
C38   C39   A    
C7    C31   A    
C12   O6    A    
C24   C25   A    
C10   C14   A    
C50   H19   S    
C8    C54   A    
C39   C40   A    
O11   Zn2   S    
C25   C26   A    
C5    C45   A    
C43   N6    S    
C46   H14   S    
C37   C38   A    
C8    C12   S    
C20   O2    S    
C17   C18   A    
C25   H7    S    
C33   H6    S    
C48   C49   S    
C6    C30   A    
C11   C32   A    
N5    H26   S    
C26   N2    S    
N5    H27   S    
C49   H16   S    
C2    C54   A    
C9    C34   S    
N3    Zn2   S    
C31   C35   A    
C42   C43   S    
C45   O12   S    
C52   C53   A    
C38   H9    S    
C44   C50   S    
C54   H1    S    
C36   C37   A    
C14   C15   A    
C34   O11   A    
C4    C5    A    
C10   C13   A    
C8    C53   A    
C3    C52   A    
C9    C24   A    
C1    C37   S    
O10   Zn1   S    
C29   C35   A    
C19   O4    S    
C48   N4    A    
C13   C17   A    
C32   C33   A    
C31   H3    S    
O6    Zn1   S    
C2    C3    A    
C7    C51   A    
C19   N2    A    
C11   C13   A    
C15   H23   S    
C24   H5    S    
N4    Zn1   S    
C35   H8    S    
C23   O8    A    
C14   H24   S    
C18   C33   A    
C46   C47   A    
C52   H2    S    
C11   C29   A    
C43   H13   S    
C49   C50   S    
C49   H17   S    
C30   N7    S    
C27   C28   A    
C42   H12   S    
C23   O9    A    
C36   C43   S    
C20   N2    A    
C15   C16   A    
