data_mof_unit_12145.cif
_audit_creation_date              2013-03-05T15:40:42-0500
_audit_creation_method            fapswitch 2.2
_symmetry_space_group_name_H-M    P1
_symmetry_Int_Tables_number       1
_space_group_crystal_system       triclinic
_cell_length_a                    7.816046
_cell_length_b                    8.599849
_cell_length_c                    12.193637
_cell_angle_alpha                 91.660552
_cell_angle_beta                  101.388427
_cell_angle_gamma                 94.475088
_cell_volume                      800.204045005

loop_
_atom_site_label
_atom_site_type_symbol
_atom_site_description
_atom_site_fract_x
_atom_site_fract_y
_atom_site_fract_z
_atom_type_partial_charge
O1    O     O_R   0.893060 0.738880 0.507150 -0.558837
O2    O     O_R   0.172250 0.711130 0.488470 -0.614198
C1    C     C_R   0.047100 0.794903 0.503288 0.984711
O3    O     O_R   0.944700 0.520730 0.667600 -0.579330
O4    O     O_R   0.223890 0.492980 0.648920 -0.632417
C2    C     C_R   0.106338 0.503728 0.710073 0.881886
Zn1   Zn    Zn3+2 0.813580 0.518530 0.512470 1.029655
Zn2   Zn    Zn3+2 0.186420 0.481470 0.487530 0.953135
O5    O     O_R   0.827750 0.288870 0.511530 -0.564556
O6    O     O_R   0.106940 0.261120 0.492850 -0.647134
O7    O     O_R   0.776110 0.507020 0.351080 -0.627946
O8    O     O_R   0.055300 0.479270 0.332400 -0.622004
C3    C     C_R   0.956868 0.205728 0.507165 0.863055
C4    C     C_R   0.892179 0.489044 0.290181 0.858892
C5    C     C_R   0.818006 0.295532 0.006173 -0.144716
H1    H     H_    0.028546 0.305898 0.148815 0.163342
H2    H     H_    0.878789 0.209352 0.964223 0.189420
C6    C     C_R   0.830026 0.458440 0.171650 -0.059174
C7    C     C_R   0.072567 0.591885 0.897830 -0.150331
C8    C     C_R   0.143459 0.620969 0.010695 -0.136856
C9    C     C_R   0.306105 0.570326 0.055951 -0.195718
C10   C     C_R   0.398220 0.484438 0.988613 0.078582
C11   C     C_R   0.312671 0.434688 0.879715 0.081813
C12   C     C_R   0.572031 0.446496 0.025743 0.062674
C13   C     C_R   0.649943 0.341732 0.961196 0.136877
C14   C     C_R   0.554118 0.281079 0.856568 -0.094122
C15   C     C_R   0.384418 0.322226 0.819925 -0.271551
C16   C     C_R   0.671687 0.513337 0.125318 -0.256382
C17   C     C_R   0.905811 0.351380 0.111934 -0.215575
C18   C     C_R   0.159854 0.503482 0.831251 -0.081567
H3    H     H_    0.625665 0.604539 0.171777 0.150490
H4    H     H_    0.952631 0.642650 0.861942 0.180894
H5    H     H_    0.354316 0.597055 0.144127 0.144451
H6    H     H_    0.075131 0.687587 0.062495 0.151915
H7    H     H_    0.310000 0.268232 0.741877 0.169018
C19   C     C_2   0.070649 0.959429 0.507834 -0.532017
H8    H     H_    0.186925 0.009616 0.481080 0.192865
C20   C     C_2   0.941355 0.045164 0.528262 0.157809
N1    N     N_2   0.434800 0.456690 0.470850 -0.171775
H9    H     H_    0.470276 0.376023 0.417317 0.198953
N2    N     N_2   0.565200 0.543310 0.529150 -0.147296
H10   H     H_    0.529778 0.623885 0.582774 0.223267
N3    N     N_R   0.796520 0.985303 0.576517 0.247363
O9    O     O_R   0.636690 0.009085 0.529677 -0.424862
O10   O     O_R   0.825472 0.915107 0.670803 -0.394845
C21   C     C_2   0.627560 0.183462 0.778455 0.452251
H11   H     H_    0.543128 0.093451 0.725190 0.118679
O11   O     O_2   0.778539 0.210029 0.766890 -0.548787

loop_
_geom_bond_atom_site_label_1
_geom_bond_atom_site_label_2
_geom_bond_distance
_ccdc_geom_bond_type
O4    Zn2   1.929999 S    
N3    O9    1.301349 A    
C5    H2    1.079626 S    
Zn2   N1    2.018316 S    
C11   C15   1.409474 A    
N2    H10   1.029334 S    
C4    C6    1.440467 S    
C7    C8    1.385956 A    
Zn2   O8    1.964210 S    
C8    H6    1.082760 S    
C19   C20   1.353502 D    
O2    C1    1.296433 A    
H1    C17   1.083452 S    
C20   N3    1.443057 S    
N1    N2    1.289867 D    
C6    C17   1.394755 A    
O1    Zn1   1.954583 S    
C9    C10   1.421063 A    
C8    C9    1.390523 A    
Zn1   O7    1.930000 S    
N3    O10   1.302383 A    
C14   C15   1.390153 A    
C1    C19   1.410556 S    
O3    Zn1   1.964209 S    
C7    H4    1.083418 S    
O3    C2    1.288614 A    
C19   H8    1.087511 S    
C2    C18   1.454132 S    
O8    C4    1.287492 A    
C5    C17   1.388489 A    
C10   C12   1.411325 A    
Zn1   N2    2.018315 S    
O4    C2    1.299459 A    
O7    C4    1.295999 A    
C21   O11   1.220716 D    
C5    C13   1.411988 A    
C9    H5    1.078433 S    
C14   C21   1.478597 S    
C11   C18   1.406294 A    
C6    C16   1.379928 A    
C12   C13   1.426817 A    
Zn2   O6    1.954584 S    
N1    H9    1.029307 S    
Zn1   O5    1.986583 S    
O5    C3    1.290018 A    
C21   H11   1.085549 S    
C15   H7    1.083180 S    
C13   C14   1.408473 A    
C10   C11   1.401848 A    
C7    C18   1.402293 A    
C16   H3    1.078998 S    
O2    Zn2   1.986582 S    
C3    C20   1.412212 S    
C12   C16   1.388367 A    
O1    C1    1.271652 A    
O6    C3    1.277390 A    
