data_mof_unit_40787.cif
_audit_creation_date              2012-12-11T16:25:30-0500
_audit_creation_method            fapswitch 2.2
_symmetry_space_group_name_H-M    P1
_symmetry_Int_Tables_number       1
_space_group_crystal_system       triclinic
_cell_length_a                    20.580039
_cell_length_b                    7.277843
_cell_length_c                    13.228017
_cell_angle_alpha                 89.999241
_cell_angle_beta                  103.792065
_cell_angle_gamma                 90.00067
_cell_volume                      1924.14445596

loop_
_atom_site_label
_atom_site_type_symbol
_atom_type_description
_atom_site_fract_x
_atom_site_fract_y
_atom_site_fract_z
_atom_type_partial_charge
O1    O     O_R   0.449520 0.506760 0.599710 -0.527075
O2    O     O_R   0.550480 0.006760 0.400290 -0.527070
O3    O     O_R   0.587930 0.180200 0.595790 -0.539900
O4    O     O_R   0.412070 0.680200 0.404210 -0.539909
C1    C     C_R   0.612946 0.344533 0.621813 0.780813
C2    C     C_R   0.387053 0.844533 0.378192 0.780821
O5    O     O_R   0.452350 0.177380 0.611700 -0.511427
O6    O     O_R   0.547650 0.677380 0.388300 -0.511420
O7    O     O_R   0.413930 0.001760 0.416320 -0.519663
O8    O     O_R   0.586070 0.501760 0.583680 -0.519657
C3    C     C_R   0.435005 0.345847 0.636596 0.741646
C4    C     C_R   0.564991 0.845850 0.363399 0.741655
O9    O     O_3   0.487550 0.337460 0.435880 -0.376429
O10   O     O_3   0.512450 0.837460 0.564120 -0.376429
V1    V     V_3+5 0.502310 0.064670 0.511900 1.649911
V2    V     V_3+5 0.497690 0.564670 0.488100 1.649906
C5    C     C_R   0.611947 0.954022 0.111002 -0.129921
C6    C     C_R   0.388056 0.453969 0.888999 -0.129962
H1    H     H_    0.684821 0.920914 0.972947 0.124808
H2    H     H_    0.315181 0.420848 0.027054 0.124810
H3    H     H_    0.589287 0.014861 0.036139 0.151330
H4    H     H_    0.410719 0.514784 0.963866 0.151357
C7    C     C_R   0.603461 0.859194 0.282587 -0.225463
C8    C     C_R   0.396535 0.359181 0.717407 -0.225464
C9    C     C_R   0.920104 0.910049 0.312351 -0.252451
C10   C     C_R   0.079896 0.410073 0.687646 -0.252469
C11   C     C_R   0.885831 0.886114 0.390005 0.533492
C12   C     C_R   0.114170 0.386159 0.609993 0.533492
C13   C     C_R   0.818035 0.845052 0.365115 0.599150
C14   C     C_R   0.181965 0.345084 0.634882 0.599139
C15   C     C_R   0.781863 0.828220 0.259682 -0.043223
C16   C     C_R   0.218135 0.328224 0.740315 -0.043237
C17   C     C_R   0.818131 0.841989 0.179107 -0.030012
C18   C     C_R   0.181867 0.341988 0.820890 -0.030009
C19   C     C_R   0.710139 0.828649 0.231855 0.067957
C20   C     C_R   0.289859 0.328632 0.768142 0.067966
C21   C     C_R   0.677567 0.886990 0.130784 0.048910
C22   C     C_R   0.322433 0.386949 0.869216 0.048921
C23   C     C_R   0.711782 0.888661 0.052027 -0.148795
C24   C     C_R   0.288218 0.388615 0.947972 -0.148792
C25   C     C_R   0.780436 0.855938 0.073527 -0.018049
C26   C     C_R   0.219563 0.355919 0.926470 -0.018054
C27   C     C_R   0.668923 0.788385 0.301413 0.724602
C28   C     C_R   0.331073 0.288369 0.698582 0.724618
C29   C     C_R   0.578111 0.959243 0.190665 -0.127079
C30   C     C_R   0.421887 0.459217 0.809331 -0.127116
C31   C     C_R   0.889509 0.865445 0.208618 -0.209239
C32   C     C_R   0.110489 0.365454 0.791379 -0.209228
C33   C     C_R   0.232788 0.872340 0.024322 -0.227029
C34   C     C_R   0.767216 0.372344 0.975682 -0.227033
C35   C     C_R   0.289072 0.882126 0.982750 0.601900
C36   C     C_R   0.710935 0.382149 0.017257 0.601898
C37   C     C_R   0.352831 0.877694 0.046974 -0.118059
C38   C     C_R   0.647174 0.377731 0.953036 -0.118079
C39   C     C_R   0.361637 0.862431 0.154339 -0.279005
C40   C     C_R   0.638364 0.362451 0.845671 -0.279017
C41   C     C_R   0.306428 0.857936 0.200707 0.065665
C42   C     C_R   0.693572 0.357937 0.799298 0.065666
C43   C     C_R   0.239879 0.861963 0.135368 -0.046431
C44   C     C_R   0.760122 0.361962 0.864635 -0.046429
C45   C     C_R   0.317608 0.849728 0.311003 -0.061565
C46   C     C_R   0.682391 0.349726 0.689002 -0.061569
C47   C     C_R   0.262605 0.838152 0.357721 -0.221873
C48   C     C_R   0.737393 0.338146 0.642281 -0.221861
C49   C     C_R   0.195911 0.834125 0.293889 -0.091048
C50   C     C_R   0.804087 0.334120 0.706113 -0.091045
C51   C     C_R   0.184180 0.853414 0.183084 -0.048052
C52   C     C_R   0.815819 0.353411 0.816917 -0.048049
C53   C     C_R   0.272544 0.828539 0.468126 0.606323
C54   C     C_R   0.727454 0.328527 0.531877 0.606320
C55   C     C_R   0.218796 0.822347 0.513965 0.586068
C56   C     C_R   0.781203 0.322324 0.486037 0.586054
C57   C     C_R   0.154142 0.815377 0.452867 -0.293874
C58   C     C_R   0.845856 0.315355 0.547135 -0.293869
C59   C     C_R   0.142450 0.811052 0.344028 0.524428
C60   C     C_R   0.857549 0.311043 0.655974 0.524412
H5    H     H_    0.412327 0.854833 0.201451 0.100787
H6    H     H_    0.587673 0.354863 0.798560 0.100790
O11   O     O_R   0.913760 0.203480 0.916370 -0.515538
O12   O     O_R   0.086240 0.703480 0.083630 -0.515537
O13   O     O_R   0.047590 0.535230 0.888250 -0.546388
O14   O     O_R   0.952410 0.035230 0.111750 -0.546387
C61   C     C_R   0.067623 0.369563 0.866914 0.790133
C62   C     C_R   0.932376 0.869560 0.133084 0.790137
O15   O     O_R   0.912020 0.532880 0.904260 -0.537666
O16   O     O_R   0.087980 0.032880 0.095740 -0.537664
O17   O     O_R   0.949590 0.708460 0.099750 -0.513722
O18   O     O_R   0.050410 0.208460 0.900250 -0.513721
C63   C     C_R   0.885892 0.364340 0.882217 0.781995
C64   C     C_R   0.114108 0.864341 0.117783 0.781993
O19   O     O_3   0.012370 0.375360 0.064120 -0.365696
O20   O     O_3   0.987630 0.875360 0.935880 -0.365698
V3    V     V_3+5 0.997700 0.648160 0.988110 1.651457
V4    V     V_3+5 0.002300 0.148160 0.011890 1.651454
C65   C     C_1   0.520452 0.077278 0.179769 0.399005
N1    N     N_1   0.475022 0.174474 0.172325 -0.350345
C66   C     C_1   0.479541 0.577272 0.820220 0.399047
N2    N     N_1   0.524967 0.674486 0.827655 -0.350318
C67   C     C_1   0.170077 0.871160 0.946798 0.361202
N3    N     N_1   0.120891 0.870382 0.882473 -0.281300
C68   C     C_1   0.829927 0.371157 0.053203 0.361206
N4    N     N_1   0.879113 0.370374 0.117527 -0.281297
F1    F     F_    0.281682 0.894680 0.877807 -0.639304
F2    F     F_    0.718327 0.394716 0.122200 -0.639308
C69   C     C_1   0.409422 0.891922 0.001189 0.403446
N5    N     N_1   0.454405 0.904769 0.963353 -0.340716
C70   C     C_1   0.590587 0.392022 0.998831 0.403468
N6    N     N_1   0.545613 0.404923 0.036679 -0.340711
F3    F     F_    0.333995 0.828336 0.534619 -0.609348
F4    F     F_    0.666002 0.328326 0.465384 -0.609345
F5    F     F_    0.230149 0.821687 0.619540 -0.592574
F6    F     F_    0.769849 0.321654 0.380462 -0.592583
F7    F     F_    0.079147 0.777148 0.288772 -0.693335
F8    F     F_    0.920851 0.277142 0.711230 -0.693343
F9    F     F_    0.690509 0.676879 0.384795 -0.589690
F10   F     F_    0.309484 0.176860 0.615204 -0.589694
C71   C     C_1   0.981488 0.014976 0.336214 0.551654
N7    N     N_1   0.029443 0.104174 0.353226 -0.239650
C72   C     C_1   0.018509 0.514983 0.663782 0.551661
N8    N     N_1   0.970551 0.604166 0.646769 -0.239628
F11   F     F_    0.787423 0.858280 0.444844 -0.619951
F12   F     F_    0.212580 0.358319 0.555157 -0.619967
F13   F     F_    0.916753 0.920328 0.490897 -0.626448
F14   F     F_    0.083250 0.420393 0.509101 -0.626454
C73   C     C_1   0.809141 0.859196 0.984017 0.224230
N9    N     N_1   0.830894 0.862319 0.911045 -0.298585
C74   C     C_1   0.190857 0.359187 0.015979 0.224230
N10   N     N_1   0.169103 0.362320 0.088950 -0.298584
C75   C     C_1   0.099878 0.822268 0.503795 0.590612
N11   N     N_1   0.056839 0.831639 0.545885 -0.255605
C76   C     C_1   0.900121 0.322237 0.496208 0.590601
N12   N     N_1   0.943162 0.331604 0.454122 -0.255618

loop_
_geom_bond_atom_site_label_1
_geom_bond_atom_site_label_2
_ccdc_geom_bond_type
C42   C46   A    
C50   C52   A    
C56   F6    S    
C68   N4    T    
O14   V4    S    
C11   C13   A    
C65   N1    T    
O1    C3    A    
C62   O17   A    
O2    C4    A    
C2    O7    A    
C47   C49   A    
C66   N2    T    
C7    C27   A    
C23   C25   A    
O5    C3    A    
C4    C7    S    
C58   C60   A    
C38   C70   S    
C7    C29   A    
C16   C20   A    
C2    C45   S    
C19   C21   A    
C5    C29   A    
C47   C53   A    
H2    C24   S    
C41   C43   A    
C42   C44   A    
C3    C8    S    
C40   H6    S    
C45   C47   A    
C53   C55   A    
C46   C48   A    
C54   F4    S    
O16   V4    S    
C43   C51   A    
O15   V3    S    
C14   F12   S    
C18   C26   A    
C33   C35   A    
C55   F5    S    
C8    C28   A    
C60   F8    S    
C70   N6    T    
C15   C17   A    
C59   F7    S    
C48   C54   A    
C19   C27   A    
C9    C31   A    
C10   C32   A    
C27   F9    S    
C24   C26   A    
C61   O18   A    
O6    V2    S    
C22   C24   A    
C58   C76   S    
O12   C64   A    
C57   C59   A    
C53   F3    S    
C6    C30   A    
O13   C61   A    
C36   C38   A    
O18   V4    S    
C37   C39   A    
C38   C40   A    
C25   C73   S    
C10   C72   S    
O11   V4    S    
C56   C58   A    
O16   C64   A    
C55   C57   A    
C11   F13   S    
O5    V1    S    
C49   C51   A    
C51   C64   S    
C5    H3    S    
C13   F11   S    
C35   C37   A    
C48   C50   A    
O4    V2    S    
C33   C67   S    
O13   V3    S    
C34   C36   A    
C67   N3    T    
O6    C4    A    
C50   C60   A    
C52   C63   S    
O1    V2    S    
C5    C21   A    
C31   C62   S    
O2    V1    S    
C44   C52   A    
H1    C23   S    
C26   C74   S    
O4    C2    A    
C30   C66   S    
C17   C25   A    
O14   C62   A    
C39   C41   A    
C73   N9    T    
C17   C31   A    
C15   C19   A    
C20   C28   A    
C18   C32   A    
C76   N12   T    
C29   C65   S    
O3    V1    S    
C75   N11   T    
C36   F2    S    
O15   C63   A    
C6    H4    S    
O3    C1    A    
C9    C71   S    
C72   N8    T    
C12   F14   S    
C41   C45   A    
C9    C11   A    
C69   N5    T    
C10   C12   A    
C33   C43   A    
C32   C61   S    
C34   C44   A    
C20   C22   A    
O7    V1    S    
C8    C30   A    
C1    O8    A    
C13   C15   A    
O8    V2    S    
C71   N7    T    
O19   V4    S    
C14   C16   A    
C57   C75   S    
C39   H5    S    
O17   V3    S    
C12   C14   A    
O20   V3    S    
C40   C42   A    
C1    C46   S    
C6    C22   A    
O11   C63   A    
C37   C69   S    
C28   F10   S    
C34   C68   S    
C21   C23   A    
O9    V2    S    
O10   V1    S    
C54   C56   A    
O12   V3    S    
C35   F1    S    
C49   C59   A    
C74   N10   T    
C16   C18   A    
