data_mof_unit_51626.cif
_audit_creation_date              2012-12-10T16:37:48-0500
_audit_creation_method            fapswitch 2.2
_symmetry_space_group_name_H-M    P1
_symmetry_Int_Tables_number       1
_space_group_crystal_system       triclinic
_cell_length_a                    28.218956
_cell_length_b                    18.419555
_cell_length_c                    16.855732
_cell_angle_alpha                 89.981313
_cell_angle_beta                  61.106118
_cell_angle_gamma                 90.130269
_cell_volume                      7670.61430689

loop_
_atom_site_label
_atom_site_type_symbol
_atom_type_description
_atom_site_fract_x
_atom_site_fract_y
_atom_site_fract_z
_atom_type_partial_charge
C1    C     C_R   0.700664 0.265278 0.677262 0.892589
C2    C     C_R   0.299542 0.735182 0.322662 0.925797
C3    C     C_R   0.299784 0.264317 0.322749 0.886460
C4    C     C_R   0.706295 0.722061 0.672987 0.932201
C5    C     C_R   0.200637 0.765227 0.677271 0.893504
C6    C     C_R   0.799556 0.235207 0.322663 0.925857
C7    C     C_R   0.799745 0.764389 0.322769 0.886616
C8    C     C_R   0.206558 0.221586 0.672722 0.942299
C9    C     C_R   0.911884 0.503358 0.465102 -0.072872
C10   C     C_R   0.094519 0.503716 0.514254 -0.057784
C11   C     C_R   0.409950 0.003730 0.471071 -0.070392
C12   C     C_R   0.592883 0.003555 0.519239 -0.057169
C13   C     C_R   0.109761 0.378288 0.461698 0.467037
C14   C     C_R   0.926674 0.632376 0.426606 0.507579
C15   C     C_R   0.898163 0.378075 0.518922 0.484470
C16   C     C_R   0.076409 0.631251 0.558649 0.492763
C17   C     C_R   0.607137 0.877883 0.467435 0.467578
C18   C     C_R   0.425901 0.132300 0.430521 0.513702
C19   C     C_R   0.395304 0.878641 0.525468 0.484679
C20   C     C_R   0.575753 0.131463 0.562232 0.491927
C21   C     C_R   0.718139 0.262527 0.957493 -0.063132
C22   C     C_R   0.283582 0.741368 0.041048 -0.055945
C23   C     C_R   0.292288 0.240923 0.033979 -0.068710
C24   C     C_R   0.729464 0.712083 0.947036 -0.063517
C25   C     C_R   0.217888 0.762118 0.957690 -0.063306
C26   C     C_R   0.783806 0.241725 0.040886 -0.056016
C27   C     C_R   0.791674 0.742025 0.034490 -0.067581
C28   C     C_R   0.230142 0.210825 0.946444 -0.063208
C29   C     C_R   0.765260 0.219506 0.914475 -0.015112
C30   C     C_R   0.237006 0.785149 0.083478 0.038865
C31   C     C_R   0.241642 0.205249 0.081129 0.008814
C32   C     C_R   0.784464 0.733592 0.895611 0.012764
C33   C     C_R   0.264989 0.719064 0.914690 -0.015590
C34   C     C_R   0.737236 0.285517 0.083310 0.038888
C35   C     C_R   0.741043 0.706279 0.081618 0.009255
C36   C     C_R   0.285226 0.231979 0.894943 0.019013
C37   C     C_R   0.800297 0.213325 0.953184 -0.026521
C38   C     C_R   0.201816 0.791763 0.044859 -0.014501
C39   C     C_R   0.207263 0.199373 0.040965 -0.013717
C40   C     C_R   0.813683 0.757255 0.940756 -0.011518
C41   C     C_R   0.300044 0.712912 0.953376 -0.026481
C42   C     C_R   0.702057 0.292157 0.044675 -0.014712
C43   C     C_R   0.706636 0.700419 0.041499 -0.013449
C44   C     C_R   0.314404 0.255837 0.940137 -0.012011
C45   C     C_R   0.639422 0.317388 0.955541 0.034736
C46   C     C_R   0.361604 0.684438 0.043539 0.024810
C47   C     C_R   0.367314 0.305147 0.039624 0.041885
C48   C     C_R   0.643739 0.676622 0.951828 0.042437
C49   C     C_R   0.139251 0.817143 0.955654 0.034959
C50   C     C_R   0.861755 0.184653 0.043454 0.024808
C51   C     C_R   0.866964 0.805678 0.039908 0.041802
C52   C     C_R   0.144247 0.175946 0.951422 0.042100
C53   C     C_R   0.613751 0.340893 0.904351 -0.104601
C54   C     C_R   0.386532 0.659583 0.095369 -0.104350
C55   C     C_R   0.389076 0.336178 0.093674 -0.107978
C56   C     C_R   0.615433 0.656786 0.903359 -0.104108
C57   C     C_R   0.113663 0.840786 0.904396 -0.104772
C58   C     C_R   0.886608 0.159674 0.095340 -0.104376
C59   C     C_R   0.888927 0.836378 0.093807 -0.107480
C60   C     C_R   0.115811 0.156333 0.903076 -0.104384
C61   C     C_R   0.632308 0.317327 0.816846 -0.326539
C62   C     C_R   0.367775 0.682843 0.183064 -0.318919
C63   C     C_R   0.368881 0.315367 0.182737 -0.321554
C64   C     C_R   0.635758 0.676402 0.814430 -0.316035
C65   C     C_R   0.132252 0.817272 0.816856 -0.324601
C66   C     C_R   0.867814 0.182873 0.183071 -0.318792
C67   C     C_R   0.868808 0.815447 0.182795 -0.322943
C68   C     C_R   0.136175 0.175799 0.814119 -0.317813
C69   C     C_R   0.676495 0.272132 0.776099 -0.117983
C70   C     C_R   0.324098 0.728979 0.223535 -0.089281
C71   C     C_R   0.325475 0.268417 0.223475 -0.121749
C72   C     C_R   0.688281 0.700223 0.765960 -0.106374
C73   C     C_R   0.176390 0.771983 0.776146 -0.118458
C74   C     C_R   0.824161 0.229057 0.223524 -0.089404
C75   C     C_R   0.825315 0.768643 0.223564 -0.121372
C76   C     C_R   0.188747 0.199396 0.765539 -0.093831
C77   C     C_R   0.701704 0.245182 0.827093 -0.058215
C78   C     C_R   0.299362 0.757035 0.172261 -0.004069
C79   C     C_R   0.302504 0.236663 0.171432 -0.062603
C80   C     C_R   0.722109 0.703733 0.807536 -0.040583
C81   C     C_R   0.201483 0.744858 0.827241 -0.059828
C82   C     C_R   0.799495 0.257224 0.172202 -0.004039
C83   C     C_R   0.802130 0.737220 0.171667 -0.061097
C84   C     C_R   0.222650 0.202820 0.807024 -0.034124
C85   C     C_R   0.691181 0.129772 0.535614 0.906222
C86   C     C_R   0.304850 0.872342 0.478326 0.917379
C87   C     C_R   0.309137 0.130068 0.462851 0.911765
C88   C     C_R   0.695508 0.872306 0.520475 0.905187
C89   C     C_R   0.191213 0.629728 0.535351 0.905293
C90   C     C_R   0.805060 0.372307 0.477761 0.913613
C91   C     C_R   0.809150 0.630070 0.462750 0.908658
C92   C     C_R   0.195712 0.372323 0.519905 0.907466
C93   C     C_R   0.686717 0.275552 0.913043 -0.007793
C94   C     C_R   0.314610 0.727255 0.085886 -0.012347
C95   C     C_R   0.320755 0.260989 0.081623 -0.004957
C96   C     C_R   0.698132 0.698961 0.902577 -0.005083
C97   C     C_R   0.186491 0.775202 0.913209 -0.008326
C98   C     C_R   0.814785 0.227518 0.085777 -0.012198
C99   C     C_R   0.820286 0.761753 0.081986 -0.004724
C100  C     C_R   0.198725 0.197980 0.902062 -0.010387
C101  C     C_R   0.618220 0.330833 0.048912 -0.294388
C102  C     C_R   0.383021 0.671298 0.949867 -0.266696
C103  C     C_R   0.390319 0.316158 0.945349 -0.299651
C104  C     C_R   0.619791 0.674324 0.046870 -0.291123
C105  C     C_R   0.118024 0.830571 0.049035 -0.294382
C106  C     C_R   0.883223 0.171581 0.949757 -0.266867
C107  C     C_R   0.889902 0.816820 0.945687 -0.299409
C108  C     C_R   0.120324 0.173771 0.046464 -0.290331
C109  C     C_R   0.649220 0.321720 0.093129 0.510204
C110  C     C_R   0.353451 0.685391 0.904859 0.496427
C111  C     C_R   0.364952 0.292859 0.895470 0.507417
C112  C     C_R   0.650395 0.684187 0.092293 0.509424
C113  C     C_R   0.148990 0.821358 0.093301 0.510353
C114  C     C_R   0.853703 0.185789 0.904689 0.496883
C115  C     C_R   0.864290 0.794140 0.896001 0.506779
C116  C     C_R   0.150973 0.183482 0.091826 0.509904
C117  C     C_R   0.739608 0.187178 0.798957 0.519591
C118  C     C_R   0.262460 0.816043 0.200876 0.516877
C119  C     C_R   0.262681 0.180443 0.203289 0.520578
C120  C     C_R   0.779301 0.705265 0.758064 0.516890
C121  C     C_R   0.239362 0.686825 0.799099 0.520923
C122  C     C_R   0.762615 0.316256 0.200832 0.516795
C123  C     C_R   0.762277 0.681031 0.203459 0.519403
C124  C     C_R   0.279724 0.203835 0.757464 0.518643
C125  C     C_R   0.772402 0.177819 0.839366 -0.232626
C126  C     C_R   0.231147 0.828016 0.156910 -0.273805
C127  C     C_R   0.229940 0.170503 0.162886 -0.228705
C128  C     C_R   0.809251 0.723777 0.801155 -0.228488
C129  C     C_R   0.272119 0.677387 0.839572 -0.231834
C130  C     C_R   0.731357 0.328331 0.156791 -0.273609
C131  C     C_R   0.729444 0.671308 0.163194 -0.230731
C132  C     C_R   0.309975 0.221901 0.800472 -0.241174
C133  C     C_R   0.071692 0.103541 0.937023 0.900155
C134  C     C_R   0.928149 0.896553 0.063377 0.902080
C135  C     C_R   0.927192 0.102099 0.064257 0.908694
C136  C     C_R   0.072820 0.897946 0.935712 0.904336
C137  C     C_R   0.571554 0.603659 0.937138 0.898784
C138  C     C_R   0.428204 0.396490 0.063320 0.901908
C139  C     C_R   0.427165 0.602071 0.064276 0.908662
C140  C     C_R   0.572846 0.397972 0.935694 0.903841
C141  C     C_R   0.539623 0.134854 0.526927 0.005112
C142  C     C_R   0.449031 0.874415 0.506274 0.011442
C143  C     C_R   0.463005 0.135210 0.463968 0.005978
C144  C     C_R   0.553859 0.874190 0.483831 0.009035
C145  C     C_R   0.040805 0.634733 0.522260 0.005018
C146  C     C_R   0.952249 0.374060 0.497719 0.010515
C147  C     C_R   0.964293 0.635165 0.459013 0.011527
C148  C     C_R   0.056950 0.374420 0.475818 0.008566
C149  C     C_R   0.518796 0.200824 0.514631 -0.205354
C150  C     C_R   0.474085 0.808242 0.505108 -0.207075
C151  C     C_R   0.483318 0.201072 0.478050 -0.152126
C152  C     C_R   0.528196 0.808073 0.486248 -0.165553
C153  C     C_R   0.019452 0.700657 0.511052 -0.201488
C154  C     C_R   0.977592 0.308023 0.496133 -0.203982
C155  C     C_R   0.984048 0.701018 0.474326 -0.148119
C156  C     C_R   0.031661 0.308170 0.477479 -0.163081
C157  C     C_R   0.480735 0.070103 0.483200 -0.012317
C158  C     C_R   0.526248 0.939220 0.494667 0.000733
C159  C     C_R   0.522833 0.070035 0.505191 0.004556
C160  C     C_R   0.477394 0.939236 0.493112 0.009610
C161  C     C_R   0.982807 0.569987 0.476561 -0.004911
C162  C     C_R   0.029194 0.439311 0.486360 0.000329
C163  C     C_R   0.024826 0.570023 0.498808 0.004867
C164  C     C_R   0.980429 0.439037 0.484456 0.009917
C165  C     C_R   0.958700 0.504241 0.474224 -0.066617
C166  C     C_R   0.049746 0.504563 0.499379 -0.066729
C167  C     C_R   0.456194 0.004499 0.481778 -0.068933
C168  C     C_R   0.547434 0.004443 0.506264 -0.066729
C169  C     C_R   0.880791 0.438911 0.486107 -0.063714
C170  C     C_R   0.109400 0.567562 0.542948 -0.040813
C171  C     C_R   0.125016 0.439231 0.497523 -0.060342
C172  C     C_R   0.894389 0.567892 0.441960 -0.052171
C173  C     C_R   0.378878 0.939358 0.491104 -0.065491
C174  C     C_R   0.608583 0.067585 0.546296 -0.041134
C175  C     C_R   0.623364 0.938968 0.501716 -0.061030
C176  C     C_R   0.393392 0.068017 0.445904 -0.045027
C177  C     C_R   0.834871 0.438024 0.472106 -0.102026
C178  C     C_R   0.158240 0.565611 0.549070 -0.108844
C179  C     C_R   0.167613 0.438062 0.520172 -0.100424
C180  C     C_R   0.843057 0.566082 0.444033 -0.116690
C181  C     C_R   0.334119 0.938210 0.474092 -0.102677
C182  C     C_R   0.658044 0.065649 0.550358 -0.109616
C183  C     C_R   0.666955 0.937956 0.521977 -0.101476
C184  C     C_R   0.342892 0.066099 0.445067 -0.123126
C185  C     C_R   0.817651 0.500834 0.449570 -0.312324
C186  C     C_R   0.182846 0.500619 0.546597 -0.316822
C187  C     C_R   0.317689 0.000840 0.449753 -0.311682
C188  C     C_R   0.682823 0.000626 0.547158 -0.315862
H1    H     H_    0.052126 0.257051 0.470972 0.177210
H2    H     H_    0.969918 0.752535 0.462859 0.181963
H3    H     H_    0.956649 0.256825 0.504889 0.174665
H4    H     H_    0.031768 0.751905 0.526986 0.173213
H5    H     H_    0.548567 0.756836 0.479505 0.177048
H6    H     H_    0.469757 0.252570 0.465346 0.183076
H7    H     H_    0.453030 0.757163 0.513699 0.175126
H8    H     H_    0.531763 0.252130 0.529206 0.173875
H9    H     H_    0.781025 0.499974 0.443735 0.190370
H10   H     H_    0.217150 0.499766 0.559026 0.194092
H11   H     H_    0.281775 0.999888 0.441812 0.190401
H12   H     H_    0.717745 0.999820 0.557922 0.194800
H13   H     H_    0.576053 0.343789 0.090584 0.183237
H14   H     H_    0.424263 0.654132 0.907664 0.191455
H15   H     H_    0.429004 0.342081 0.907459 0.183194
H16   H     H_    0.576438 0.668189 0.086798 0.172189
H17   H     H_    0.075867 0.843611 0.090653 0.183123
H18   H     H_    0.924458 0.154358 0.907613 0.191299
H19   H     H_    0.928729 0.842338 0.907676 0.183032
H20   H     H_    0.076953 0.167921 0.086446 0.172058
H21   H     H_    0.800630 0.133175 0.815233 0.227441
H22   H     H_    0.205608 0.875127 0.174622 0.181486
H23   H     H_    0.198548 0.129667 0.191670 0.193444
H24   H     H_    0.852613 0.721396 0.760381 0.205073
H25   H     H_    0.300341 0.632737 0.815428 0.227236
H26   H     H_    0.705844 0.375466 0.174502 0.181507
H27   H     H_    0.698085 0.630427 0.191893 0.194000
H28   H     H_    0.353326 0.219684 0.759544 0.201462
O1    O     O_R   0.746490 0.236330 0.638080 -0.551349
O2    O     O_R   0.253510 0.763670 0.361920 -0.591895
O3    O     O_R   0.253510 0.236330 0.361920 -0.549409
O4    O     O_R   0.746490 0.763670 0.638080 -0.587504
O5    O     O_R   0.246490 0.736330 0.638080 -0.549378
O6    O     O_R   0.753510 0.263670 0.361920 -0.591743
O7    O     O_R   0.753510 0.736330 0.361920 -0.551162
O8    O     O_R   0.246490 0.263670 0.638080 -0.590045
O9    O     O_R   0.674170 0.186160 0.516270 -0.576883
O10   O     O_R   0.325830 0.813840 0.483730 -0.576594
O11   O     O_R   0.325830 0.186160 0.483730 -0.536510
O12   O     O_R   0.674170 0.813840 0.516270 -0.576360
O13   O     O_R   0.174170 0.686160 0.516270 -0.577219
O14   O     O_R   0.825830 0.313840 0.483730 -0.575240
O15   O     O_R   0.825830 0.686160 0.483730 -0.536121
O16   O     O_R   0.174170 0.313840 0.516270 -0.577878
O17   O     O_R   0.739960 0.127620 0.525000 -0.621358
O18   O     O_R   0.260040 0.872380 0.475000 -0.644424
O19   O     O_R   0.260040 0.127620 0.475000 -0.635104
O20   O     O_R   0.739960 0.872380 0.525000 -0.641392
O21   O     O_R   0.239960 0.627620 0.525000 -0.620940
O22   O     O_R   0.760040 0.372380 0.475000 -0.644553
O23   O     O_R   0.760040 0.627620 0.475000 -0.637241
O24   O     O_R   0.239960 0.372380 0.525000 -0.641807
O25   O     O_R   0.680700 0.294870 0.629350 -0.628986
O26   O     O_R   0.319300 0.705130 0.370650 -0.640487
O27   O     O_R   0.319300 0.294870 0.370650 -0.630242
O28   O     O_R   0.680700 0.705130 0.629350 -0.646273
O29   O     O_R   0.180700 0.794870 0.629350 -0.629663
O30   O     O_R   0.819300 0.205130 0.370650 -0.640478
O31   O     O_R   0.819300 0.794870 0.370650 -0.629099
O32   O     O_R   0.180700 0.205130 0.629350 -0.646779
O33   O     O_R   0.062020 0.072840 0.007170 -0.626708
O34   O     O_R   0.937980 0.927160 0.992830 -0.617715
O35   O     O_R   0.937980 0.072840 0.992830 -0.620823
O36   O     O_R   0.062020 0.927160 0.007170 -0.631575
O37   O     O_R   0.562020 0.572840 0.007170 -0.626451
O38   O     O_R   0.437980 0.427160 0.992830 -0.617521
O39   O     O_R   0.437980 0.572840 0.992830 -0.620919
O40   O     O_R   0.562020 0.427160 0.007170 -0.631522
O41   O     O_R   0.947860 0.073950 0.109290 -0.621526
O42   O     O_R   0.052140 0.926050 0.890710 -0.620999
O43   O     O_R   0.052140 0.073950 0.890710 -0.612972
O44   O     O_R   0.947860 0.926050 0.109290 -0.620158
O45   O     O_R   0.447860 0.573950 0.109290 -0.621540
O46   O     O_R   0.552140 0.426050 0.890710 -0.621258
O47   O     O_R   0.552140 0.573950 0.890710 -0.613505
O48   O     O_R   0.447860 0.426050 0.109290 -0.620038
Zn1   Zn    Zn3+2 0.792340 0.208750 0.507670 1.044475
Zn2   Zn    Zn3+2 0.207660 0.791250 0.492330 0.985312
Zn3   Zn    Zn3+2 0.207660 0.208750 0.492330 1.034052
Zn4   Zn    Zn3+2 0.792340 0.791250 0.507670 1.039339
Zn5   Zn    Zn3+2 0.292340 0.708750 0.507670 1.044521
Zn6   Zn    Zn3+2 0.707660 0.291250 0.492330 0.984955
Zn7   Zn    Zn3+2 0.707660 0.708750 0.492330 1.032278
Zn8   Zn    Zn3+2 0.292340 0.291250 0.507670 1.039018
Zn9   Zn    Zn3+2 0.505960 0.500000 0.080520 0.909658
Zn10  Zn    Zn3+2 0.494040 0.500000 0.919480 0.954945
Zn11  Zn    Zn3+2 0.005960 0.000000 0.080520 0.909756
Zn12  Zn    Zn3+2 0.994040 0.000000 0.919480 0.955488
O49   O     O_3   0.146354 0.327988 0.402975 -0.580741
C189  C     C_3   0.181921 0.363145 0.321025 -0.225662
H29   H     H_    0.211147 0.398292 0.329747 0.138484
H30   H     H_    0.159680 0.395234 0.293470 0.151664
H31   H     H_    0.205454 0.321313 0.269933 0.196420
O50   O     O_3   0.923082 0.692287 0.379977 -0.590110
C190  C     C_3   0.941735 0.673254 0.288622 -0.315722
H32   H     H_    0.913581 0.634775 0.281657 0.142297
H33   H     H_    0.983355 0.650241 0.257215 0.164235
H34   H     H_    0.943440 0.723093 0.250342 0.192276
O51   O     O_3   0.862866 0.329392 0.583415 -0.580122
C191  C     C_3   0.829809 0.366907 0.664677 -0.308439
H35   H     H_    0.800124 0.402128 0.657617 0.150343
H36   H     H_    0.854340 0.399441 0.687475 0.137910
H37   H     H_    0.806497 0.326532 0.718478 0.194769
O52   O     O_3   0.076179 0.688951 0.611737 -0.590967
C192  C     C_3   0.055498 0.665329 0.702125 -0.351852
H38   H     H_    0.084835 0.629823 0.709706 0.156512
H39   H     H_    0.015850 0.637050 0.727361 0.148231
H40   H     H_    0.048744 0.713619 0.745613 0.186959
O53   O     O_3   0.643051 0.827442 0.407674 -0.580938
C193  C     C_3   0.678306 0.862571 0.325510 -0.221855
H41   H     H_    0.707848 0.897586 0.333519 0.137586
H42   H     H_    0.655738 0.894788 0.298692 0.151547
H43   H     H_    0.701575 0.820688 0.274228 0.196752
O54   O     O_3   0.423289 0.191722 0.382256 -0.590553
C194  C     C_3   0.443123 0.171819 0.290861 -0.317763
H44   H     H_    0.415402 0.133068 0.283092 0.142883
H45   H     H_    0.484664 0.148753 0.261250 0.165342
H46   H     H_    0.445467 0.221249 0.251479 0.192694
O55   O     O_3   0.359277 0.829961 0.588893 -0.580211
C195  C     C_3   0.325559 0.867464 0.669816 -0.310287
H47   H     H_    0.296036 0.902262 0.661733 0.152052
H48   H     H_    0.349476 0.900435 0.693477 0.136572
H49   H     H_    0.302155 0.827092 0.723503 0.195122
O56   O     O_3   0.576360 0.189552 0.614135 -0.591065
C196  C     C_3   0.556815 0.166522 0.704491 -0.351360
H50   H     H_    0.586737 0.131547 0.711109 0.156071
H51   H     H_    0.517196 0.137889 0.731277 0.146359
H52   H     H_    0.550401 0.215141 0.747331 0.187398
H53   H     H_    0.613660 0.337770 0.778139 0.191576
H54   H     H_    0.385855 0.661421 0.222187 0.189630
H55   H     H_    0.385220 0.339973 0.222877 0.194103
H56   H     H_    0.611626 0.667922 0.780936 0.186492
H57   H     H_    0.113680 0.837841 0.778089 0.191690
H58   H     H_    0.885840 0.161361 0.222234 0.189642
H59   H     H_    0.885291 0.839831 0.222845 0.193908
H60   H     H_    0.111962 0.167500 0.780734 0.186183
O57   O     O_3   0.624877 0.329168 0.186743 -0.602821
C197  C     C_3   0.600525 0.398188 0.214312 -0.376465
H61   H     H_    0.558893 0.397660 0.223196 0.179579
H62   H     H_    0.625085 0.442326 0.166836 0.145353
H63   H     H_    0.597051 0.410933 0.281239 0.184902
O58   O     O_3   0.379060 0.675078 0.812086 -0.621281
C198  C     C_3   0.401291 0.741938 0.769190 -0.298979
H64   H     H_    0.421485 0.733785 0.694783 0.209884
H65   H     H_    0.432431 0.761779 0.786582 0.152171
H66   H     H_    0.369387 0.783756 0.786448 0.164910
O59   O     O_3   0.385028 0.317245 0.807027 -0.602896
C199  C     C_3   0.438298 0.291629 0.751675 -0.342107
H67   H     H_    0.443650 0.234435 0.767407 0.147536
H68   H     H_    0.468371 0.327807 0.756326 0.177014
H69   H     H_    0.446826 0.292860 0.680200 0.204295
O60   O     O_3   0.624501 0.689618 0.186248 -0.597453
C200  C     C_3   0.589981 0.629548 0.227677 -0.350743
H70   H     H_    0.607440 0.577579 0.191595 0.135906
H71   H     H_    0.549532 0.639149 0.233753 0.174652
H72   H     H_    0.584033 0.623633 0.297406 0.195616
O61   O     O_3   0.124636 0.828754 0.186924 -0.602809
C201  C     C_3   0.100216 0.897726 0.214581 -0.376600
H73   H     H_    0.058568 0.897112 0.223535 0.179706
H74   H     H_    0.124710 0.941911 0.167124 0.145356
H75   H     H_    0.096769 0.910465 0.281490 0.184813
O62   O     O_3   0.879338 0.175568 0.811893 -0.620919
C202  C     C_3   0.901723 0.242414 0.769114 -0.300236
H76   H     H_    0.921611 0.234490 0.694673 0.210980
H77   H     H_    0.933130 0.261743 0.786142 0.152712
H78   H     H_    0.869964 0.284537 0.786901 0.162789
O63   O     O_3   0.884237 0.818898 0.807709 -0.603215
C203  C     C_3   0.937613 0.793742 0.752011 -0.341062
H79   H     H_    0.943430 0.736782 0.767875 0.147719
H80   H     H_    0.967559 0.830505 0.756167 0.176562
H81   H     H_    0.945892 0.794528 0.680646 0.204481
O64   O     O_3   0.125103 0.189163 0.185758 -0.597173
C204  C     C_3   0.090390 0.129316 0.227449 -0.351959
H82   H     H_    0.107681 0.077214 0.191598 0.136178
H83   H     H_    0.049972 0.139112 0.233480 0.174657
H84   H     H_    0.084419 0.123538 0.297206 0.195155
O65   O     O_3   0.743656 0.135557 0.736286 -0.576670
C205  C     C_3   0.696793 0.091621 0.774711 -0.313400
H85   H     H_    0.660486 0.122607 0.785090 0.141406
H86   H     H_    0.689934 0.066626 0.839609 0.161154
H87   H     H_    0.702482 0.046857 0.726915 0.191588
O66   O     O_3   0.266087 0.867886 0.258217 -0.610254
C206  C     C_3   0.216695 0.904128 0.312495 -0.259329
H88   H     H_    0.181242 0.866665 0.339071 0.156162
H89   H     H_    0.211686 0.950142 0.274590 0.148603
H90   H     H_    0.218091 0.927732 0.371830 0.193517
O67   O     O_3   0.256216 0.131580 0.270253 -0.589700
C207  C     C_3   0.301947 0.086012 0.236790 -0.322081
H91   H     H_    0.338528 0.116410 0.226708 0.144106
H92   H     H_    0.309484 0.058708 0.172792 0.162729
H93   H     H_    0.294197 0.042921 0.287615 0.203358
O68   O     O_3   0.807232 0.676690 0.671799 -0.583658
C208  C     C_3   0.803120 0.600110 0.678576 -0.344157
H94   H     H_    0.766287 0.581477 0.676448 0.167910
H95   H     H_    0.803265 0.577884 0.740094 0.140371
H96   H     H_    0.838762 0.576454 0.620327 0.198115
O69   O     O_3   0.243480 0.635317 0.736266 -0.576721
C209  C     C_3   0.196545 0.591516 0.774362 -0.313885
H97   H     H_    0.160408 0.622561 0.784065 0.141823
H98   H     H_    0.189298 0.566710 0.839564 0.160759
H99   H     H_    0.202397 0.546609 0.726670 0.191324
O70   O     O_3   0.766202 0.368015 0.258296 -0.610268
C210  C     C_3   0.716797 0.404231 0.312571 -0.259372
H100  H     H_    0.681350 0.366763 0.339047 0.156329
H101  H     H_    0.711805 0.450292 0.274710 0.148516
H102  H     H_    0.718154 0.427770 0.371970 0.193511
O71   O     O_3   0.755893 0.631954 0.270176 -0.589459
C211  C     C_3   0.801542 0.586214 0.236302 -0.321652
H103  H     H_    0.838333 0.616502 0.225403 0.143787
H104  H     H_    0.808607 0.558725 0.172664 0.162866
H105  H     H_    0.793995 0.543296 0.287245 0.203929
O72   O     O_3   0.306189 0.175403 0.670958 -0.583514
C212  C     C_3   0.320264 0.102457 0.676048 -0.358197
H106  H     H_    0.294271 0.075299 0.742567 0.140406
H107  H     H_    0.363268 0.099789 0.660200 0.180174
H108  H     H_    0.315338 0.070114 0.625319 0.196996

loop_
_geom_bond_atom_site_label_1
_geom_bond_atom_site_label_2
_ccdc_geom_bond_type
C210  H102  S    
C154  H3    S    
C85   C182  S    
C9    C169  A    
C34   C42   A    
C181  C187  A    
C194  H45   S    
C27   C99   A    
O50   C190  S    
C170  C178  A    
C85   O17   A    
C104  H16   S    
C12   C174  A    
C42   C109  A    
C211  H104  S    
C65   H57   S    
C24   C96   A    
C149  H8    S    
C92   O16   A    
C87   O19   A    
O25   Zn6   S    
C62   C70   A    
O22   Zn6   S    
O44   Zn11  S    
C118  O66   S    
C195  H48   S    
O33   Zn11  S    
C15   O51   S    
C197  H61   S    
C132  H28   S    
O34   Zn12  S    
O30   Zn1   S    
C147  C155  A    
C107  H19   S    
C195  H49   S    
C143  C151  A    
C90   C177  S    
O15   Zn4   S    
C11   C167  A    
C82   C98   A    
C76   C84   A    
C73   C81   A    
C161  C163  A    
C162  C164  A    
O38   Zn10  S    
O46   Zn10  S    
C204  H84   S    
O41   Zn11  S    
O58   C198  S    
C90   O22   A    
O42   Zn12  S    
C84   C100  A    
C191  H37   S    
O60   C200  S    
C57   C65   A    
C37   C114  A    
C27   C35   A    
C10   C171  A    
C21   C29   A    
C203  H81   S    
C81   C121  A    
C23   C31   A    
C209  H98   S    
C24   C32   A    
O7    Zn7   S    
O8    Zn8   S    
C7    O7    A    
C194  H44   S    
C146  C154  A    
O47   Zn10  S    
C197  H63   S    
C202  H77   S    
O43   Zn12  S    
C63   C71   A    
C208  H94   S    
O3    Zn3   S    
C36   C44   A    
C209  H99   S    
C193  H41   S    
C134  O34   A    
C175  C183  A    
C176  C184  A    
C48   C96   A    
C66   H58   S    
C6    O30   A    
C199  H67   S    
C196  H52   S    
C106  H18   S    
O67   C207  S    
C148  C162  A    
C68   H60   S    
C101  H13   S    
C183  C188  A    
C142  C150  A    
C21   C93   A    
C78   C94   A    
C9    C165  A    
O2    Zn2   S    
C23   C95   A    
C130  H26   S    
O62   C202  S    
O9    Zn6   S    
C49   C97   A    
C21   C42   A    
C22   C41   A    
C51   C107  A    
C2    O2    A    
C24   C43   A    
C136  O36   A    
C185  H9    S    
O65   C205  S    
C82   C122  A    
C161  C165  A    
C17   C175  A    
C191  H36   S    
O68   C208  S    
C6    O6    A    
C18   C176  A    
C29   C125  A    
C69   C77   A    
C202  H76   S    
C31   C127  A    
C108  H20   S    
C45   C93   A    
C174  C182  A    
C71   C79   A    
O66   C206  S    
C202  H78   S    
C179  C186  A    
C61   H53   S    
C30   C38   A    
C11   C176  A    
C17   C144  A    
C151  H6    S    
C105  C113  A    
C18   C143  A    
C78   C118  A    
C36   C132  A    
C196  H51   S    
C188  H12   S    
C66   C74   A    
C7    O31   A    
C8    C76   S    
C49   C57   A    
O56   C196  S    
C124  C132  A    
O27   Zn8   S    
C52   C60   A    
C59   C67   A    
C53   C61   A    
C141  C159  A    
C20   C174  A    
C121  O69   S    
C55   C63   A    
C208  H96   S    
C56   C64   A    
C35   C43   A    
C3    O3    A    
C156  H1    S    
C45   C53   A    
C140  O46   A    
O49   C189  S    
C190  H34   S    
O59   C199  S    
C22   C94   A    
C171  C179  A    
C199  H69   S    
C169  C177  A    
O64   C204  S    
C207  H92   S    
C200  H71   S    
O19   Zn3   S    
C17   O53   S    
C50   C98   A    
O39   Zn10  S    
O26   Zn5   S    
C19   O55   S    
O35   Zn12  S    
C65   C73   A    
C104  C112  A    
C125  H21   S    
C145  C163  A    
C146  C164  A    
C14   C147  A    
C52   C100  A    
C120  O68   S    
C91   O15   A    
C16   C145  A    
C178  C186  A    
C192  H38   S    
C25   C38   A    
C201  H74   S    
C54   C139  S    
C46   C94   A    
C27   C40   A    
C10   C166  A    
C206  H90   S    
C91   C180  S    
C203  H80   S    
C182  C188  A    
C89   C178  S    
C2    O26   A    
C205  H87   S    
C60   C68   A    
C67   H59   S    
C25   C97   A    
C138  O48   A    
C139  O45   A    
C85   O9    A    
C133  O33   A    
C212  H108  S    
C201  H75   S    
O20   Zn4   S    
C210  H101  S    
C92   O24   A    
C22   C30   A    
C109  O57   S    
C20   C141  A    
C135  O35   A    
O72   C212  S    
C15   C146  A    
C1    O1    A    
C207  H93   S    
C58   C135  S    
C68   C76   A    
C59   C134  S    
C184  C187  A    
C32   C128  A    
C72   C80   A    
C138  O38   A    
C114  O62   S    
C56   C137  S    
C88   O12   A    
C189  H30   S    
C129  H25   S    
C198  H66   S    
C150  H7    S    
O17   Zn1   S    
O11   Zn8   S    
C13   C171  A    
C67   C75   A    
C190  H32   S    
C119  O67   S    
C189  H29   S    
C90   O14   A    
C197  H62   S    
C117  C125  A    
C4    O28   A    
C25   C33   A    
C119  C127  A    
C157  C167  A    
C80   C120  A    
C158  C168  A    
O32   Zn3   S    
C195  H47   S    
C204  H83   S    
C86   O18   A    
C63   H55   S    
C164  C165  A    
C64   H56   S    
C192  H40   S    
C40   C115  A    
C190  H33   S    
C101  C109  A    
C206  H88   S    
O28   Zn7   S    
C177  C185  A    
C103  C111  A    
C205  H85   S    
C162  C166  A    
C4    O4    A    
C189  H31   S    
C79   C119  A    
C115  O63   S    
C153  H4    S    
C153  C155  A    
C154  C156  A    
C8    O8    A    
C172  C180  A    
C173  C181  A    
C157  C159  A    
C83   C99   A    
C158  C160  A    
C193  H42   S    
C74   C82   A    
C112  O60   S    
C6    C74   S    
C194  H46   S    
C135  O41   A    
C47   C103  A    
C13   O49   S    
O55   C195  S    
C50   C58   A    
C111  O59   S    
C163  C166  A    
C211  H103  S    
C199  H68   S    
C147  C161  A    
C38   C113  A    
C124  O72   S    
C49   C105  A    
C54   C62   A    
C28   C39   A    
C131  H27   S    
C1    C69   S    
C23   C44   A    
C187  H11   S    
C193  H43   S    
C139  O39   A    
C198  H64   S    
C19   C173  A    
C212  H106  S    
C79   C95   A    
C92   C179  S    
C89   O21   A    
O51   C191  S    
C46   C54   A    
C117  O65   S    
C45   C101  A    
C137  O47   A    
C113  O61   S    
C19   C142  A    
O1    Zn1   S    
O40   Zn9   S    
C102  C110  A    
C35   C131  A    
C4    C72   S    
O69   C209  S    
C33   C129  A    
C123  C131  A    
C121  C129  A    
O71   C211  S    
C120  C128  A    
C26   C37   A    
C105  H17   S    
O70   C210  S    
C10   C170  A    
O48   Zn9   S    
O16   Zn3   S    
C33   C41   A    
C108  C116  A    
C149  C151  A    
C209  H97   S    
C102  H14   S    
O37   Zn9   S    
C128  H24   S    
C75   C83   A    
C196  H50   S    
C77   C93   A    
O57   C197  S    
C44   C111  A    
C16   C170  A    
C133  O43   A    
C28   C36   A    
C144  C152  A    
C39   C116  A    
C29   C37   A    
C208  H95   S    
C186  H10   S    
C9    C172  A    
O21   Zn5   S    
C148  C156  A    
C83   C123  A    
C2    C70   S    
C60   C133  S    
C5    O5    A    
C30   C126  A    
C70   C78   A    
C53   C140  S    
O53   C193  S    
C3    C71   S    
O29   Zn2   S    
C211  H105  S    
C110  O58   S    
C141  C149  A    
C210  H100  S    
C200  H70   S    
C14   O50   S    
C46   C102  A    
C55   C138  S    
C152  H5    S    
C106  C114  A    
O52   C192  S    
C155  H2    S    
C77   C117  A    
O10   Zn5   S    
O18   Zn2   S    
O45   Zn9   S    
C48   C104  A    
C5    O29   A    
C159  C168  A    
C15   C169  A    
C160  C167  A    
C58   C66   A    
O63   C203  S    
C206  H89   S    
C116  O64   S    
C57   C136  S    
C140  O40   A    
C50   C106  A    
C80   C96   A    
C145  C153  A    
C28   C100  A    
C32   C40   A    
C52   C108  A    
C62   H54   S    
C16   O52   S    
C8    O32   A    
C5    C73   S    
C212  H107  S    
C26   C34   A    
C143  C157  A    
C205  H86   S    
C51   C99   A    
C88   O20   A    
C11   C173  A    
C14   C172  A    
C126  H22   S    
C87   C184  S    
C88   C183  S    
C7    C75   S    
C86   C181  S    
C20   O56   S    
C3    O27   A    
C198  H65   S    
C107  C115  A    
C1    O25   A    
C26   C98   A    
C12   C175  A    
O31   Zn4   S    
C127  H23   S    
C41   C110  A    
C136  O42   A    
C86   O10   A    
C150  C152  A    
C51   C59   A    
C43   C112  A    
C144  C158  A    
O4    Zn4   S    
C123  O71   S    
O5    Zn5   S    
C207  H91   S    
C47   C55   A    
C200  H72   S    
C61   C69   A    
C48   C56   A    
O54   C194  S    
C122  O70   S    
C142  C160  A    
O12   Zn7   S    
C12   C168  A    
O13   Zn2   S    
C84   C124  A    
C204  H82   S    
C87   O11   A    
O23   Zn7   S    
C191  H35   S    
O24   Zn8   S    
C192  H39   S    
C201  H73   S    
C81   C97   A    
C18   O54   S    
C203  H79   S    
C31   C39   A    
C64   C72   A    
O36   Zn11  S    
C103  H15   S    
C180  C185  A    
O6    Zn6   S    
C34   C130  A    
C134  O44   A    
C91   O23   A    
C47   C95   A    
C118  C126  A    
C13   C148  A    
C89   O13   A    
O61   C201  S    
C122  C130  A    
C137  O37   A    
O14   Zn1   S    
