data_mof_unit_41575.cif
_audit_creation_date              2012-12-11T14:07:44-0500
_audit_creation_method            fapswitch 2.2
_symmetry_space_group_name_H-M    P1
_symmetry_Int_Tables_number       1
_space_group_crystal_system       triclinic
_cell_length_a                    19.722422
_cell_length_b                    17.086648
_cell_length_c                    15.384374
_cell_angle_alpha                 89.924013
_cell_angle_beta                  53.56825
_cell_angle_gamma                 89.9342
_cell_volume                      4171.1669303

loop_
_atom_site_label
_atom_site_type_symbol
_atom_type_description
_atom_site_fract_x
_atom_site_fract_y
_atom_site_fract_z
_atom_type_partial_charge
C1    C     C_R   0.340707 0.175169 0.048696 -0.110564
C2    C     C_R   0.706954 0.849262 0.987601 0.168190
C3    C     C_R   0.210344 0.646844 0.981753 0.167403
C4    C     C_R   0.152143 0.316577 0.071537 0.158809
C5    C     C_R   0.617507 0.819377 0.692771 0.010941
C6    C     C_R   0.617134 0.180800 0.692854 0.016586
C7    C     C_R   0.190416 0.360452 0.678849 0.037943
C8    C     C_R   0.115945 0.682925 0.694031 0.015714
C9    C     C_3   0.254293 0.190072 0.487237 -0.377709
C10   C     C_3   0.213612 0.869245 0.524301 -0.393161
C11   C     C_3   0.710607 0.634446 0.522088 -0.390983
C12   C     C_R   0.374761 0.802733 0.995832 -0.123543
C13   C     C_3   0.710260 0.365801 0.521968 -0.392363
C14   C     C_3   0.204682 0.236134 0.591923 -0.393098
C15   C     C_3   0.158762 0.820330 0.627255 -0.388672
C16   C     C_3   0.659138 0.683060 0.625363 -0.399915
C17   C     C_3   0.658700 0.317142 0.625295 -0.397651
C18   C     C_3   0.388710 0.248402 0.446332 -0.453950
C19   C     C_3   0.308320 0.752563 0.424129 -0.441144
C20   C     C_3   0.813730 0.748103 0.430260 -0.449034
C21   C     C_3   0.813310 0.252015 0.430240 -0.445962
C22   C     C_3   0.691025 0.734857 0.419553 -0.402212
C23   C     C_R   0.874799 0.697006 0.995658 -0.124516
C24   C     C_3   0.690585 0.265668 0.419553 -0.410708
C25   C     C_3   0.315243 0.313365 0.376638 -0.416919
C26   C     C_3   0.180140 0.776889 0.427607 -0.387702
C27   C     C_3   0.337108 0.233486 0.401534 0.362433
C28   C     C_3   0.253032 0.816371 0.422619 0.343590
C29   C     C_3   0.758156 0.689546 0.421607 0.350841
C30   C     C_3   0.757768 0.310761 0.421560 0.352731
C31   C     C_3   0.666042 0.771045 0.596319 0.298986
C32   C     C_3   0.665622 0.229180 0.596336 0.292486
C33   C     C_3   0.248046 0.315793 0.577758 0.299502
C34   C     C_R   0.874506 0.303167 0.996225 -0.124794
C35   C     C_3   0.163194 0.732794 0.597566 0.296463
C36   C     C_3   0.759528 0.798706 0.530604 0.084358
C37   C     C_3   0.759102 0.201412 0.530673 0.082060
C38   C     C_3   0.338203 0.301914 0.547478 0.071476
C39   C     C_3   0.256349 0.703948 0.527336 0.085109
C40   C     C_R   0.350210 0.828121 0.219591 -0.133987
C41   C     C_R   0.395805 0.198428 0.209003 -0.153673
C42   C     C_R   0.853008 0.325095 0.219465 -0.139650
C43   C     C_R   0.853162 0.675136 0.219441 -0.138402
C44   C     C_3   0.633985 0.780856 0.525472 -0.439847
C45   C     C_R   0.665584 0.912031 0.058014 -0.147270
C46   C     C_3   0.633572 0.219533 0.525473 -0.431017
C47   C     C_3   0.259425 0.359747 0.480678 -0.454186
C48   C     C_3   0.127734 0.726071 0.530354 -0.441355
C49   C     C_2   0.283825 0.685618 0.961290 -0.195508
C50   C     C_2   0.193444 0.260136 0.096317 -0.198376
C51   C     C_2   0.778625 0.189946 0.969548 -0.194242
C52   C     C_2   0.780238 0.811070 0.966816 -0.192699
C53   C     C_2   0.808002 0.255090 0.909910 -0.177644
C54   C     C_2   0.809255 0.745590 0.907953 -0.186114
C55   C     C_2   0.310706 0.753080 0.905983 -0.187673
C56   C     C_R   0.664833 0.088434 0.059386 -0.147262
C57   C     C_2   0.213324 0.188657 0.050774 -0.171052
C58   C     C_R   0.365698 0.888678 0.896406 -0.160655
C59   C     C_R   0.329657 0.087401 0.951555 -0.123256
C60   C     C_R   0.864533 0.389643 0.897720 -0.151689
C61   C     C_R   0.865039 0.610707 0.897084 -0.148676
C62   C     C_R   0.404351 0.107163 0.305255 -0.154968
C63   C     C_R   0.359117 0.921532 0.314223 -0.131602
C64   C     C_R   0.866342 0.586909 0.316018 -0.134300
C65   C     C_R   0.866091 0.413243 0.315970 -0.133262
C66   C     C_R   0.288290 0.148848 0.024003 0.147692
C67   C     C_R   0.134421 0.394795 0.104164 -0.155257
C68   C     C_R   0.347321 0.812622 0.933112 0.143527
C69   C     C_R   0.846909 0.686600 0.933559 0.139823
C70   C     C_R   0.846124 0.313856 0.934713 0.138377
C71   C     C_R   0.309502 0.860846 0.322048 0.013680
C72   C     C_R   0.382465 0.183491 0.305842 0.020255
C73   C     C_R   0.815234 0.354696 0.322516 0.018190
C74   C     C_R   0.815532 0.645618 0.322587 0.018246
C75   C     C_R   0.657873 0.180160 0.958251 -0.093229
C76   C     C_R   0.658461 0.820378 0.957222 -0.092771
C77   C     C_R   0.159988 0.677899 0.954881 -0.095767
C78   C     C_R   0.169398 0.582642 0.050614 -0.149816
C79   C     C_R   0.124101 0.300506 0.010441 -0.087736
C80   C     C_R   0.603192 0.802328 0.790082 -0.068718
C81   C     C_R   0.602977 0.197724 0.790076 -0.068563
C82   C     C_R   0.149291 0.328047 0.781576 -0.098646
C83   C     C_R   0.103150 0.698230 0.790689 -0.065587
C84   C     C_R   0.598667 0.103277 0.692759 -0.111086
C85   C     C_R   0.598884 0.896894 0.692666 -0.119113
C86   C     C_R   0.096195 0.605619 0.694245 -0.140975
C87   C     C_R   0.142187 0.423136 0.686511 -0.127262
C88   C     C_R   0.705964 0.151474 0.989417 0.165520
H1    H     H_    0.331875 0.224274 0.098139 0.087262
H2    H     H_    0.591660 0.336356 0.674880 0.167709
H3    H     H_    0.139365 0.245505 0.617147 0.167672
H4    H     H_    0.092402 0.841312 0.675124 0.164721
H5    H     H_    0.199990 0.200426 0.655784 0.176258
H6    H     H_    0.181860 0.829481 0.677032 0.175337
H7    H     H_    0.683921 0.671864 0.672914 0.176331
H8    H     H_    0.683403 0.328240 0.672951 0.175367
H9    H     H_    0.403256 0.191574 0.467113 0.187762
H10   H     H_    0.362399 0.780481 0.416897 0.195619
H11   H     H_    0.861293 0.715424 0.432895 0.194793
H12   H     H_    0.383240 0.748008 0.023453 0.079785
H13   H     H_    0.860968 0.284539 0.432729 0.194855
H14   H     H_    0.721256 0.776878 0.351013 0.149714
H15   H     H_    0.720764 0.223749 0.350988 0.150199
H16   H     H_    0.373901 0.346862 0.318021 0.158192
H17   H     H_    0.204783 0.739209 0.355773 0.148508
H18   H     H_    0.652520 0.693569 0.409549 0.175843
H19   H     H_    0.652051 0.307114 0.409626 0.173882
H20   H     H_    0.280676 0.305321 0.340577 0.159220
H21   H     H_    0.139288 0.822270 0.428357 0.179092
H22   H     H_    0.567905 0.759610 0.570340 0.193145
H23   H     H_    0.883823 0.751777 0.022420 0.080661
H24   H     H_    0.567449 0.240775 0.570323 0.207220
H25   H     H_    0.197336 0.367777 0.495336 0.172157
H26   H     H_    0.060607 0.744903 0.579819 0.192193
H27   H     H_    0.634601 0.843080 0.504240 0.149494
H28   H     H_    0.634269 0.157322 0.504228 0.149867
H29   H     H_    0.287775 0.418557 0.469805 0.161066
H30   H     H_    0.130270 0.664609 0.505155 0.149617
H31   H     H_    0.449959 0.276518 0.383356 0.152084
H32   H     H_    0.335524 0.712832 0.353398 0.143659
H33   H     H_    0.849224 0.786680 0.357713 0.149940
H34   H     H_    0.883529 0.248332 0.023042 0.082323
H35   H     H_    0.848730 0.213442 0.357743 0.149784
H36   H     H_    0.332315 0.776070 0.198211 0.089346
H37   H     H_    0.395514 0.254636 0.176960 0.086622
H38   H     H_    0.835417 0.273716 0.196586 0.089574
H39   H     H_    0.835591 0.726558 0.196423 0.090012
H40   H     H_    0.763390 0.860331 0.504313 0.112834
H41   H     H_    0.762962 0.139781 0.504492 0.112120
H42   H     H_    0.370656 0.359501 0.526995 0.123263
H43   H     H_    0.258277 0.641779 0.504254 0.102999
H44   H     H_    0.303851 0.666581 0.010019 0.118943
H45   H     H_    0.215402 0.182177 0.457187 0.167610
H46   H     H_    0.219891 0.282834 0.135935 0.121555
H47   H     H_    0.797050 0.171982 0.020367 0.117537
H48   H     H_    0.799210 0.829306 0.016898 0.117602
H49   H     H_    0.791395 0.271967 0.856810 0.149987
H50   H     H_    0.792267 0.728499 0.855372 0.150915
H51   H     H_    0.293113 0.770956 0.854253 0.151043
H52   H     H_    0.185052 0.164861 0.014056 0.128125
H53   H     H_    0.362032 0.914206 0.834918 0.103525
H54   H     H_    0.308321 0.053648 0.912611 0.105296
H55   H     H_    0.859803 0.415710 0.837373 0.101250
H56   H     H_    0.175460 0.916787 0.523315 0.163020
H57   H     H_    0.860654 0.584804 0.836446 0.099793
H58   H     H_    0.409563 0.078624 0.363834 0.092130
H59   H     H_    0.350041 0.957978 0.377375 0.093760
H60   H     H_    0.866318 0.561671 0.379975 0.086575
H61   H     H_    0.865919 0.438435 0.379976 0.086396
H62   H     H_    0.667692 0.231204 0.910713 0.099884
H63   H     H_    0.668566 0.769585 0.909298 0.101391
H64   H     H_    0.170239 0.729036 0.907318 0.102129
H65   H     H_    0.117404 0.244433 0.984101 0.082476
H66   H     H_    0.605037 0.746030 0.820605 0.081882
H67   H     H_    0.668462 0.594220 0.517525 0.163218
H68   H     H_    0.604903 0.253959 0.820503 0.082855
H69   H     H_    0.165168 0.275593 0.804836 0.129255
H70   H     H_    0.104838 0.754101 0.822047 0.080459
H71   H     H_    0.597836 0.071503 0.632800 0.082573
H72   H     H_    0.598035 0.928755 0.632687 0.081521
H73   H     H_    0.091453 0.576400 0.635863 0.081911
H74   H     H_    0.153318 0.460506 0.622831 0.095078
H75   H     H_    0.682791 0.938574 0.105800 0.088059
H76   H     H_    0.681483 0.062077 0.107963 0.087070
H77   H     H_    0.139299 0.421614 0.163880 0.090469
H78   H     H_    0.668188 0.406204 0.517310 0.163458
H79   H     H_    0.190699 0.548832 0.089573 0.097036
H80   H     H_    0.267144 0.130716 0.504351 0.155024
H81   H     H_    0.263237 0.896811 0.527107 0.162224
H82   H     H_    0.753800 0.597591 0.528312 0.152147
H83   H     H_    0.753482 0.402479 0.528208 0.152161
H84   H     H_    0.592116 0.663916 0.675066 0.163539
I1    I     I_    0.814650 0.800591 0.617828 -0.503925
I2    I     I_    0.814219 0.199333 0.617944 -0.492253
I3    I     I_    0.346044 0.254981 0.671847 -0.542027
I4    I     I_    0.316782 0.703975 0.607898 -0.520718
N1    N     N_R   0.408680 0.130160 0.995800 -0.050851
N2    N     N_R   0.403730 0.078230 0.935950 -0.046634
N3    N     N_R   0.903730 0.421770 0.935950 -0.041889
N4    N     N_R   0.903730 0.578230 0.935950 -0.041416
N5    N     N_R   0.426630 0.075970 0.212960 -0.032415
N6    N     N_R   0.426630 0.924030 0.212960 -0.039247
N7    N     N_R   0.926630 0.575970 0.212960 -0.036170
N8    N     N_R   0.926630 0.424030 0.212960 -0.035676
N9    N     N_R   0.591320 0.134600 0.004200 -0.050586
N10   N     N_R   0.591320 0.865400 0.004200 -0.053441
N11   N     N_R   0.091320 0.634600 0.004200 -0.053789
N12   N     N_R   0.408680 0.869840 0.995800 -0.044059
N13   N     N_R   0.091320 0.365400 0.004200 -0.046382
N14   N     N_R   0.578320 0.867660 0.846880 -0.033929
N15   N     N_R   0.578320 0.132340 0.846880 -0.035414
N16   N     N_R   0.078320 0.367660 0.846880 -0.047143
N17   N     N_R   0.078320 0.632340 0.846880 -0.033964
N18   N     N_R   0.573370 0.074390 0.787040 -0.031427
N19   N     N_R   0.573370 0.925610 0.787040 -0.029641
N20   N     N_R   0.073370 0.574390 0.787040 -0.028825
N21   N     N_R   0.073370 0.425610 0.787040 -0.040419
N22   N     N_R   0.596270 0.927870 0.064040 -0.041335
N23   N     N_R   0.908680 0.630160 0.995800 -0.044244
N24   N     N_R   0.596270 0.072130 0.064040 -0.038739
N25   N     N_R   0.096270 0.427870 0.064040 -0.037643
N26   N     N_R   0.096270 0.572130 0.064040 -0.043394
N27   N     N_R   0.908680 0.369840 0.995800 -0.043826
N28   N     N_R   0.421680 0.867580 0.153120 -0.041289
N29   N     N_R   0.421680 0.132420 0.153120 -0.035542
N30   N     N_R   0.921680 0.367580 0.153120 -0.039276
N31   N     N_R   0.921680 0.632420 0.153120 -0.039443
N32   N     N_R   0.403730 0.921770 0.935950 -0.042991
Ni1   Ni    Ni4+2 0.500000 0.131190 0.000000 0.213607
Ni2   Ni    Ni4+2 0.500000 0.868810 0.000000 0.210648
Ni3   Ni    Ni4+2 0.000000 0.631190 0.000000 0.211277
Ni4   Ni    Ni4+2 0.000000 0.368810 0.000000 0.209817
Ni5   Ni    Ni4+2 0.488650 0.000000 0.862740 0.224803
Ni6   Ni    Ni4+2 0.988650 0.500000 0.862740 0.214801
Ni7   Ni    Ni4+2 0.511350 0.000000 0.137260 0.216528
Ni8   Ni    Ni4+2 0.011350 0.500000 0.137260 0.216064

loop_
_geom_bond_atom_site_label_1
_geom_bond_atom_site_label_2
_ccdc_geom_bond_type
C6    C32   S    
C21   H35   S    
N32   Ni5   S    
C40   C71   A    
C46   H24   S    
C8    C83   A    
N7    N31   A    
C23   C69   A    
C13   H83   S    
N5    N29   A    
C57   C66   S    
N18   Ni5   S    
C55   C68   S    
C3    C49   S    
C55   H51   S    
C75   N9    A    
C16   C31   S    
C12   C68   A    
N11   N26   A    
C20   H11   S    
C78   H79   S    
C81   H68   S    
C65   H61   S    
C13   H78   S    
N6    N28   A    
C38   H42   S    
C22   C29   S    
C10   C15   S    
C59   C66   A    
C47   H25   S    
N17   Ni3   S    
C53   C70   S    
C75   H62   S    
C61   C69   A    
C12   N12   A    
C23   N23   A    
N24   Ni7   S    
N8    N30   A    
C77   H64   S    
N16   N21   A    
N1    Ni1   S    
C46   H28   S    
C15   C35   S    
C61   H57   S    
C81   N15   A    
C5    C31   S    
C86   N20   A    
C37   I2    S    
C64   N7    A    
C51   H47   S    
C19   H10   S    
N16   Ni4   S    
C40   N28   A    
C44   H27   S    
C35   C48   S    
C42   C73   A    
C56   C88   A    
C25   H20   S    
C1    H1    S    
C85   H72   S    
N29   Ni1   S    
C34   C70   A    
C14   H5    S    
C8    C86   A    
C11   H67   S    
N9    Ni1   S    
C21   H13   S    
C67   H77   S    
C43   C74   A    
C15   H4    S    
C36   I1    S    
C34   H34   S    
C63   N6    A    
C64   H60   S    
N26   Ni8   S    
N31   Ni3   S    
C7    C33   S    
C36   H40   S    
N12   Ni2   S    
C15   H6    S    
N22   Ni7   S    
C26   H17   S    
C63   H59   S    
C17   H8    S    
C84   H71   S    
C52   C54   D    
C20   C29   S    
C59   N2    A    
C2    C45   A    
C40   H36   S    
C49   H44   S    
C7    C87   A    
C6    C84   A    
C31   C44   S    
C17   H2    S    
C43   N31   A    
N21   Ni6   S    
C41   H37   S    
C13   C30   S    
C59   H54   S    
C4    C79   A    
C50   H46   S    
C65   C73   A    
C84   N18   A    
C86   H73   S    
C82   H69   S    
C85   N19   A    
C76   N10   A    
C48   H30   S    
C29   C74   S    
C76   H63   S    
N13   N25   A    
C45   N22   A    
C49   C55   D    
C83   H70   S    
C11   H82   S    
C57   H52   S    
C4    C50   S    
C10   H81   S    
C8    C35   S    
C83   N17   A    
C35   C39   S    
C9    C14   S    
N25   Ni8   S    
C14   C33   S    
C67   N25   A    
C79   H65   S    
N20   Ni6   S    
C11   C16   S    
C16   H84   S    
C18   C38   S    
C60   C70   A    
C34   N27   A    
N17   N20   A    
C7    C82   A    
C1    C66   A    
C62   C72   A    
N5    Ni7   S    
C24   H19   S    
C10   H56   S    
C32   C37   S    
C5    C80   A    
C19   C28   S    
C26   H21   S    
C20   H33   S    
C63   C71   A    
C2    C52   S    
N14   N19   A    
N15   Ni1   S    
C41   C72   A    
C58   C68   A    
C18   H9    S    
N11   Ni3   S    
C19   H32   S    
N10   Ni2   S    
C79   N13   A    
N6    Ni7   S    
C77   N11   A    
C53   H49   S    
N27   Ni4   S    
C28   C71   S    
C87   N21   A    
C43   H39   S    
C3    C77   A    
C60   N3    A    
C2    C76   A    
C9    C27   S    
C48   H26   S    
C80   N14   A    
C10   C28   S    
N7    Ni8   S    
C30   C73   S    
C25   C47   S    
N12   N32   A    
C16   H7    S    
C22   C44   S    
N2    Ni5   S    
C82   N16   A    
C45   H75   S    
C50   C57   D    
C32   C46   S    
C9    H80   S    
C18   C27   S    
C78   N26   A    
N3    N27   A    
C39   I4    S    
N13   Ni4   S    
C51   C88   S    
C4    C67   A    
C25   H16   S    
C80   H66   S    
C26   C48   S    
C25   C27   S    
C23   H23   S    
C21   C30   S    
C56   H76   S    
C26   C28   S    
C33   C38   S    
C22   H14   S    
C13   C17   S    
C24   H15   S    
C24   C46   S    
N4    Ni6   S    
N14   Ni2   S    
N15   N18   A    
C58   N32   A    
C60   H55   S    
N4    N23   A    
C22   H18   S    
C62   N5    A    
C58   H53   S    
C38   I3    S    
C54   H50   S    
C54   C69   S    
C39   H43   S    
C52   H48   S    
N3    Ni6   S    
C33   C47   S    
C37   H41   S    
C42   N30   A    
N23   Ni3   S    
N9    N24   A    
C41   N29   A    
C24   C30   S    
C14   H3    S    
C12   H12   S    
N8    Ni8   S    
C42   H38   S    
C20   C36   S    
N30   Ni4   S    
C75   C88   A    
C47   H29   S    
C87   H74   S    
C21   C37   S    
C11   C29   S    
C61   N4    A    
C19   C39   S    
N1    N2    A    
C62   H58   S    
N28   Ni2   S    
C6    C81   A    
C17   C32   S    
C64   C74   A    
C31   C36   S    
N10   N22   A    
C51   C53   D    
C3    C78   A    
C1    N1    A    
C18   H31   S    
C5    C85   A    
C27   C72   S    
N19   Ni5   S    
C9    H45   S    
C56   N24   A    
C65   N8    A    
C44   H22   S    
