data_mof_unit_47055.cif
_audit_creation_date              2012-12-10T17:19:53-0500
_audit_creation_method            fapswitch 2.2
_symmetry_space_group_name_H-M    P1
_symmetry_Int_Tables_number       1
_space_group_crystal_system       triclinic
_cell_length_a                    9.61433
_cell_length_b                    10.787591
_cell_length_c                    15.448001
_cell_angle_alpha                 87.876712
_cell_angle_beta                  74.105167
_cell_angle_gamma                 90.188058
_cell_volume                      1539.72985549

loop_
_atom_site_label
_atom_site_type_symbol
_atom_type_description
_atom_site_fract_x
_atom_site_fract_y
_atom_site_fract_z
_atom_type_partial_charge
C1    C     C_R   0.998389 0.262646 0.503298 0.789881
C2    C     C_R   0.668967 0.531320 0.904196 0.082174
C3    C     C_R   0.760631 0.594678 0.947435 0.075847
C4    C     C_R   0.519063 0.510771 0.949307 0.072399
C5    C     C_R   0.464695 0.545796 0.039976 0.064967
C6    C     C_R   0.554425 0.616947 0.077914 -0.231572
C7    C     C_R   0.697545 0.642380 0.032293 -0.190384
C8    C     C_R   0.420671 0.458717 0.906508 -0.209775
C9    C     C_R   0.277352 0.433961 0.953027 -0.211428
C10   C     C_R   0.227096 0.456979 0.044225 0.170523
C11   C     C_R   0.320529 0.512065 0.089016 0.091925
C12   C     C_R   0.918119 0.502128 0.672063 0.786514
C13   C     C_R   0.084137 0.424704 0.091356 -0.126182
C14   C     C_R   0.033606 0.443740 0.183294 -0.156848
C15   C     C_R   0.268487 0.526080 0.182469 -0.249492
C16   C     C_R   0.092665 0.122498 0.642599 -0.186790
C17   C     C_R   0.143168 0.054772 0.706038 -0.148480
C18   C     C_R   0.145821 0.926048 0.705086 -0.123388
C19   C     C_R   0.097004 0.864089 0.641192 -0.168032
C20   C     C_R   0.048382 0.930843 0.574709 0.097845
C21   C     C_R   0.046929 0.062004 0.575182 0.100333
C22   C     C_R   0.994998 0.128516 0.509963 -0.102877
C23   C     C_R   0.998888 0.737096 0.503090 0.770481
C24   C     C_R   0.938665 0.066498 0.449146 -0.193828
C25   C     C_R   0.939226 0.938624 0.448993 -0.202400
C26   C     C_R   0.996480 0.870628 0.509491 -0.091350
C27   C     C_R   0.698013 0.662774 0.379693 -0.137125
C28   C     C_R   0.652283 0.743844 0.321586 -0.199178
C29   C     C_R   0.508548 0.745981 0.322718 -0.227096
C30   C     C_R   0.409860 0.666259 0.381329 -0.143623
C31   C     C_R   0.451555 0.581232 0.441495 0.216557
C32   C     C_R   0.601187 0.580394 0.441085 0.205931
C33   C     C_R   0.548849 0.423418 0.556075 -0.054972
C34   C     C_R   0.081820 0.498783 0.327956 0.778292
C35   C     C_R   0.401133 0.423320 0.555958 -0.058872
C36   C     C_R   0.872098 0.519779 0.769582 -0.078860
C37   C     C_R   0.126821 0.491818 0.229571 -0.053443
C38   C     C_R   0.911047 0.612850 0.902460 -0.023315
C39   C     C_R   0.963168 0.576661 0.813107 -0.264091
C40   C     C_R   0.729595 0.491540 0.816516 -0.229334
Cu1   Cu    Cu3+1 0.140660 0.499990 0.500010 0.927871
Cu2   Cu    Cu3+1 0.859340 0.500010 0.499990 0.935941
H1    H     H_    0.755236 0.703094 0.064637 0.193707
H2    H     H_    0.011654 0.384105 0.057081 0.129209
H3    H     H_    0.897264 0.117595 0.399968 0.152786
H4    H     H_    0.087454 0.221981 0.648389 0.139224
H5    H     H_    0.178663 0.102340 0.756877 0.134437
H6    H     H_    0.184208 0.873938 0.754815 0.188535
H7    H     H_    0.095834 0.763980 0.645814 0.158030
H8    H     H_    0.897992 0.892483 0.399775 0.141831
H9    H     H_    0.583315 0.360557 0.602112 0.133886
H10   H     H_    0.810366 0.669029 0.373575 0.194457
H11   H     H_    0.729193 0.805760 0.275488 0.153359
H12   H     H_    0.338208 0.558608 0.221005 0.149947
H13   H     H_    0.472972 0.809674 0.277535 0.149702
H14   H     H_    0.302746 0.675638 0.375996 0.196513
H15   H     H_    0.325629 0.360422 0.601894 0.130905
H16   H     H_    0.923653 0.416381 0.218725 0.151885
H17   H     H_    0.205941 0.394259 0.917575 0.138694
H18   H     H_    0.075005 0.594869 0.776259 0.191653
H19   H     H_    0.667852 0.439543 0.781503 0.141080
H20   H     H_    0.515034 0.659231 0.141996 0.148006
H21   H     H_    0.449125 0.438138 0.836266 0.140814
N1    N     N_R   0.648320 0.501210 0.499140 -0.198968
N2    N     N_R   0.352470 0.501290 0.499110 -0.198138
O1    O     O_R   0.118810 0.319640 0.500010 -0.574467
O2    O     O_R   0.881240 0.319660 0.500000 -0.576121
O3    O     O_R   0.055570 0.499980 0.629840 -0.595966
O4    O     O_R   0.818000 0.500010 0.629830 -0.573613
O5    O     O_R   0.118760 0.680340 0.500000 -0.603856
O6    O     O_R   0.881190 0.680360 0.499990 -0.586148
O7    O     O_R   0.182000 0.499990 0.370170 -0.592558
O8    O     O_R   0.944430 0.500020 0.370160 -0.599915
C41   C     C_2   0.018948 0.667983 0.944354 0.811339
O9    O     O_2   0.997888 0.666751 0.025998 -0.619748
O10   O     O_R   0.150047 0.716111 0.889365 -0.794043
H22   H     H_    0.216165 0.747592 0.925081 0.338800

loop_
_geom_bond_atom_site_label_1
_geom_bond_atom_site_label_2
_ccdc_geom_bond_type
C12   O4    A    
C16   C21   A    
Cu2   N1    S    
C34   C37   S    
Cu1   Cu2   S    
C19   C20   A    
C4    C8    A    
C12   O3    A    
C41   O10   S    
C24   H3    S    
C28   C29   A    
C5    C11   A    
C3    C7    A    
C38   C39   A    
C35   N2    A    
C18   C19   A    
C23   C26   S    
C25   H8    S    
C15   C37   A    
C1    O2    A    
C11   C15   A    
C3    C38   A    
C8    C9    A    
C7    H1    S    
C12   C36   S    
C9    C10   A    
C1    C22   S    
C21   C22   A    
C23   O5    A    
C17   C18   A    
Cu1   O3    S    
C14   H16   S    
C41   O9    D    
C15   H12   S    
C23   O6    A    
C36   C40   A    
O10   H22   S    
C32   N1    A    
C16   H4    S    
C16   C17   A    
Cu1   N2    S    
C34   O8    A    
C25   C26   A    
C30   H14   S    
Cu2   O4    S    
C40   H19   S    
C9    H17   S    
C2    C4    A    
C29   C30   A    
C19   H7    S    
C31   C32   A    
C30   C31   A    
C1    O1    A    
C24   C25   A    
Cu1   O1    S    
Cu1   O7    S    
Cu2   O2    S    
C22   C24   A    
C34   O7    A    
C27   H10   S    
C38   C41   S    
C31   N2    A    
Cu2   O8    S    
C27   C32   A    
C36   C39   A    
C17   H5    S    
C4    C5    A    
C10   C13   A    
C18   H6    S    
C28   H11   S    
C6    C7    A    
C33   H9    S    
C29   H13   S    
C35   H15   S    
C6    H20   S    
C2    C3    A    
C14   C37   A    
C5    C6    A    
C20   C26   A    
C33   N1    A    
C39   H18   S    
Cu2   O6    S    
C33   C35   A    
C10   C11   A    
C8    H21   S    
C2    C40   A    
C20   C21   A    
C27   C28   A    
C13   C14   A    
C13   H2    S    
Cu1   O5    S    
