data_mof_unit_54802.cif
_audit_creation_date              2012-12-10T20:30:10-0500
_audit_creation_method            fapswitch 2.2
_symmetry_space_group_name_H-M    P1
_symmetry_Int_Tables_number       1
_space_group_crystal_system       triclinic
_cell_length_a                    9.866079
_cell_length_b                    10.68454
_cell_length_c                    13.104387
_cell_angle_alpha                 90.123703
_cell_angle_beta                  69.926006
_cell_angle_gamma                 89.754452
_cell_volume                      1297.45159563

loop_
_atom_site_label
_atom_site_type_symbol
_atom_type_description
_atom_site_fract_x
_atom_site_fract_y
_atom_site_fract_z
_atom_type_partial_charge
C1    C     C_R   0.501121 0.740100 0.497065 0.882989
C2    C     C_R   0.432915 0.463588 0.984178 0.094089
C3    C     C_R   0.463234 0.433256 0.874415 0.018012
C4    C     C_R   0.544367 0.450044 0.028021 0.024885
C5    C     C_R   0.674048 0.384210 0.970058 0.023505
C6    C     C_R   0.692181 0.335343 0.866024 0.380233
C7    C     C_R   0.586989 0.360658 0.819710 -0.321949
C8    C     C_R   0.530603 0.504278 0.127641 -0.220583
C9    C     C_R   0.756156 0.413070 0.123985 -0.239975
C10   C     C_R   0.368835 0.477522 0.822032 -0.085675
C11   C     C_R   0.386687 0.936983 0.478998 0.124285
C12   C     C_R   0.420186 0.492048 0.704116 0.860144
C13   C     C_R   0.508353 0.871531 0.480400 -0.099439
C14   C     C_R   0.639167 0.934681 0.461382 -0.219109
C15   C     C_R   0.639536 0.064060 0.461384 -0.213386
C16   C     C_R   0.509108 0.128603 0.480352 -0.102982
C17   C     C_R   0.387099 0.064660 0.479121 0.092044
C18   C     C_3   0.234486 0.073308 0.554971 -0.356132
C19   C     C_3   0.233883 0.931507 0.554792 -0.492896
C20   C     C_R   0.885749 0.517523 0.594302 0.315704
C21   C     C_R   0.969641 0.470778 0.408677 -0.142113
C22   C     C_R   0.113438 0.470498 0.408717 -0.138486
C23   C     C_R   0.501655 0.259984 0.496967 0.873714
C24   C     C_R   0.028073 0.517325 0.594393 0.337941
C25   C     C_3   0.999311 0.628727 0.667524 -0.543596
C26   C     C_3   0.845655 0.629029 0.667042 -0.517541
C27   C     C_R   0.580205 0.498850 0.295554 0.866524
C28   C     C_R   0.779988 0.368226 0.019225 -0.108757
C29   C     C_R   0.629094 0.478570 0.178892 -0.048899
C30   C     C_R   0.231301 0.522408 0.883738 -0.151168
C31   C     C_R   0.191436 0.532100 0.995804 -0.151580
C32   C     C_R   0.292078 0.506464 0.045812 -0.172825
H1    H     H_    0.833571 0.391879 0.163514 0.152453
H2    H     H_    0.738718 0.112415 0.454085 0.186244
H3    H     H_    0.161619 0.115004 0.515506 0.227402
H4    H     H_    0.223858 0.890362 0.634944 0.210083
H5    H     H_    0.160782 0.891656 0.514884 0.204574
H6    H     H_    0.949296 0.449234 0.334565 0.144538
H7    H     H_    0.200586 0.448052 0.334460 0.155419
H8    H     H_    0.005368 0.605970 0.748396 0.219252
H9    H     H_    0.062281 0.711640 0.627599 0.208912
H10   H     H_    0.764401 0.606272 0.747497 0.221947
H11   H     H_    0.879135 0.317456 0.979790 0.213968
H12   H     H_    0.440326 0.564573 0.169252 0.143935
H13   H     H_    0.156206 0.553233 0.845220 0.156402
H14   H     H_    0.255819 0.517538 0.132950 0.119064
H15   H     H_    0.084390 0.564970 0.043572 0.146633
H16   H     H_    0.600781 0.320773 0.740946 0.206483
H17   H     H_    0.738231 0.885282 0.454025 0.172692
N1    N     N_R   0.856940 0.500860 0.500710 -0.115264
N2    N     N_R   0.142580 0.500820 0.500710 -0.118863
O1    O     O_R   0.385310 0.683210 0.499990 -0.616507
O2    O     O_R   0.614650 0.683240 0.500000 -0.621666
O3    O     O_R   0.328390 0.499940 0.653610 -0.597138
O4    O     O_R   0.557730 0.499980 0.653620 -0.613494
O5    O     O_R   0.385350 0.316760 0.500000 -0.600552
O6    O     O_R   0.614690 0.316790 0.500010 -0.613739
O7    O     O_R   0.442270 0.500020 0.346380 -0.625555
O8    O     O_R   0.671610 0.500060 0.346390 -0.622709
Zn1   Zn    Zn3+2 0.346870 0.499980 0.499990 0.967018
Zn2   Zn    Zn3+2 0.653130 0.500020 0.500010 0.952453
H18   H     H_    0.224995 0.114624 0.635149 0.235352
S1    S     S_3+6 0.844969 0.244511 0.790238 -0.024946
O9    O     O_2   0.980211 0.318169 0.773717 -0.327346
O10   O     O_2   0.850872 0.127572 0.852203 -0.314542
O11   O     O_3   0.838048 0.204952 0.667714 -0.570068
H19   H     H_    0.769913 0.133945 0.681693 0.356174
H20   H     H_    0.819312 0.712195 0.626338 0.214413

loop_
_geom_bond_atom_site_label_1
_geom_bond_atom_site_label_2
_ccdc_geom_bond_type
C6    S1    S    
C2    C4    A    
S1    O10   D    
C15   H2    S    
O6    Zn2   S    
C6    C7    A    
C27   C29   S    
C5    C28   A    
O1    Zn1   S    
C18   H3    S    
C10   C30   A    
C30   H13   S    
C31   C32   A    
C27   O8    A    
C9    C29   A    
C4    C8    A    
C26   H20   S    
C7    H16   S    
C24   N2    A    
C17   C18   S    
S1    O11   S    
C23   O5    A    
C3    C10   A    
O3    Zn1   S    
C13   C14   A    
C9    H1    S    
C11   C13   A    
C11   C19   S    
C30   C31   A    
C10   C12   S    
C28   H11   S    
C22   H7    S    
O4    Zn2   S    
C21   N1    A    
C31   H15   S    
C2    C3    A    
C16   C23   S    
C3    C7    A    
C19   H4    S    
C25   H8    S    
C5    C6    A    
C1    O1    A    
O8    Zn2   S    
C12   O4    A    
C1    C13   S    
C32   H14   S    
C8    C29   A    
S1    O9    D    
O7    Zn1   S    
C15   C16   A    
C14   H17   S    
C16   C17   A    
O5    Zn1   S    
C21   H6    S    
O11   H19   S    
C24   C25   S    
C26   H10   S    
C2    C32   A    
C18   C19   S    
C25   H9    S    
C23   O6    A    
N1    Zn2   S    
C1    O2    A    
C14   C15   A    
C4    C5    A    
C20   N1    A    
N2    Zn1   S    
C19   H5    S    
C25   C26   S    
C21   C22   A    
O2    Zn2   S    
C27   O7    A    
C12   O3    A    
C18   H18   S    
C20   C24   A    
C9    C28   A    
C22   N2    A    
C20   C26   S    
C8    H12   S    
C11   C17   A    
