data_mof_unit_33844.cif
_audit_creation_date              2012-12-10T19:44:37-0500
_audit_creation_method            fapswitch 2.2
_symmetry_space_group_name_H-M    P1
_symmetry_Int_Tables_number       1
_space_group_crystal_system       triclinic
_cell_length_a                    8.59141
_cell_length_b                    15.010477
_cell_length_c                    14.170188
_cell_angle_alpha                 89.955646
_cell_angle_beta                  98.537794
_cell_angle_gamma                 89.973791
_cell_volume                      1807.15205055

loop_
_atom_site_label
_atom_site_type_symbol
_atom_type_description
_atom_site_fract_x
_atom_site_fract_y
_atom_site_fract_z
_atom_type_partial_charge
C1    C     C_R   0.499915 0.327770 0.500037 0.865498
C2    C     C_R   0.499964 0.672235 0.499977 0.863119
C3    C     C_R   0.365851 0.483764 0.091659 -0.237592
C4    C     C_R   0.543169 0.573065 0.900336 -0.233032
C5    C     C_R   0.365182 0.484809 0.190819 0.026568
C6    C     C_R   0.542074 0.573882 0.801054 0.032136
C7    C     C_R   0.637884 0.514610 0.218016 -0.040333
C8    C     C_R   0.457755 0.424067 0.790113 -0.031540
C9    C     C_R   0.646580 0.511960 0.119103 -0.083513
C10   C     C_R   0.460440 0.418613 0.890090 -0.087510
C11   C     C_R   0.506749 0.496575 0.053829 0.081311
C12   C     C_R   0.503670 0.495253 0.946983 0.085698
C13   C     C_R   0.201060 0.499877 0.475118 0.978842
C14   C     C_R   0.798972 0.499949 0.524888 0.976337
C15   C     C_2   0.036135 0.499556 0.461664 -0.376835
C16   C     C_2   0.963966 0.499933 0.538378 -0.378648
C17   C     C_R   0.443201 0.094172 0.574252 -0.165238
C18   C     C_R   0.443468 0.905958 0.415814 -0.172355
C19   C     C_R   0.444622 0.186142 0.574601 -0.177684
C20   C     C_R   0.444979 0.813989 0.415606 -0.182546
C21   C     C_R   0.499486 0.232008 0.500102 -0.034358
C22   C     C_R   0.499537 0.768008 0.499960 -0.023848
C23   C     C_R   0.553767 0.185986 0.425580 -0.175660
C24   C     C_R   0.553348 0.813926 0.584386 -0.190855
C25   C     C_R   0.554061 0.094027 0.425848 -0.169587
C26   C     C_R   0.553545 0.905891 0.584294 -0.171006
C27   C     C_R   0.498351 0.048111 0.500023 0.105291
C28   C     C_R   0.498251 0.951914 0.500073 0.112522
H1    H     H_    0.974661 0.498986 0.388846 0.185713
H2    H     H_    0.025635 0.500363 0.611228 0.189988
H3    H     H_    0.397915 0.059035 0.631215 0.141327
H4    H     H_    0.398459 0.941181 0.350688 0.139490
H5    H     H_    0.401004 0.221243 0.632139 0.167049
H6    H     H_    0.401698 0.778963 0.350130 0.161023
H7    H     H_    0.597787 0.220970 0.368065 0.167883
H8    H     H_    0.597098 0.778868 0.649835 0.146979
H9    H     H_    0.599075 0.058779 0.368899 0.141016
H10   H     H_    0.598230 0.941057 0.649438 0.137665
H11   H     H_    0.256541 0.472310 0.044416 0.159662
H12   H     H_    0.576063 0.633003 0.940941 0.139324
H13   H     H_    0.256075 0.473343 0.218302 0.148826
H14   H     H_    0.575233 0.633950 0.766916 0.123538
H15   H     H_    0.743322 0.526589 0.267981 0.170681
H16   H     H_    0.424956 0.366376 0.746061 0.170001
N1    N     N_R   0.500000 0.499980 0.252470 -0.105584
N2    N     N_R   0.500000 0.500020 0.747530 -0.104660
O1    O     O_R   0.500010 0.369070 0.579480 -0.634702
O2    O     O_R   0.499990 0.630930 0.420520 -0.618254
O3    O     O_R   0.500010 0.369060 0.420520 -0.614548
O4    O     O_R   0.499990 0.630940 0.579480 -0.636512
O5    O     O_R   0.271750 0.500000 0.560890 -0.613519
O6    O     O_R   0.728250 0.500000 0.439110 -0.629306
O7    O     O_R   0.271750 0.499990 0.401930 -0.629283
O8    O     O_R   0.728250 0.500010 0.598070 -0.611888
Zn1   Zn    Zn3+2 0.500000 0.500010 0.606140 0.958338
Zn2   Zn    Zn3+2 0.500000 0.499990 0.393860 0.959932
C29   C     C_2   0.803767 0.522369 0.088219 0.882499
O9    O     O_2   0.830098 0.490864 0.012620 -0.611416
O10   O     O_R   0.924152 0.566477 0.147495 -0.834401
H17   H     H_    0.025663 0.569268 0.119142 0.336861
C30   C     C_2   0.423271 0.331402 0.931455 0.902230
O11   O     O_2   0.473634 0.312975 0.014443 -0.607457
O12   O     O_R   0.333536 0.268710 0.874059 -0.824029
H18   H     H_    0.317160 0.211645 0.909629 0.350352

loop_
_geom_bond_atom_site_label_1
_geom_bond_atom_site_label_2
_ccdc_geom_bond_type
N2    Zn1   S    
C2    C22   S    
C11   C12   S    
C8    C10   A    
C14   O6    A    
C1    C21   S    
C14   C16   S    
C7    H15   S    
C25   C27   A    
O3    Zn2   S    
C6    N2    A    
C9    C29   S    
O4    Zn1   S    
C3    C11   A    
C3    C5    A    
C4    H12   S    
C20   H6    S    
C13   C15   S    
C3    H11   S    
O10   H17   S    
O5    Zn1   S    
C9    C11   A    
C29   O9    D    
C24   H8    S    
C18   H4    S    
C10   C12   A    
C7    N1    A    
O1    Zn1   S    
C26   C28   A    
C14   O8    A    
C24   C26   A    
C15   H1    S    
C25   H9    S    
C13   O7    A    
C21   C23   A    
C19   H5    S    
C30   O11   D    
C17   H3    S    
C23   H7    S    
C22   C24   A    
C29   O10   S    
C10   C30   S    
C4    C12   A    
C16   H2    S    
C15   C16   D    
C17   C27   A    
C17   C19   A    
C7    C9    A    
C23   C25   A    
C18   C28   A    
C18   C20   A    
C4    C6    A    
C6    H14   S    
O7    Zn2   S    
C27   C28   S    
O2    Zn2   S    
C5    H13   S    
O8    Zn1   S    
C26   H10   S    
C2    O4    A    
C8    N2    A    
C2    O2    A    
C13   O5    A    
O6    Zn2   S    
C5    N1    A    
C30   O12   S    
C1    O1    A    
C8    H16   S    
N1    Zn2   S    
C20   C22   A    
O12   H18   S    
C19   C21   A    
C1    O3    A    
