data_mof_unit_56099.cif
_audit_creation_date              2012-12-10T18:16:23-0500
_audit_creation_method            fapswitch 2.2
_symmetry_space_group_name_H-M    P1
_symmetry_Int_Tables_number       1
_space_group_crystal_system       triclinic
_cell_length_a                    12.59922
_cell_length_b                    13.083733
_cell_length_c                    27.640496
_cell_angle_alpha                 91.076521
_cell_angle_beta                  102.832841
_cell_angle_gamma                 82.178419
_cell_volume                      4400.94472707

loop_
_atom_site_label
_atom_site_type_symbol
_atom_type_description
_atom_site_fract_x
_atom_site_fract_y
_atom_site_fract_z
_atom_type_partial_charge
C1    C     C_R   0.438675 0.691377 0.495909 0.859236
C2    C     C_R   0.599344 0.532099 0.731339 -0.110428
C3    C     C_R   0.506051 0.516606 0.748233 0.324770
C4    C     C_R   0.531528 0.504021 0.902014 -0.071454
C5    C     C_R   0.528949 0.600529 0.879005 -0.073482
C6    C     C_R   0.532905 0.690993 0.908423 -0.051497
C7    C     C_R   0.523174 0.414095 0.873237 -0.054060
C8    C     C_R   0.502081 0.507167 0.646961 -0.039571
C9    C     C_R   0.501959 0.489405 0.353643 -0.036953
C10   C     C_R   0.575277 0.571675 0.035720 -0.016276
C11   C     C_R   0.516042 0.401568 0.024085 0.056099
C12   C     C_R   0.500688 0.501581 0.593918 0.859818
C13   C     C_R   0.543619 0.485239 0.055108 0.083529
C14   C     C_R   0.629213 0.640077 0.068960 -0.181112
C15   C     C_R   0.631527 0.637360 0.119989 0.164586
C16   C     C_R   0.576527 0.562152 0.137741 -0.095648
C17   C     C_R   0.537346 0.483527 0.105342 -0.078758
C18   C     C_R   0.490244 0.403560 0.122698 0.001560
C19   C     C_R   0.481512 0.403202 0.172120 0.497937
C20   C     C_R   0.560443 0.560165 0.186716 0.493096
C21   C     C_R   0.408502 0.491421 0.267034 -0.100596
C22   C     C_R   0.404194 0.496775 0.316986 -0.226040
C23   C     C_R   0.561199 0.308721 0.506267 0.864567
C24   C     C_R   0.603685 0.473038 0.339919 -0.216146
C25   C     C_R   0.607749 0.466440 0.290270 -0.106913
C26   C     C_R   0.510429 0.477378 0.253693 0.324500
C27   C     C_R   0.554478 0.585151 0.983468 -0.003523
C28   C     C_R   0.540801 0.496690 0.953644 0.037447
C29   C     C_R   0.534935 0.400474 0.975487 -0.003016
C30   C     C_R   0.541657 0.683755 0.960217 -0.073975
C31   C     C_R   0.530715 0.318081 0.896002 -0.157721
C32   C     C_R   0.463626 0.326009 0.041450 -0.264357
C33   C     C_R   0.451686 0.326498 0.090216 -0.146361
C34   C     C_R   0.499723 0.497938 0.406179 0.863061
C35   C     C_R   0.545337 0.308939 0.947307 0.144531
C36   C     C_R   0.698091 0.068947 0.576770 -0.200519
C37   C     C_R   0.597502 0.200492 0.517726 -0.054800
C38   C     C_R   0.300705 0.836509 0.458881 -0.187624
C39   C     C_R   0.273053 0.940950 0.447535 -0.142657
C40   C     C_R   0.346209 0.009431 0.467382 -0.183472
C41   C     C_R   0.446420 0.974383 0.501236 0.089689
C42   C     C_R   0.465055 0.871692 0.518505 0.092453
C43   C     C_R   0.528952 0.037557 0.518489 0.087069
C44   C     C_R   0.618503 0.004106 0.558525 0.176662
C45   C     C_R   0.518448 0.602438 0.826855 0.500306
C46   C     C_R   0.625808 0.907489 0.580260 -0.259113
C47   C     C_R   0.550384 0.841539 0.560257 -0.202564
C48   C     C_R   0.525437 0.132819 0.496414 -0.249294
C49   C     C_R   0.686396 0.168145 0.556989 -0.187230
C50   C     C_R   0.398569 0.801177 0.492981 -0.116186
C51   C     C_R   0.088588 0.343885 0.431949 -0.306642
C52   C     C_R   0.799140 0.631367 0.558361 -0.011014
C53   C     C_R   0.903914 0.661087 0.570812 0.147701
C54   C     C_R   0.985527 0.610692 0.548478 -0.250528
C55   C     C_R   0.962684 0.530728 0.514179 -0.015884
C56   C     C_R   0.513038 0.420831 0.822138 0.511133
C57   C     C_R   0.854937 0.503567 0.503386 0.222974
C58   C     C_R   0.042011 0.477043 0.490119 0.004943
C59   C     C_R   0.011934 0.397556 0.456081 0.196434
C60   C     C_R   0.905789 0.372073 0.446523 -0.293504
C61   C     C_R   0.828678 0.424222 0.469968 -0.200575
C62   C     C_R   0.150726 0.498587 0.498326 -0.052874
C63   C     C_R   0.194471 0.369004 0.441743 0.011873
C64   C     C_R   0.410111 0.498081 0.714596 -0.103785
C65   C     C_R   0.407996 0.493351 0.664105 -0.214976
C66   C     C_R   0.597474 0.527603 0.680929 -0.226761
H1    H     H_    0.670949 0.539206 0.668709 0.160578
H2    H     H_    0.337937 0.485901 0.727743 0.136793
H3    H     H_    0.530293 0.248690 0.874019 0.184724
H4    H     H_    0.428833 0.267561 0.017118 0.148882
H5    H     H_    0.680290 0.465556 0.367488 0.161952
H6    H     H_    0.412065 0.266250 0.102315 0.183527
H7    H     H_    0.686628 0.455166 0.280022 0.135855
H8    H     H_    0.742463 0.221031 0.574067 0.159826
H9    H     H_    0.690763 0.882186 0.612163 0.152575
H10   H     H_    0.766188 0.044639 0.607599 0.139716
H11   H     H_    0.673804 0.545799 0.757437 0.135738
H12   H     H_    0.463435 0.158910 0.463801 0.139577
H13   H     H_    0.247595 0.783053 0.439708 0.159201
H14   H     H_    0.321065 0.089428 0.456616 0.130780
H15   H     H_    0.197039 0.968341 0.421552 0.143580
H16   H     H_    0.558335 0.767130 0.578111 0.153243
H17   H     H_    0.255233 0.328005 0.423693 0.129093
H18   H     H_    0.882090 0.311403 0.420740 0.155053
H19   H     H_    0.066910 0.283033 0.405966 0.143697
H20   H     H_    0.181684 0.556811 0.523513 0.126893
H21   H     H_    0.734462 0.669429 0.574866 0.138940
H22   H     H_    0.065501 0.635529 0.558578 0.135801
H23   H     H_    0.748814 0.400767 0.461143 0.208576
H24   H     H_    0.324947 0.509027 0.326863 0.160460
H25   H     H_    0.333037 0.500409 0.238732 0.142651
H26   H     H_    0.672382 0.693676 0.054624 0.172128
H27   H     H_    0.333178 0.478259 0.638665 0.162685
N1    N     N_R   0.511245 0.513613 0.800295 -0.351660
N2    N     N_R   0.516274 0.480635 0.202727 -0.347584
N3    N     N_R   0.222180 0.444690 0.474320 -0.102236
N4    N     N_R   0.776980 0.554780 0.525420 -0.145974
O1    O     O_R   0.366730 0.627160 0.487740 -0.617044
O2    O     O_2   0.585697 0.637604 0.218199 -0.589588
O3    O     O_2   0.506764 0.334942 0.794318 -0.578452
O4    O     O_2   0.439359 0.325841 0.189706 -0.572315
O5    O     O_R   0.544830 0.662520 0.504140 -0.607420
O6    O     O_R   0.410970 0.482310 0.563040 -0.616277
O7    O     O_R   0.589070 0.517670 0.579450 -0.630193
O8    O     O_R   0.455170 0.337480 0.495860 -0.607925
O9    O     O_R   0.633270 0.372840 0.512260 -0.637602
O10   O     O_R   0.410930 0.482330 0.420550 -0.618772
O11   O     O_R   0.589030 0.517690 0.436960 -0.627551
O12   O     O_2   0.514778 0.691429 0.802355 -0.559875
Zn1   Zn    Zn3+2 0.381080 0.476390 0.489050 0.943914
Zn2   Zn    Zn3+2 0.618920 0.523610 0.510950 0.932096
C67   C     C_3   0.584858 0.201791 0.970420 -0.441250
C68   C     C_3   0.690169 0.151674 0.955754 -0.856368
H28   H     H_    0.674786 0.133349 0.915665 0.253781
H29   H     H_    0.754340 0.203798 0.964505 0.267780
H30   H     H_    0.721643 0.078298 0.976797 0.241159
H31   H     H_    0.605894 0.204197 0.011456 0.223368
H32   H     H_    0.519450 0.151650 0.958659 0.210904
C69   C     C_R   0.522759 0.795021 0.885888 0.210279
C70   C     C_R   0.420082 0.856727 0.873702 -0.097759
C71   C     C_R   0.411662 0.956567 0.854747 -0.130294
C72   C     C_R   0.505452 0.995164 0.847822 -0.100462
C73   C     C_R   0.607836 0.933936 0.859769 -0.131583
C74   C     C_R   0.616682 0.834102 0.878785 -0.106722
H33   H     H_    0.347176 0.827796 0.879401 0.116470
H34   H     H_    0.332507 0.004164 0.845597 0.131836
H35   H     H_    0.498808 0.072507 0.833227 0.144869
H36   H     H_    0.680406 0.964022 0.854507 0.130975
H37   H     H_    0.696477 0.787568 0.888411 0.115113
C75   C     C_3   0.927521 0.747679 0.606741 -0.423836
C76   C     C_3   0.918776 0.718799 0.658844 -0.874896
H38   H     H_    0.833790 0.705207 0.659102 0.247483
H39   H     H_    0.976666 0.648140 0.672335 0.267781
H40   H     H_    0.940031 0.782821 0.684563 0.254357
H41   H     H_    0.011435 0.767548 0.608811 0.214097
H42   H     H_    0.868680 0.817780 0.593400 0.204105
C77   C     C_3   0.692650 0.712880 0.154894 -0.300994
C78   C     C_3   0.766678 0.774785 0.133476 -0.951341
H43   H     H_    0.827489 0.722357 0.117938 0.263971
H44   H     H_    0.716839 0.830123 0.104585 0.271813
H45   H     H_    0.812397 0.820062 0.163497 0.265347
H46   H     H_    0.631728 0.769304 0.168325 0.251663
H47   H     H_    0.746898 0.668479 0.187037 0.234272
C79   C     C_R   0.516194 0.780153 0.987655 0.121273
C80   C     C_R   0.588093 0.855216 0.996261 -0.169708
C81   C     C_R   0.562841 0.944830 0.022104 -0.150561
C82   C     C_R   0.465586 0.960743 0.039161 -0.106730
C83   C     C_R   0.393568 0.886723 0.030653 -0.129894
C84   C     C_R   0.418647 0.796722 0.005037 -0.136035
H48   H     H_    0.664530 0.843211 0.983912 0.124829
H49   H     H_    0.619212 0.001476 0.029419 0.137672
H50   H     H_    0.446275 0.030252 0.059140 0.127121
H51   H     H_    0.318326 0.899022 0.043966 0.131521
H52   H     H_    0.362160 0.739924 0.998665 0.128441

loop_
_geom_bond_atom_site_label_1
_geom_bond_atom_site_label_2
_ccdc_geom_bond_type
C10   C27   A    
C58   C62   A    
C54   H22   S    
C21   C26   A    
C8    C66   A    
O1    Zn1   S    
C62   N3    A    
C19   O4    S    
C41   C42   A    
C54   C55   A    
C82   C83   A    
O8    Zn1   S    
C76   H40   S    
C51   H19   S    
C80   C81   A    
C73   C74   A    
C53   C54   A    
C52   C53   A    
C56   N1    A    
C62   H20   S    
O6    Zn1   S    
C34   O10   A    
C64   H2    S    
C28   C29   A    
C12   O7    A    
C2    C3    A    
C21   H25   S    
C5    C6    A    
N4    Zn2   S    
C45   O12   S    
C9    C22   A    
C38   H13   S    
C15   C16   A    
C23   O8    A    
C52   N4    A    
C11   C13   A    
C30   C79   S    
C18   C19   A    
C47   H16   S    
C48   H12   S    
C72   H35   S    
C67   C68   S    
C36   H10   S    
C33   H6    S    
C68   H28   S    
C75   H41   S    
C44   C46   A    
C16   C17   A    
C40   H14   S    
C43   C48   A    
C80   H48   S    
C8    C12   S    
C68   H30   S    
C65   H27   S    
C66   H1    S    
C77   H47   S    
C59   C60   A    
C69   C74   A    
C21   C22   A    
C27   C30   A    
C41   C43   A    
O5    Zn2   S    
C7    C56   A    
C4    C7    A    
C45   N1    A    
C46   H9    S    
C4    C28   A    
C61   H23   S    
O9    Zn2   S    
C38   C39   A    
C77   H46   S    
C7    C31   A    
C51   C63   A    
C83   C84   A    
C39   H15   S    
C12   O6    A    
C10   C14   A    
C39   C40   A    
C70   H33   S    
C79   C80   A    
C32   H4    S    
C76   H39   S    
C58   C59   A    
C23   C37   S    
C23   O9    A    
C5    C45   A    
C63   N3    A    
C78   H45   S    
C63   H17   S    
C60   C61   A    
C84   H52   S    
C79   C84   A    
C37   C49   A    
C8    C65   A    
C16   C20   A    
C57   N4    A    
C17   C18   A    
C22   H24   S    
C24   C25   A    
C37   C48   A    
C14   H26   S    
C71   C72   A    
C78   H44   S    
C42   C50   A    
C40   C41   A    
C6    C30   A    
C20   N2    A    
C11   C32   A    
C55   C57   A    
C43   C44   A    
C9    C34   S    
O10   Zn1   S    
C31   C35   A    
C36   C44   A    
C51   C59   A    
C83   H51   S    
C56   O3    S    
C76   H38   S    
C6    C69   S    
C19   N2    A    
C70   C71   A    
C81   C82   A    
C1    C50   S    
C26   N2    S    
C46   C47   A    
C14   C15   A    
C52   H21   S    
C75   H42   S    
C4    C5    A    
C2    C66   A    
C10   C13   A    
C1    O1    A    
O7    Zn2   S    
C69   C70   A    
C9    C24   A    
C57   C61   A    
C38   C50   A    
C77   C78   S    
C29   C35   A    
O11   Zn2   S    
C13   C17   A    
C34   O11   A    
C64   C65   A    
C75   C76   S    
C25   C26   A    
C71   H34   S    
C2    H11   S    
C32   C33   A    
C67   H32   S    
C60   H18   S    
C73   H36   S    
C67   H31   S    
C20   O2    S    
N3    Zn1   S    
C74   H37   S    
C82   H50   S    
C3    N1    S    
C25   H7    S    
C42   C47   A    
C3    C64   A    
C18   C33   A    
C78   H43   S    
C36   C49   A    
C81   H49   S    
C31   H3    S    
C11   C29   A    
C55   C58   A    
C27   C28   A    
C49   H8    S    
C53   C75   S    
C68   H29   S    
C72   C73   A    
C1    O5    A    
C35   C67   S    
C24   H5    S    
C15   C77   S    
