data_mof_unit_49086.cif
_audit_creation_date              2012-12-11T16:46:28-0500
_audit_creation_method            fapswitch 2.2
_symmetry_space_group_name_H-M    P1
_symmetry_Int_Tables_number       1
_space_group_crystal_system       triclinic
_cell_length_a                    26.181465
_cell_length_b                    7.207824
_cell_length_c                    23.868607
_cell_angle_alpha                 90.165163
_cell_angle_beta                  101.429051
_cell_angle_gamma                 90.228058
_cell_volume                      4414.89600417

loop_
_atom_site_label
_atom_site_type_symbol
_atom_type_description
_atom_site_fract_x
_atom_site_fract_y
_atom_site_fract_z
_atom_type_partial_charge
O1    O     O_R   0.547620 0.505720 0.453310 -0.536289
O2    O     O_R   0.452380 0.005720 0.546690 -0.536096
O3    O     O_R   0.442260 0.172470 0.436770 -0.532887
O4    O     O_R   0.557740 0.672470 0.563230 -0.532731
C1    C     C_R   0.076153 0.468534 0.078612 0.717071
C2    C     C_R   0.923887 0.967536 0.921434 0.717454
C3    C     C_R   0.424079 0.344137 0.421718 0.711818
C4    C     C_R   0.575863 0.845094 0.578262 0.712857
O5    O     O_R   0.546600 0.175780 0.446490 -0.539170
O6    O     O_R   0.453400 0.675780 0.553510 -0.539419
O7    O     O_R   0.557460 0.008970 0.556480 -0.531696
O8    O     O_R   0.442540 0.508970 0.443520 -0.531941
C5    C     C_R   0.562193 0.344678 0.434341 0.676429
C6    C     C_R   0.437810 0.844554 0.565656 0.675110
O9    O     O_R   0.047630 0.803580 0.953300 -0.537183
O10   O     O_R   0.952370 0.303580 0.046700 -0.537349
O11   O     O_3   0.503440 0.340340 0.536080 -0.372422
O12   O     O_3   0.496560 0.840340 0.463920 -0.372325
V1    V     V_3+5 0.499360 0.064140 0.493310 1.396459
V2    V     V_3+5 0.500640 0.564140 0.506690 1.395887
O13   O     O_R   0.057730 0.636870 0.063240 -0.533647
O14   O     O_R   0.942270 0.136870 0.936760 -0.533069
O15   O     O_3   0.996540 0.468950 0.963950 -0.373755
O16   O     O_3   0.003460 0.968950 0.036050 -0.373901
C7    C     C_R   0.104371 0.789440 0.864464 -0.220605
C8    C     C_R   0.895519 0.289815 0.135518 -0.220901
H1    H     H_    0.079909 0.670690 0.868637 0.131462
H2    H     H_    0.919971 0.171598 0.131421 0.131301
C9    C     C_R   0.139928 0.776478 0.827509 0.214178
C10   C     C_R   0.859942 0.276916 0.172460 0.214349
C11   C     C_R   0.172348 0.928828 0.821288 0.104506
C12   C     C_R   0.827553 0.428641 0.178581 0.104627
C13   C     C_R   0.167414 0.093295 0.851504 -0.214535
C14   C     C_R   0.832509 0.592418 0.148260 -0.214875
H3    H     H_    0.192301 0.211091 0.847843 0.120386
H4    H     H_    0.807638 0.709681 0.151836 0.120146
C15   C     C_R   0.131268 0.106476 0.887459 -0.168805
C16   C     C_R   0.868671 0.605580 0.112328 -0.168368
H5    H     H_    0.128855 0.235045 0.910369 0.126624
H6    H     H_    0.871111 0.733623 0.089349 0.126440
C17   C     C_R   0.099600 0.954077 0.894791 -0.068917
C18   C     C_R   0.900333 0.453820 0.105122 -0.068726
C19   C     C_R   0.211822 0.055839 0.741565 -0.200720
C20   C     C_R   0.788160 0.556994 0.258214 -0.200809
H7    H     H_    0.183365 0.166380 0.737072 0.124439
H8    H     H_    0.816661 0.668284 0.262614 0.124467
C21   C     C_R   0.247571 0.048104 0.704488 0.158128
C22   C     C_R   0.752414 0.549557 0.295296 0.158126
C23   C     C_R   0.284577 0.901631 0.710621 0.059529
C24   C     C_R   0.715353 0.402096 0.289280 0.059638
C25   C     C_R   0.283332 0.765432 0.752377 -0.214890
C26   C     C_R   0.716536 0.264731 0.247628 -0.215055
H9    H     H_    0.311012 0.652390 0.757682 0.122814
H10   H     H_    0.688815 0.150926 0.242416 0.122731
C27   C     C_R   0.247141 0.774072 0.788186 -0.109026
C28   C     C_R   0.752727 0.273122 0.211813 -0.109153
H11   H     H_    0.247759 0.668109 0.820391 0.127662
H12   H     H_    0.752066 0.166232 0.179690 0.127698
C29   C     C_R   0.211034 0.919209 0.783184 0.087291
C30   C     C_R   0.788889 0.419182 0.216706 0.087308
C31   C     C_R   0.327350 0.724746 0.641694 -0.158510
C32   C     C_R   0.672569 0.225899 0.358292 -0.158418
H13   H     H_    0.299934 0.612140 0.642204 0.111937
H14   H     H_    0.699923 0.113878 0.357775 0.111939
C33   C     C_R   0.364749 0.709263 0.607257 -0.167163
C34   C     C_R   0.635190 0.210325 0.392754 -0.165821
H15   H     H_    0.365281 0.584946 0.581784 0.121988
H16   H     H_    0.634608 0.086517 0.418231 0.122127
C35   C     C_R   0.399966 0.855255 0.604458 -0.045686
C36   C     C_R   0.600048 0.355587 0.395559 -0.045868
C37   C     C_R   0.398002 0.014171 0.638327 -0.162510
C38   C     C_R   0.602071 0.513845 0.361683 -0.163392
H17   H     H_    0.425214 0.127559 0.637998 0.124898
H18   H     H_    0.574917 0.626625 0.362022 0.124475
C39   C     C_R   0.361392 0.027660 0.673649 -0.143246
C40   C     C_R   0.638654 0.527364 0.326317 -0.143197
H19   H     H_    0.361857 0.149178 0.700520 0.101001
H20   H     H_    0.638217 0.648254 0.299410 0.100911
C41   C     C_R   0.324676 0.885634 0.674425 0.105275
C42   C     C_R   0.675291 0.386117 0.325528 0.105213
C43   C     C_3   0.750057 0.788233 0.809389 0.004602
C44   C     C_3   0.255130 0.342611 0.184926 0.006939
C45   C     C_3   0.766108 0.121157 0.780330 -0.357451
C46   C     C_3   0.225324 0.626805 0.234220 -0.357690
C47   C     C_3   0.716120 0.117587 0.729959 0.312733
C48   C     C_3   0.275138 0.617734 0.284975 0.316353
H21   H     H_    0.664553 0.826715 0.777374 0.173519
H22   H     H_    0.337903 0.413320 0.222958 0.173860
H23   H     H_    0.796664 0.218105 0.772680 0.154935
H24   H     H_    0.191059 0.690613 0.246873 0.155398
H25   H     H_    0.756693 0.175424 0.820762 0.114010
H26   H     H_    0.232211 0.719259 0.199191 0.113238
C49   C     C_1   0.621249 0.858854 0.624254 -0.199889
C50   C     C_1   0.378482 0.355292 0.375874 -0.200843
C51   C     C_3   0.791027 0.926659 0.792868 0.158918
C52   C     C_3   0.208753 0.432979 0.207793 0.157709
C53   C     C_3   0.699714 0.784844 0.761268 -0.436263
C54   C     C_3   0.304763 0.334813 0.233895 -0.434793
C55   C     C_3   0.706301 0.906030 0.709067 0.225581
C56   C     C_3   0.292908 0.404305 0.291981 0.223248
C57   C     C_3   0.755503 0.825016 0.689368 0.042856
C58   C     C_3   0.246956 0.277427 0.303290 0.047987
C59   C     C_3   0.805362 0.853638 0.736817 -0.366078
C60   C     C_3   0.197010 0.308022 0.256459 -0.369010
C61   C     C_1   0.659247 0.878618 0.662481 -0.071724
C62   C     C_1   0.340233 0.374270 0.337966 -0.072881
C63   C     C_1   0.839271 0.941747 0.838353 -0.077955
C64   C     C_1   0.160691 0.448129 0.162024 -0.077749
C65   C     C_1   0.878068 0.955195 0.875857 -0.188361
C66   C     C_1   0.121961 0.459164 0.124341 -0.188975
H27   H     H_    0.826071 0.718916 0.745057 0.117360
H28   H     H_    0.182028 0.170754 0.238734 0.118781
H29   H     H_    0.833462 0.950029 0.722748 0.166476
H30   H     H_    0.165253 0.370445 0.274927 0.167436
H31   H     H_    0.749122 0.673553 0.683450 0.118181
H32   H     H_    0.258688 0.130124 0.299978 0.104646
H33   H     H_    0.767851 0.647496 0.811057 0.135457
H34   H     H_    0.243222 0.196787 0.172973 0.132703
H35   H     H_    0.691639 0.639262 0.746953 0.131650
H36   H     H_    0.318809 0.189374 0.238245 0.132886
V3    V     V_3+5 0.000640 0.745210 0.006690 1.399488
V4    V     V_3+5 0.999360 0.245210 0.993310 1.399676
O17   O     O_R   0.057440 0.306950 0.056520 -0.532374
O18   O     O_R   0.942560 0.806950 0.943480 -0.532873
O19   O     O_R   0.953390 0.633680 0.053510 -0.540426
O20   O     O_R   0.046610 0.133680 0.946490 -0.540542
C67   C     C_R   0.937813 0.464690 0.065756 0.689248
C68   C     C_R   0.062171 0.964805 0.934228 0.688624
C69   C     C_3   0.737309 0.823955 0.869264 -0.332425
C70   C     C_3   0.707414 0.661796 0.888981 -0.790420
H37   H     H_    0.669038 0.641621 0.860031 0.228330
H38   H     H_    0.730264 0.531781 0.890278 0.220454
H39   H     H_    0.700617 0.690810 0.932623 0.222410
H40   H     H_    0.773804 0.841846 0.901609 0.186300
H41   H     H_    0.714283 0.952572 0.869466 0.177486
C71   C     C_3   0.266619 0.435120 0.130040 -0.334662
C72   C     C_3   0.303495 0.319003 0.101982 -0.784192
H42   H     H_    0.342210 0.305546 0.130633 0.228562
H43   H     H_    0.286800 0.178515 0.091100 0.223100
H44   H     H_    0.309005 0.387402 0.061962 0.220207
H45   H     H_    0.229988 0.451160 0.097892 0.185654
H46   H     H_    0.283561 0.575550 0.139377 0.176549
C73   C     C_3   0.670026 0.196438 0.756850 -0.405252
C74   C     C_3   0.615791 0.203382 0.718135 -0.756761
H47   H     H_    0.591082 0.302291 0.736509 0.213855
H48   H     H_    0.617279 0.250341 0.674294 0.229617
H49   H     H_    0.596481 0.065705 0.716436 0.226875
H50   H     H_    0.666234 0.122004 0.796296 0.175853
H51   H     H_    0.680321 0.340188 0.771867 0.173289
C75   C     C_3   0.317587 0.746128 0.265725 -0.410135
C76   C     C_3   0.371564 0.756057 0.304973 -0.741043
H52   H     H_    0.392311 0.882047 0.294476 0.213191
H53   H     H_    0.369193 0.764320 0.350773 0.229172
H54   H     H_    0.395366 0.634854 0.297569 0.224584
H55   H     H_    0.323370 0.711352 0.222266 0.175139
H56   H     H_    0.302006 0.889279 0.261551 0.163973
C77   C     C_3   0.721574 0.251395 0.678531 -0.262673
C78   C     C_3   0.776086 0.309293 0.669822 -0.777611
H57   H     H_    0.794466 0.409983 0.702944 0.191130
H58   H     H_    0.802792 0.191959 0.670037 0.263661
H59   H     H_    0.772328 0.379639 0.627867 0.213608
H60   H     H_    0.700374 0.191475 0.637580 0.192418
H61   H     H_    0.701304 0.384505 0.682319 0.155491
C79   C     C_3   0.265239 0.702299 0.343664 -0.269841
C80   C     C_3   0.209120 0.728924 0.352048 -0.775401
H62   H     H_    0.190912 0.849314 0.326874 0.200793
H63   H     H_    0.184838 0.603721 0.340550 0.257838
H64   H     H_    0.209661 0.760690 0.397728 0.217125
H65   H     H_    0.286014 0.619676 0.380223 0.192496
H66   H     H_    0.283158 0.842395 0.351443 0.160903
N1    N     N_3   0.141928 0.610033 0.795148 -0.688657
H67   H     H_    0.150053 0.500243 0.823939 0.217422
H68   H     H_    0.104944 0.586722 0.770045 0.231739
N2    N     N_3   0.857896 0.111271 0.204919 -0.688739
H69   H     H_    0.849752 0.000520 0.176196 0.217383
H70   H     H_    0.894871 0.089529 0.230047 0.231717
N3    N     N_3   0.762856 0.898272 0.634262 -0.671198
H71   H     H_    0.732646 0.849987 0.602056 0.228373
H72   H     H_    0.796856 0.840693 0.624968 0.227398
N4    N     N_3   0.235758 0.303057 0.360621 -0.669543
H73   H     H_    0.267180 0.253158 0.390759 0.227763
H74   H     H_    0.204229 0.217627 0.364409 0.228705
C81   C     C_3   0.243285 0.192889 0.657795 -0.372363
C82   C     C_3   0.221308 0.109971 0.598978 -0.731468
H75   H     H_    0.248095 0.004848 0.587017 0.232840
H76   H     H_    0.182792 0.044357 0.598706 0.227796
H77   H     H_    0.216196 0.221628 0.566411 0.213508
H78   H     H_    0.216952 0.306925 0.665379 0.182678
H79   H     H_    0.281422 0.259600 0.657820 0.170368
C83   C     C_3   0.756770 0.695782 0.341872 -0.371978
C84   C     C_3   0.778726 0.615037 0.400750 -0.732181
H80   H     H_    0.751898 0.509693 0.412804 0.233349
H81   H     H_    0.817211 0.550251 0.401061 0.227994
H82   H     H_    0.783895 0.727748 0.433225 0.212164
H83   H     H_    0.783150 0.810157 0.334190 0.182811
H84   H     H_    0.718668 0.761699 0.341805 0.170231

loop_
_geom_bond_atom_site_label_1
_geom_bond_atom_site_label_2
_ccdc_geom_bond_type
C34   H16   S    
N1    H67   S    
C53   H35   S    
C83   C84   S    
C20   C30   A    
C27   C29   A    
C58   N4    S    
C79   H66   S    
C2    O18   A    
O4    C4    A    
C47   C73   S    
C23   C25   A    
C21   C23   A    
C72   H43   S    
O7    V1    S    
C80   H62   S    
C39   C41   A    
C47   C77   S    
C32   C42   A    
C79   C80   S    
C59   H29   S    
C46   C48   S    
C16   C18   A    
O3    C3    A    
C48   C75   S    
C43   C51   S    
C1    C66   S    
C73   C74   S    
C2    O14   A    
C43   H33   S    
O11   V2    S    
C82   H75   S    
C59   H27   S    
O12   V1    S    
C46   C52   S    
C76   H54   S    
C11   C29   S    
C35   C37   A    
O5    C5    A    
N2    H69   S    
V3    O18   S    
C71   H46   S    
C78   H59   S    
C49   C61   T    
C69   H41   S    
O5    V1    S    
C77   C78   S    
O6    V2    S    
N3    H72   S    
C24   C26   A    
C76   H52   S    
C11   C13   A    
O3    V1    S    
C48   C56   S    
C77   H61   S    
C32   H14   S    
C19   C29   A    
C22   C24   A    
C52   C64   S    
C80   H63   S    
C16   H6    S    
C75   H56   S    
C78   H58   S    
C63   C65   T    
C17   C68   S    
C79   H65   S    
C73   H50   S    
C46   H24   S    
C74   H49   S    
C55   C61   S    
C81   H79   S    
C56   C58   S    
C53   C55   S    
C26   H10   S    
O14   V4    S    
O15   V4    S    
C7    C9    A    
C3    O8    A    
C45   H23   S    
C72   H44   S    
C37   C39   A    
C44   C52   S    
C32   C34   A    
C51   C59   S    
C84   H80   S    
O13   V3    S    
O10   V4    S    
C38   H18   S    
O6    C6    A    
C7    C17   A    
C37   H17   S    
C71   C72   S    
C20   H8    S    
C33   H15   S    
C13   C15   A    
C28   C30   A    
C25   H9    S    
C12   C14   A    
V4    O20   S    
O1    C5    A    
C70   H38   S    
C81   C82   S    
C84   H81   S    
V3    O19   S    
C71   H45   S    
C47   C55   S    
C15   H5    S    
C19   H7    S    
C43   C69   S    
C44   C71   S    
C45   C51   S    
O8    V2    S    
C31   H13   S    
C38   C40   A    
C9    N1    S    
C58   C60   S    
C39   H19   S    
C21   C81   S    
C51   C63   S    
C83   H83   S    
C60   H30   S    
C18   C67   S    
C74   H48   S    
C45   C47   S    
C8    C10   A    
C80   H64   S    
C54   C56   S    
C75   H55   S    
C27   H11   S    
C78   H57   S    
C57   H31   S    
C6    C35   S    
C70   H39   S    
C48   C79   S    
C12   C30   S    
C23   C41   S    
N4    H73   S    
C8    C18   A    
C60   H28   S    
C69   C70   S    
C3    C50   S    
C50   C62   T    
O1    V2    S    
O20   C68   A    
O9    V3    S    
C55   C57   S    
O2    V1    S    
C14   C16   A    
C56   C62   S    
C4    C49   S    
C40   C42   A    
C40   H20   S    
C74   H47   S    
C24   C42   S    
C64   C66   T    
C54   H36   S    
C83   H84   S    
N1    H68   S    
C45   H25   S    
C72   H42   S    
C1    O17   A    
C8    H2    S    
C82   H76   S    
C82   H77   S    
O9    C68   A    
C52   C60   S    
C70   H37   S    
C84   H82   S    
C9    C11   A    
C20   C22   A    
C81   H78   S    
N4    H74   S    
C10   C12   A    
C13   H3    S    
C34   C36   A    
C43   C53   S    
C31   C41   A    
C4    O7    A    
C33   C35   A    
O16   V3    S    
C2    C65   S    
C14   H4    S    
C28   H12   S    
C25   C27   A    
C76   H53   S    
C58   H32   S    
C15   C17   A    
O2    C6    A    
O10   C67   A    
N2    H70   S    
C44   C54   S    
C57   N3    S    
C69   H40   S    
O4    V2    S    
C31   C33   A    
C73   H51   S    
C1    O13   A    
C57   C59   S    
N3    H71   S    
C5    C36   S    
C22   C83   S    
O19   C67   A    
C44   H34   S    
C75   C76   S    
C36   C38   A    
C46   H26   S    
V4    O17   S    
C19   C21   A    
C77   H60   S    
C10   N2    S    
H22   C54   S    
C26   C28   A    
H21   C53   S    
C7    H1    S    
