data_mof_unit_41019.cif
_audit_creation_date              2013-03-05T15:59:22-0500
_audit_creation_method            fapswitch 2.2
_symmetry_space_group_name_H-M    P1
_symmetry_Int_Tables_number       1
_space_group_crystal_system       triclinic
_cell_length_a                    10.488983
_cell_length_b                    12.700867
_cell_length_c                    13.228144
_cell_angle_alpha                 82.56335
_cell_angle_beta                  92.533119
_cell_angle_gamma                 101.295686
_cell_volume                      1713.24911139

loop_
_atom_site_label
_atom_site_type_symbol
_atom_site_description
_atom_site_fract_x
_atom_site_fract_y
_atom_site_fract_z
_atom_type_partial_charge
O1    O     O_R   0.467970 0.366730 0.627150 -0.618898
O2    O     O_R   0.510820 0.544830 0.662520 -0.597188
C1    C     C_R   0.479355 0.439802 0.690389 0.905902
O3    O     O_R   0.664630 0.410960 0.482340 -0.629192
O4    O     O_R   0.707470 0.589060 0.517710 -0.577746
C2    C     C_R   0.741473 0.499871 0.500686 0.960525
Zn1   Zn    Zn3+2 0.471390 0.381080 0.476380 0.986172
Zn2   Zn    Zn3+2 0.528610 0.618920 0.523620 1.030578
O5    O     O_R   0.489180 0.455170 0.337480 -0.649459
O6    O     O_R   0.532030 0.633270 0.372850 -0.614692
O7    O     O_R   0.292530 0.410940 0.482290 -0.586514
O8    O     O_R   0.335370 0.589040 0.517660 -0.579283
C3    C     C_R   0.516932 0.560020 0.309473 0.901672
C4    C     C_R   0.258248 0.498310 0.503554 0.932900
C5    C     C_3   0.956658 0.475099 0.599742 0.241473
C6    C     C_3   0.062232 0.572657 0.562955 -0.147306
H1    H     H_    0.115152 0.632115 0.612130 0.210769
C7    C     C_3   0.122760 0.496277 0.506588 -0.140308
C8    C     C_3   0.018239 0.400119 0.544870 0.249819
C9    C     C_3   0.936367 0.421328 0.447924 -0.282994
C10   C     C_3   0.042742 0.519434 0.409174 -0.144154
C11   C     C_3   0.980078 0.595882 0.465016 -0.066461
C12   C     C_3   0.876055 0.498154 0.503900 -0.169234
H2    H     H_    0.882293 0.359383 0.401715 0.193035
H3    H     H_    0.081785 0.537522 0.330873 0.192545
H4    H     H_    0.960390 0.676120 0.431776 0.193719
C13   C     C_R   0.522704 0.729159 0.053994 0.203667
H5    H     H_    0.565851 0.766125 0.208345 0.161570
H6    H     H_    0.410848 0.733286 0.863775 0.158286
C14   C     C_R   0.526893 0.594461 0.200648 -0.079111
C15   C     C_R   0.499959 0.301287 0.834865 -0.163034
C16   C     C_R   0.545150 0.280613 0.933915 -0.129136
C17   C     C_R   0.564334 0.361409 0.998529 0.200759
C18   C     C_R   0.512908 0.458015 0.968722 0.093371
C19   C     C_R   0.462800 0.476500 0.868673 0.068114
C20   C     C_R   0.512928 0.539057 0.032621 0.046946
C21   C     C_R   0.494958 0.644186 0.992072 0.172705
C22   C     C_R   0.439447 0.658028 0.894691 -0.163999
C23   C     C_R   0.412366 0.571511 0.838057 -0.123354
C24   C     C_R   0.513286 0.514136 0.137020 -0.288714
C25   C     C_R   0.544189 0.703124 0.158891 -0.175413
C26   C     C_R   0.470993 0.402805 0.799512 -0.079467
H7    H     H_    0.494231 0.430129 0.168725 0.188536
H8    H     H_    0.501908 0.242074 0.783180 0.170680
H9    H     H_    0.578667 0.205349 0.956514 0.154619
H10   H     H_    0.357479 0.581998 0.767469 0.157923
C27   C     C_R   0.382823 0.114612 0.310483 -0.273869
H11   H     H_    0.339758 0.272354 0.307261 0.139770
H12   H     H_    0.339145 0.107020 0.235582 0.160943
N1    N     N_R   0.432930 0.222190 0.444670 -0.102615
C28   C     C_R   0.648626 0.798294 0.636129 0.440789
C29   C     C_R   0.677378 0.901483 0.665764 -0.260300
C30   C     C_R   0.626952 0.984556 0.610645 -0.197240
C31   C     C_R   0.547936 0.966037 0.523498 -0.005748
C32   C     C_R   0.518994 0.859699 0.494846 0.007564
C33   C     C_R   0.493698 0.049066 0.465535 -0.033148
C34   C     C_R   0.438203 0.032799 0.367619 0.126382
C35   C     C_R   0.430125 0.932534 0.331923 0.037482
C36   C     C_R   0.442426 0.843224 0.403965 0.315923
C37   C     C_R   0.490346 0.147803 0.501702 0.010655
C38   C     C_R   0.379655 0.208218 0.351495 0.051667
N2    N     N_R   0.566370 0.776980 0.554790 -0.189587
H13   H     H_    0.532373 0.168174 0.574100 0.122492
H14   H     H_    0.656816 0.063678 0.634981 0.171392
H15   H     H_    0.742792 0.918113 0.729922 0.191023
C39   C     C_3   0.656585 0.346440 0.088177 -0.892931
H16   H     H_    0.707807 0.424865 0.111357 0.259281
H17   H     H_    0.603626 0.294663 0.153182 0.226950
H18   H     H_    0.734536 0.305771 0.067142 0.259999
C40   C     C_3   0.373850 0.915461 0.226372 -0.830620
H19   H     H_    0.384272 0.837226 0.203665 0.275001
H20   H     H_    0.268774 0.919011 0.223343 0.266046
H21   H     H_    0.426346 0.978525 0.168731 0.216161
N3    N     N_R   0.716478 0.718656 0.686428 0.237191
O9    O     O_R   0.692929 0.683521 0.781757 -0.382799
O10   O     O_R   0.829081 0.713874 0.651849 -0.362464
N4    N     N_R   0.910087 0.451659 0.704043 0.251204
O11   O     O_R   0.992607 0.444164 0.779710 -0.350554
O12   O     O_R   0.787327 0.441707 0.722494 -0.367916
N5    N     N_R   0.329344 0.760291 0.408730 0.246581
O13   O     O_R   0.300815 0.699877 0.335480 -0.443640
O14   O     O_R   0.236136 0.770265 0.466326 -0.414608
N6    N     N_R   0.041453 0.293328 0.586689 0.216292
O15   O     O_R   0.010418 0.253899 0.679946 -0.346767
O16   O     O_R   0.084076 0.233506 0.528218 -0.363630
C41   C     C_3   0.528793 0.845590 0.010316 -0.935754
H22   H     H_    0.593732 0.865916 0.943647 0.261126
H23   H     H_    0.429960 0.859094 0.986198 0.247089
H24   H     H_    0.568381 0.901483 0.066944 0.244549

loop_
_geom_bond_atom_site_label_1
_geom_bond_atom_site_label_2
_geom_bond_distance
_ccdc_geom_bond_type
C39   H17   1.110480 S    
C1    C26   1.460013 S    
C15   C26   1.399387 A    
C32   C36   1.431079 A    
C7    C10   1.534410 S    
C16   H9    1.084035 S    
C4    C7    1.418559 S    
C19   C23   1.415865 A    
C8    C9    1.535722 S    
C28   N3    1.427660 S    
C34   C35   1.400602 A    
C27   H12   1.080818 S    
C5    N4    1.458462 S    
N4    O11   1.300438 A    
Zn1   O7    1.992212 S    
N3    O10   1.300360 A    
C37   H13   1.077303 S    
C20   C21   1.417862 A    
C7    C8    1.521306 S    
C22   C23   1.386131 A    
C30   H14   1.078488 S    
C41   H23   1.109997 S    
C39   H18   1.111535 S    
C5    C6    1.533746 S    
C32   N2    1.390502 A    
H5    C25   1.082129 S    
C33   C34   1.419394 A    
C18   C19   1.410437 A    
C19   C26   1.407329 A    
O5    C3    1.313522 A    
C24   H7    1.078091 S    
N6    O15   1.300105 A    
C6    H1    1.110208 S    
H6    C22   1.082210 S    
C14   C25   1.398632 A    
C40   H19   1.101013 S    
C5    C12   1.521188 S    
C39   H16   1.108908 S    
C10   C11   1.548876 S    
C28   N2    1.370121 A    
O3    Zn1   1.987664 S    
C8    N6    1.458836 S    
C17   C39   1.513614 S    
N4    O12   1.299833 A    
C31   C33   1.418016 A    
C15   H8    1.083424 S    
C28   C29   1.389239 A    
C9    H2    1.110556 S    
C3    C14   1.451543 S    
C20   C24   1.376305 A    
N5    O14   1.300639 A    
N3    O9    1.299630 A    
C41   H22   1.110699 S    
C35   C40   1.516677 S    
C35   C36   1.406457 A    
C30   C31   1.407314 A    
C41   H24   1.110038 S    
C33   C37   1.405990 A    
O1    C1    1.313046 A    
C13   C41   1.506577 S    
C5    C8    1.520638 S    
C21   C22   1.394454 A    
C27   C34   1.408098 A    
C13   C25   1.402966 A    
C15   C16   1.383907 A    
C9    C12   1.539744 S    
Zn2   O8    1.987666 S    
C40   H21   1.110120 S    
C17   C18   1.437761 A    
C14   C24   1.387165 A    
C6    C7    1.539641 S    
C23   H10   1.082308 S    
O3    C2    1.296469 A    
N6    O16   1.300441 A    
O8    C4    1.301629 A    
C29   C30   1.382024 A    
Zn1   O5    1.951990 S    
C10   H3    1.110129 S    
C31   C32   1.421828 A    
C6    C11   1.552407 S    
O1    Zn1   1.980361 S    
O2    Zn2   1.951989 S    
Zn1   N1    2.072781 S    
N5    O13   1.301566 A    
O6    C3    1.313733 A    
C36   N5    1.421383 S    
C27   C38   1.375827 A    
O4    Zn2   1.992209 S    
N1    C37   1.350074 A    
C16   C17   1.398223 A    
O2    C1    1.317285 A    
H11   C38   1.081466 S    
O4    C2    1.300967 A    
C13   C21   1.416013 A    
C2    C12   1.414740 S    
O7    C4    1.298399 A    
C18   C20   1.413875 A    
C9    C10   1.549480 S    
Zn2   O6    1.980363 S    
C11   H4    1.110392 S    
N1    C38   1.348985 A    
C11   C12   1.532808 S    
C40   H20   1.110607 S    
C29   H15   1.083425 S    
Zn2   N2    2.060409 S    
