data_mof_unit_18951.cif
_audit_creation_date              2012-12-10T16:52:41-0500
_audit_creation_method            fapswitch 2.2
_symmetry_space_group_name_H-M    P1
_symmetry_Int_Tables_number       1
_space_group_crystal_system       triclinic
_cell_length_a                    7.903121
_cell_length_b                    8.361285
_cell_length_c                    13.814581
_cell_angle_alpha                 93.542841
_cell_angle_beta                  93.580549
_cell_angle_gamma                 93.836155
_cell_volume                      907.050488226

loop_
_atom_site_label
_atom_site_type_symbol
_atom_type_description
_atom_site_fract_x
_atom_site_fract_y
_atom_site_fract_z
_atom_type_partial_charge
C1    C     C_R   0.040441 0.792470 0.483963 0.958163
C2    C     C_R   0.937072 0.490144 0.318304 0.832363
C3    C     C_R   0.099822 0.542343 0.785462 -0.065276
C4    C     C_R   0.908352 0.482376 0.213425 -0.050951
C5    C     C_R   0.077966 0.710106 0.931704 -0.188505
C6    C     C_R   0.961881 0.367961 0.054822 -0.187230
C7    C     C_R   0.011902 0.652698 0.839425 -0.183934
C8    C     C_R   0.011007 0.396465 0.153098 -0.199810
C9    C     C_R   0.246303 0.482999 0.825322 -0.273207
C10   C     C_R   0.766896 0.551682 0.174631 -0.267745
C11   C     C_R   0.324818 0.551320 0.912741 0.098202
C12   C     C_R   0.951694 0.204130 0.488205 0.912923
C13   C     C_R   0.712230 0.521854 0.076791 0.092492
C14   C     C_R   0.235999 0.663401 0.967616 0.178574
C15   C     C_R   0.809365 0.423862 0.017315 0.177125
C16   C     C_R   0.490131 0.513831 0.945584 0.064596
C17   C     C_R   0.556706 0.575704 0.039016 0.069144
C18   C     C_3   0.205367 0.998541 0.388409 -0.292261
C19   C     C_3   0.236562 0.876595 0.305559 -0.898110
C20   C     C_3   0.748459 0.987375 0.396749 -0.358548
C21   C     C_3   0.749539 0.039633 0.292738 -0.809349
C22   C     C_2   0.476758 0.415488 0.378148 0.686400
C23   C     C_R   0.465047 0.688067 0.091750 -0.233981
C24   C     C_2   0.516331 0.613801 0.615116 0.687096
C25   C     C_R   0.592885 0.420348 0.887086 -0.233140
C26   C     C_R   0.307929 0.731249 0.056060 -0.227029
C27   C     C_R   0.750672 0.378474 0.922183 -0.221864
C28   C     C_2   0.051709 0.947244 0.443388 -0.102811
C29   C     C_2   0.918201 0.037910 0.452198 -0.101015
C30   C     C_R   0.063719 0.512527 0.681635 0.896105
H1    H     H_    0.242677 0.819574 0.097245 0.148926
H2    H     H_    0.557154 0.379556 0.812791 0.145901
H3    H     H_    0.294191 0.769647 0.333313 0.271439
H4    H     H_    0.116141 0.838358 0.262035 0.247076
H5    H     H_    0.326789 0.933193 0.257388 0.251650
H6    H     H_    0.184788 0.112602 0.353703 0.252584
H7    H     H_    0.320172 0.016551 0.439566 0.239136
H8    H     H_    0.777494 0.171310 0.292536 0.276197
H9    H     H_    0.623639 0.007808 0.253978 0.256068
H10   H     H_    0.846796 0.977858 0.252819 0.238492
H11   H     H_    0.718178 0.855761 0.391936 0.225542
H12   H     H_    0.824863 0.305931 0.875392 0.150747
H13   H     H_    0.643840 0.041963 0.434043 0.249522
H14   H     H_    0.495719 0.509044 0.328181 -0.009824
H15   H     H_    0.550071 0.558164 0.681718 -0.018106
H16   H     H_    0.695128 0.619244 0.224354 0.142151
H17   H     H_    0.300463 0.388604 0.783443 0.141428
H18   H     H_    0.123394 0.344407 0.182677 0.166702
H19   H     H_    0.897143 0.699375 0.808825 0.159062
H20   H     H_    0.009761 0.796321 0.972981 0.138088
H21   H     H_    0.038547 0.296022 0.009242 0.142180
H22   H     H_    0.513929 0.749724 0.159449 0.142175
N1    N     N_2   0.440860 0.456490 0.474790 -0.163284
N2    N     N_2   0.559140 0.543510 0.525210 -0.187446
O1    O     O_R   0.891570 0.738930 0.506190 -0.641210
O2    O     O_2   0.452904 0.742888 0.618927 -0.600378
O3    O     O_R   0.108430 0.261070 0.493810 -0.631509
O4    O     O_R   0.174650 0.711050 0.490030 -0.572451
O5    O     O_R   0.825350 0.288950 0.509970 -0.601906
O6    O     O_R   0.909850 0.521900 0.644940 -0.638673
O7    O     O_R   0.090150 0.478100 0.355060 -0.647732
O8    O     O_R   0.192930 0.494020 0.628780 -0.608830
O9    O     O_R   0.807070 0.505980 0.371220 -0.645177
O10   O     O_2   0.476598 0.275089 0.349009 -0.657699
Zn1   Zn    Zn3+2 0.810990 0.518620 0.510790 0.930279
Zn2   Zn    Zn3+2 0.189010 0.481380 0.489210 0.950456

loop_
_geom_bond_atom_site_label_1
_geom_bond_atom_site_label_2
_ccdc_geom_bond_type
C10   H16   S    
C1    C28   S    
C2    C4    S    
C8    H18   S    
C3    C9    A    
C12   C29   S    
C25   C27   A    
C5    C14   A    
C11   C16   A    
C15   C27   A    
C21   H9    S    
C2    O7    A    
C13   C17   A    
O3    Zn2   S    
C4    C8    A    
O9    Zn1   S    
C25   H2    S    
C30   O8    A    
C20   H11   S    
C1    O1    A    
C26   H1    S    
N2    Zn1   S    
C19   H5    S    
N1    N2    D    
C14   C26   A    
N1    Zn2   S    
C9    C11   A    
C27   H12   S    
C23   H22   S    
C17   C23   A    
C21   H10   S    
C18   H6    S    
C12   O3    A    
C10   C13   A    
C3    C30   S    
C28   C29   D    
O1    Zn1   S    
C18   H7    S    
O6    Zn1   S    
C9    H17   S    
C22   N1    S    
C3    C7    A    
C20   C29   S    
C13   C15   A    
C6    H21   S    
C11   C14   A    
C22   H14   S    
C5    H20   S    
C24   O2    D    
C24   H15   S    
C24   N2    S    
C20   H13   S    
C18   C28   S    
C20   C21   S    
C7    H19   S    
C18   C19   S    
C19   H3    S    
C23   C26   A    
C16   C25   A    
C5    C7    A    
O8    Zn2   S    
C2    O9    A    
C6    C8    A    
C22   O10   D    
C6    C15   A    
C1    O4    A    
C12   O5    A    
C4    C10   A    
O7    Zn2   S    
O4    Zn2   S    
O5    Zn1   S    
C21   H8    S    
C16   C17   A    
C19   H4    S    
C30   O6    A    
