data_mof_unit_38480.cif
_audit_creation_date              2012-12-11T17:16:03-0500
_audit_creation_method            fapswitch 2.2
_symmetry_space_group_name_H-M    P1
_symmetry_Int_Tables_number       1
_space_group_crystal_system       monoclinic
_cell_length_a                    14.620033
_cell_length_b                    7.225571
_cell_length_c                    13.480651
_cell_angle_alpha                 90.0
_cell_angle_beta                  99.485168
_cell_angle_gamma                 90.0
_cell_volume                      1404.60070703

loop_
_atom_site_label
_atom_site_type_symbol
_atom_type_description
_atom_site_fract_x
_atom_site_fract_y
_atom_site_fract_z
_atom_type_partial_charge
O1    O     O_R   0.398210 0.494340 0.401550 -0.531547
O2    O     O_R   0.601790 0.994340 0.598450 -0.531547
O3    O     O_R   0.586310 0.821730 0.403360 -0.544925
O4    O     O_R   0.413690 0.321730 0.596640 -0.544925
C1    C     C_R   0.615473 0.655219 0.382096 0.683214
C2    C     C_R   0.384527 0.155219 0.617904 0.683213
O5    O     O_R   0.397970 0.823900 0.389580 -0.535210
O6    O     O_R   0.602030 0.323900 0.610420 -0.535210
O7    O     O_R   0.412100 0.996500 0.584560 -0.539906
O8    O     O_R   0.587900 0.496500 0.415440 -0.539906
C3    C     C_R   0.365027 0.655223 0.363012 0.721071
C4    C     C_R   0.634973 0.155223 0.636988 0.721071
O9    O     O_3   0.504860 0.661550 0.563990 -0.374664
O10   O     O_3   0.495140 0.161550 0.436010 -0.374664
V1    V     V_3+5 0.499100 0.935510 0.488130 1.413290
V2    V     V_3+5 0.500900 0.435510 0.511870 1.413289
C5    C     C_1   0.716031 0.144639 0.716868 -0.171918
C6    C     C_1   0.283969 0.644639 0.283131 -0.171917
C7    C     C_1   0.783935 0.134142 0.783206 -0.160098
C8    C     C_1   0.216065 0.634142 0.216794 -0.160097
C9    C     C_3   0.283484 0.210094 0.867173 0.187728
C10   C     C_3   0.716517 0.710101 0.132827 0.187728
H1    H     H_    0.310143 0.110377 0.928044 0.099157
H2    H     H_    0.689856 0.610387 0.071955 0.099157
C11   C     C_3   0.355004 0.220928 0.793654 -0.336831
C12   C     C_3   0.644997 0.720936 0.206347 -0.336829
H3    H     H_    0.417712 0.139101 0.824716 0.130831
H4    H     H_    0.582287 0.639116 0.175284 0.130831
H5    H     H_    0.378324 0.366126 0.786480 0.189147
H6    H     H_    0.621680 0.866135 0.213524 0.189148
H7    H     H_    0.248889 0.411593 0.637253 0.175078
H8    H     H_    0.751115 0.911586 0.362752 0.175076
C13   C     C_3   0.152792 0.258383 0.716846 0.285625
C14   C     C_3   0.847209 0.758377 0.283155 0.285628
C15   C     C_3   0.206147 0.939348 0.771699 -0.425057
C16   C     C_3   0.793850 0.439347 0.228297 -0.425057
C17   C     C_3   0.187502 0.136415 0.811657 -0.001732
C18   C     C_3   0.812498 0.636415 0.188342 -0.001730
H9    H     H_    0.140645 0.879050 0.730540 0.174589
H10   H     H_    0.859350 0.379045 0.269456 0.174593
H11   H     H_    0.231237 0.845136 0.835727 0.222404
H12   H     H_    0.768759 0.345139 0.164268 0.222403
C19   C     C_3   0.313098 0.146298 0.688141 -0.003892
C20   C     C_3   0.686901 0.646298 0.311859 -0.003893
C21   C     C_3   0.227058 0.265790 0.646423 -0.292369
C22   C     C_3   0.772943 0.765782 0.353579 -0.292375
C23   C     C_3   0.279178 0.945067 0.700890 -0.333189
C24   C     C_3   0.720818 0.445066 0.299106 -0.333189
H13   H     H_    0.338886 0.855346 0.732274 0.181573
H14   H     H_    0.661108 0.355351 0.267719 0.181573
H15   H     H_    0.248389 0.887021 0.626349 0.152992
H16   H     H_    0.751605 0.387013 0.373646 0.152995
H17   H     H_    0.089156 0.192375 0.673856 0.010094
H18   H     H_    0.910844 0.692365 0.326144 0.010092
H19   H     H_    0.196052 0.215465 0.570241 0.082891
H20   H     H_    0.803949 0.715451 0.429759 0.082892
O11   O     O_R   0.912140 0.786650 0.084610 -0.496636
O12   O     O_R   0.087860 0.286650 0.915390 -0.496639
O13   O     O_R   0.102040 0.454810 0.110430 -0.529126
O14   O     O_R   0.897960 0.954810 0.889570 -0.529127
C25   C     C_R   0.134971 0.623579 0.136971 0.749716
C26   C     C_R   0.865029 0.123579 0.863029 0.749716
O15   O     O_R   0.913690 0.457060 0.096650 -0.547111
O16   O     O_R   0.086310 0.957060 0.903350 -0.547111
O17   O     O_R   0.898200 0.284560 0.901540 -0.538935
O18   O     O_R   0.101800 0.784560 0.098460 -0.538934
C27   C     C_R   0.884595 0.625809 0.117919 0.668952
C28   C     C_R   0.115404 0.125809 0.882081 0.668950
O19   O     O_3   0.995160 0.617270 0.936040 -0.371824
O20   O     O_3   0.004840 0.117270 0.063960 -0.371822
V3    V     V_3+5 0.000900 0.343280 0.011870 1.501806
V4    V     V_3+5 0.999100 0.843280 0.988130 1.501806
Br1   Br    Br    0.279200 0.447910 0.935826 -0.560845
Br2   Br    Br    0.720803 0.947918 0.064176 -0.560847
O21   O     O_3   0.132454 0.439988 0.744125 -0.615822
H21   H     H_    0.063970 0.451543 0.736289 0.281481
O22   O     O_3   0.867549 0.939983 0.255879 -0.615821
H22   H     H_    0.936033 0.951538 0.263719 0.281478

loop_
_geom_bond_atom_site_label_1
_geom_bond_atom_site_label_2
_ccdc_geom_bond_type
C3    C6    S    
C13   C21   S    
C16   H12   S    
O1    C3    A    
C15   C23   S    
C11   C19   S    
C2    O7    A    
C12   C20   S    
C23   H13   S    
O22   H22   S    
O5    C3    A    
O16   C28   A    
C15   C17   S    
C14   O22   S    
O12   V3    S    
O14   V4    S    
C7    C26   S    
C10   C18   S    
C17   C28   S    
C9    Br1   S    
O14   C26   A    
C8    C25   S    
C25   O18   A    
C13   O21   S    
O18   V4    S    
C4    C5    S    
O20   V3    S    
C14   C22   S    
C24   H14   S    
O2    C4    A    
O6    V2    S    
C11   H5    S    
O11   C27   A    
C20   C22   S    
C13   H17   S    
O15   C27   A    
O13   C25   A    
C16   H10   S    
O4    C2    A    
C23   H15   S    
O17   V3    S    
C13   C17   S    
O4    V2    S    
O19   V4    S    
C15   H9    S    
O21   H21   S    
O6    C4    A    
O1    V2    S    
O2    V1    S    
C19   C21   S    
O12   C28   A    
C1    C20   S    
O15   V3    S    
C12   H6    S    
C2    C19   S    
C9    H1    S    
H7    C21   S    
C10   H2    S    
C10   Br2   S    
O3    V1    S    
C9    C11   S    
C26   O17   A    
C14   C18   S    
H8    C22   S    
O3    C1    A    
C14   H18   S    
C11   H3    S    
C12   H4    S    
C16   C18   S    
O7    V1    S    
C1    O8    A    
O8    V2    S    
O5    V1    S    
C5    C7    T    
C16   C24   S    
C6    C8    T    
O16   V4    S    
O11   V4    S    
C15   H11   S    
C24   H16   S    
C9    C17   S    
C18   C27   S    
C21   H19   S    
C10   C12   S    
O9    V2    S    
C22   H20   S    
O10   V1    S    
C19   C23   S    
C20   C24   S    
O13   V3    S    
