data_mof_unit_48944.cif
_audit_creation_date              2012-12-11T20:48:59-0500
_audit_creation_method            fapswitch 2.2
_symmetry_space_group_name_H-M    P1
_symmetry_Int_Tables_number       1
_space_group_crystal_system       triclinic
_cell_length_a                    8.414479
_cell_length_b                    19.01172
_cell_length_c                    18.994512
_cell_angle_alpha                 102.265303
_cell_angle_beta                  93.95221
_cell_angle_gamma                 92.462161
_cell_volume                      2957.02749419

loop_
_atom_site_label
_atom_site_type_symbol
_atom_type_description
_atom_site_fract_x
_atom_site_fract_y
_atom_site_fract_z
_atom_type_partial_charge
Ba1   Ba    Ba6+2 0.153490 0.533960 0.468530 1.696932
Ba2   Ba    Ba6+2 0.656680 0.466030 0.531410 1.683544
C1    C     C_3   0.398112 0.817297 0.289153 0.180489
C2    C     C_R   0.105485 0.912927 0.566301 -0.068065
C3    C     C_R   0.259837 0.941586 0.596770 0.399473
C4    C     C_3   0.858957 0.735255 0.322093 0.726839
C5    C     C_R   0.322130 0.008433 0.585327 0.351953
C6    C     C_R   0.223765 0.050981 0.550482 -0.066166
C7    C     C_R   0.064873 0.026788 0.526949 -0.038319
C8    C     C_R   0.280848 0.118408 0.540807 -0.067039
C9    C     C_R   0.178083 0.167687 0.520468 -0.024302
C10   C     C_R   0.020477 0.143569 0.493463 0.052869
C11   C     C_R   0.965136 0.072199 0.495844 0.038944
C12   C     C_3   0.302656 0.751190 0.302959 0.716266
C13   C     C_R   0.228324 0.240839 0.528505 0.029444
C14   C     C_R   0.123690 0.288287 0.505882 -0.240206
C15   C     C_R   0.974186 0.264426 0.469820 -0.033992
C16   C     C_3   0.900056 0.812697 0.314054 0.375278
C17   C     C_R   0.919585 0.190339 0.463944 -0.037148
C18   C     C_R   0.851070 0.931219 0.505300 0.031449
C19   C     C_R   0.794871 0.859509 0.506706 0.008284
C20   C     C_R   0.895408 0.812281 0.536389 -0.069945
C21   C     C_R   0.047082 0.841926 0.569390 -0.027069
C22   C     C_R   0.768165 0.161247 0.431793 -0.067245
C23   C     C_3   0.428137 0.690669 0.669166 0.468540
C24   C     C_R   0.710612 0.091486 0.436570 0.036552
C25   C     C_R   0.809030 0.047070 0.469326 0.019631
C26   C     C_R   0.751486 0.977120 0.474702 0.047649
C27   C     C_R   0.554420 0.065608 0.410194 -0.080813
C28   C     C_3   0.932552 0.314878 0.295451 0.673663
C29   C     C_R   0.495103 0.998231 0.418472 -0.083947
C30   C     C_R   0.592985 0.953533 0.450176 0.070753
C31   C     C_R   0.636967 0.835497 0.478184 -0.047157
C32   C     C_R   0.534987 0.885108 0.456145 -0.099716
C33   C     C_R   0.586479 0.762248 0.471217 -0.023353
C34   C     C_3   0.387668 0.763917 0.711398 0.741362
C35   C     C_R   0.687053 0.715337 0.497130 -0.242828
C36   C     C_R   0.838306 0.737868 0.531277 0.027725
C37   C     C_2   0.579829 0.532818 0.301447 -0.304210
C38   C     C_3   0.675625 0.574346 0.257935 0.110875
C39   C     C_2   0.643734 0.549044 0.177748 -0.201602
C40   C     C_3   0.955415 0.239052 0.250645 0.407826
C41   C     C_2   0.518371 0.502592 0.148912 -0.118812
C42   C     C_2   0.421793 0.468804 0.199199 0.311560
C43   C     C_1   0.462327 0.484726 0.270820 0.017453
C44   C     C_R   0.364421 0.483902 0.928449 0.456095
C45   C     C_3   0.939468 0.270852 0.698852 0.984669
C46   C     C_R   0.470690 0.492191 0.069338 0.464703
C47   C     C_R   0.398241 0.511911 0.806997 -0.127050
C48   C     C_R   0.342854 0.508852 0.735202 0.030678
C49   C     C_R   0.094549 0.450052 0.753386 0.042153
C50   C     C_R   0.149561 0.450992 0.825238 -0.180857
C51   C     C_R   0.303626 0.481417 0.852531 -0.067951
C52   C     C_3   0.993039 0.622302 0.689591 0.347879
C53   C     C_R   0.193714 0.476484 0.708410 -0.221858
C54   C     C_3   0.962595 0.636685 0.769344 -0.352441
C55   C     C_3   0.452424 0.304170 0.287947 0.793734
C56   C     C_3   0.964083 0.217528 0.749922 0.759530
C57   C     C_3   0.435283 0.245812 0.216602 0.703571
C58   C     C_3   0.955708 0.198296 0.125644 0.192461
C59   C     C_3   0.373349 0.253482 0.382898 0.288439
C60   C     C_3   0.389427 0.229641 0.091848 0.229201
C61   C     C_3   0.342449 0.656476 0.204950 0.282796
C62   C     C_3   0.650087 0.815051 0.724091 0.075856
C63   C     C_3   0.181739 0.817191 0.775946 0.203541
C64   C     C_3   0.150457 0.146884 0.792037 0.128336
C65   C     C_3   0.403231 0.945129 0.705572 0.195336
C66   C     C_3   0.505104 0.090594 0.661237 0.165657
C67   C     C_3   0.471349 0.324724 0.712718 0.523547
C68   C     C_3   0.169453 0.426839 0.151598 0.342237
C69   C     C_3   0.954892 0.815349 0.196118 0.221220
C70   C     C_3   0.833310 0.422786 0.279994 0.253017
C71   C     C_3   0.479642 0.310717 0.789071 0.240425
C72   C     C_R   0.007482 0.956715 0.532519 -0.063529
H1    H     H_    0.188193 0.750689 0.271401 0.013285
H2    H     H_    0.559967 0.233056 0.204684 -0.035796
H3    H     H_    0.516334 0.826211 0.319386 0.057800
H4    H     H_    0.528412 0.694682 0.635061 -0.192743
H5    H     H_    0.321664 0.667363 0.633838 0.003628
H6    H     H_    0.354404 0.794894 0.670572 -0.025607
H7    H     H_    0.330294 0.865914 0.307773 -0.019062
H8    H     H_    0.839431 0.849446 0.355881 -0.031640
H9    H     H_    0.981254 0.251095 0.806082 -0.058747
H10   H     H_    0.373337 0.360326 0.707010 -0.132639
H11   H     H_    0.581357 0.354141 0.704902 0.086872
H12   H     H_    0.836538 0.207838 0.238753 -0.019586
H13   H     H_    0.361640 0.289445 0.800656 0.025410
H14   H     H_    0.512129 0.362599 0.828267 -0.021086
H15   H     H_    0.882622 0.733688 0.380180 -0.129222
H16   H     H_    0.162950 0.344571 0.513617 0.064658
H17   H     H_    0.405966 0.133427 0.550716 0.116194
H18   H     H_    0.121098 0.809576 0.596759 0.135202
H19   H     H_    0.692190 0.192985 0.404695 0.142287
H20   H     H_    0.476789 0.097607 0.383793 0.077002
H21   H     H_    0.372696 0.980675 0.399088 0.057878
H22   H     H_    0.410421 0.870454 0.440822 0.079374
H23   H     H_    0.032830 0.209471 0.283195 -0.112922
H24   H     H_    0.643801 0.659953 0.492592 0.059391
H25   H     H_    0.713909 0.575398 0.143948 0.121669
H26   H     H_    0.513902 0.538453 0.827157 0.116651
H27   H     H_    0.072521 0.428732 0.859421 0.094118
H28   H     H_    0.600270 0.549107 0.359936 0.074329
H29   H     H_    0.151333 0.475110 0.652974 0.047275
H30   H     H_    0.028439 0.829229 0.327424 -0.059764
H31   H     H_    0.045711 0.338026 0.326887 -0.028123
H32   H     H_    0.830257 0.211793 0.115065 0.034110
H33   H     H_    0.960746 0.140999 0.131079 0.000685
H34   H     H_    0.117081 0.607040 0.683214 -0.036362
H35   H     H_    0.020599 0.204436 0.078197 0.060869
H36   H     H_    0.410046 0.213131 0.413588 0.021665
H37   H     H_    0.345828 0.303266 0.421169 0.008719
H38   H     H_    0.265359 0.229820 0.347794 0.003519
H39   H     H_    0.476596 0.854485 0.210291 0.330564
H40   H     H_    0.250601 0.176042 0.201964 0.333966
H41   H     H_    0.351609 0.259821 0.048997 0.080353
H42   H     H_    0.316208 0.176560 0.081228 0.019246
H43   H     H_    0.520818 0.219619 0.086952 -0.017283
H44   H     H_    0.250031 0.683451 0.176548 0.017364
H45   H     H_    0.910224 0.576371 0.662119 0.079690
H46   H     H_    0.299029 0.598987 0.197045 0.026123
H47   H     H_    0.454651 0.659907 0.177475 0.110921
H48   H     H_    0.729555 0.769429 0.715617 0.083456
H49   H     H_    0.719163 0.862201 0.758850 0.062930
H50   H     H_    0.616837 0.829370 0.671432 0.036443
H51   H     H_    0.145084 0.843984 0.731439 -0.000224
H52   H     H_    0.259550 0.853747 0.819106 0.059509
H53   H     H_    0.071328 0.804421 0.800213 0.054406
H54   H     H_    0.842519 0.269684 0.603391 0.325695
H55   H     H_    0.149765 0.314112 0.730301 0.223706
H56   H     H_    0.052538 0.676961 0.801873 0.148741
H57   H     H_    0.836989 0.130048 0.703996 0.310004
H58   H     H_    0.053979 0.111664 0.806060 0.057158
H59   H     H_    0.193845 0.189626 0.839964 0.021096
H60   H     H_    0.251484 0.112882 0.777169 0.057517
H61   H     H_    0.611111 0.262489 0.849074 0.301025
H62   H     H_    0.332459 0.992986 0.723624 -0.037899
H63   H     H_    0.532170 0.960330 0.707097 0.086603
H64   H     H_    0.393073 0.913022 0.746808 0.052535
H65   H     H_    0.393398 0.116072 0.678257 0.082357
H66   H     H_    0.582896 0.131185 0.643857 0.161801
H67   H     H_    0.969986 0.586309 0.789596 0.071586
H68   H     H_    0.568479 0.077533 0.709392 0.067275
H69   H     H_    0.639984 0.737327 0.341367 0.233502
H70   H     H_    0.114674 0.384976 0.105714 0.077868
H71   H     H_    0.164409 0.479893 0.135618 -0.015285
H72   H     H_    0.096521 0.426559 0.197006 0.125184
H73   H     H_    0.988345 0.758519 0.182286 0.061003
H74   H     H_    0.061578 0.852776 0.215859 0.022124
H75   H     H_    0.903727 0.828707 0.145443 0.069618
H76   H     H_    0.800340 0.451097 0.237094 0.017654
H77   H     H_    0.920194 0.455186 0.320451 0.103077
H78   H     H_    0.841595 0.656759 0.776934 0.135176
H79   H     H_    0.728602 0.417603 0.310298 -0.030341
H80   H     H_    0.550340 0.340029 0.279738 -0.113769
N1    N     N_R   0.480067 0.534059 0.962105 -0.237252
N2    N     N_R   0.531279 0.538320 0.030935 -0.253061
N3    N     N_R   0.358620 0.440607 0.034730 -0.231196
N4    N     N_R   0.305905 0.436673 0.966017 -0.268955
O1    O     O_2   0.117290 0.676350 0.548250 -0.460950
O2    O     O_2   0.768874 0.461726 0.750897 -0.510724
O3    O     O_3   0.848008 0.327524 0.733896 -0.639665
O4    O     O_3   0.869060 0.586940 0.542720 -0.499249
O5    O     O_3   0.438990 0.460930 0.412890 -0.488327
O6    O     O_2   0.623700 0.539890 0.674570 -0.456404
O7    O     O_3   0.467702 0.649987 0.719510 -0.621412
O8    O     O_2   0.566256 0.244398 0.535195 -0.499577
O9    O     O_3   0.449916 0.259549 0.661047 -0.577746
O10   O     O_3   0.356990 0.628630 0.417250 -0.435248
O11   O     O_2   0.301209 0.748524 0.503348 -0.464136
O12   O     O_3   0.315580 0.344247 0.303557 -0.651365
O13   O     O_3   0.970074 0.685298 0.663439 -0.636961
O14   O     O_3   0.261239 0.762388 0.375527 -0.647847
O15   O     O_2   0.186600 0.460070 0.325400 -0.482105
O16   O     O_3   0.942970 0.591450 0.378940 -0.485019
O17   O     O_2   0.009232 0.549980 0.243457 -0.537934
O18   O     O_3   0.029785 0.246342 0.187498 -0.604695
O19   O     O_3   0.501344 0.270012 0.344170 -0.653022
O20   O     O_3   0.417157 0.809755 0.215295 -0.729691
O21   O     O_3   0.359306 0.181429 0.226013 -0.773768
O22   O     O_3   0.359097 0.272439 0.159728 -0.608790
O23   O     O_3   0.953276 0.685200 0.280975 -0.601840
O24   O     O_3   0.375521 0.685084 0.280142 -0.651138
O25   O     O_3   0.517681 0.797592 0.760409 -0.635068
O26   O     O_3   0.255616 0.752466 0.750662 -0.647637
O27   O     O_3   0.855113 0.234191 0.634388 -0.705837
O28   O     O_3   0.089286 0.295956 0.682987 -0.773215
O29   O     O_3   0.827667 0.171080 0.745383 -0.715392
O30   O     O_3   0.099960 0.177155 0.733058 -0.668411
O31   O     O_3   0.593191 0.260681 0.796423 -0.660314
O32   O     O_3   0.351229 0.902702 0.636317 -0.656862
O33   O     O_3   0.483220 0.028150 0.604501 -0.658631
O34   O     O_2   0.693010 0.323600 0.451730 -0.398683
O35   O     O_3   0.698512 0.718817 0.298682 -0.719595
O36   O     O_3   0.324618 0.407807 0.169271 -0.619176
O37   O     O_3   0.837912 0.824078 0.246374 -0.616143
O38   O     O_3   0.887436 0.356960 0.245523 -0.665117
O39   O     O_3   0.941240 0.413050 0.457220 -0.506513
O40   O     O_3   0.453310 0.371360 0.582690 -0.492885
O41   O     O_3   0.807788 0.309531 0.339057 -0.668686
O42   O     O_3   0.371310 0.539060 0.587050 -0.491155
O43   O     O_3   0.867330 0.408540 0.621000 -0.478579
P1    P     P_3+3 0.945300 0.665790 0.568510 0.970875
P2    P     P_3+3 0.360080 0.438780 0.334620 1.022397
P3    P     P_3+3 0.894127 0.597908 0.289687 0.967211
P4    P     P_3+3 0.865000 0.334200 0.431430 0.956888
P5    P     P_3+3 0.895226 0.412516 0.714484 0.941831
P6    P     P_3+3 0.384922 0.723670 0.434027 1.001846
P7    P     P_3+3 0.445929 0.559268 0.678840 0.960836
P8    P     P_3+3 0.424921 0.278797 0.574736 0.977512

loop_
_geom_bond_atom_site_label_1
_geom_bond_atom_site_label_2
_ccdc_geom_bond_type
C66   O33   S    
C69   H73   S    
C14   H16   S    
N3    N4    A    
C64   O30   S    
Ba2   O39   S    
O34   P4    D    
O39   P4    S    
Ba2   O4    S    
C65   O32   S    
C58   H32   S    
C5    C6    A    
C42   C43   D    
C59   O19   S    
C44   N1    A    
Ba1   O15   S    
C24   C25   A    
O4    P1    S    
Ba2   O42   S    
C63   H53   S    
C57   O22   S    
C33   C35   A    
C1    O20   S    
C22   C24   A    
O17   P3    D    
O8    P8    D    
C60   O22   S    
C27   H20   S    
C6    C8    A    
C62   H48   S    
C55   C57   S    
C19   C31   A    
Ba1   P1    S    
C13   C14   A    
C20   C36   A    
C53   H29   S    
O41   P4    S    
C10   C17   A    
Ba1   Ba2   S    
O40   P8    S    
C65   H64   S    
C7    C11   A    
H61   O31   S    
C60   H43   S    
C58   H35   S    
C12   O24   S    
C64   H60   S    
C62   O25   S    
C9    C13   A    
C71   H13   S    
C38   P3    S    
C14   C15   A    
C1    H7    S    
O43   P5    S    
C39   H25   S    
C67   C71   S    
C40   H12   S    
C1    H3    S    
C54   H78   S    
C41   C46   S    
C2    C72   A    
C21   H18   S    
C68   O36   S    
C37   C43   D    
H55   O28   S    
C68   H72   S    
H39   O20   S    
C16   O37   S    
O42   P7    S    
C61   O24   S    
C23   H5    S    
C19   C20   A    
C39   C41   D    
C5    O33   S    
Ba2   O43   S    
C28   C40   S    
C59   H36   S    
C16   H8    S    
C35   H24   S    
C61   H47   S    
C64   H58   S    
C36   P1    S    
C54   H56   S    
C4    C16   S    
C28   O38   S    
Ba1   O16   S    
C49   P5    S    
C4    O23   S    
C56   O30   S    
C49   C50   A    
C26   C30   A    
O9    P8    S    
C12   O14   S    
C34   H6    S    
C40   H23   S    
Ba2   O6    S    
C37   C38   S    
C3    C5    A    
C61   H44   S    
C6    C7    A    
O1    P1    D    
C18   C26   A    
H69   O35   S    
C23   O7    S    
C70   O38   S    
C62   H50   S    
C23   H4    S    
C63   H51   S    
C41   C42   S    
C67   O9    S    
C71   H14   S    
C60   H42   S    
C35   C36   A    
C44   N4    A    
C69   O37   S    
C29   C30   A    
C22   H19   S    
Ba1   O1    S    
C43   P2    S    
C70   H77   S    
O5    P2    S    
O16   P3    S    
C31   C32   A    
O10   P6    S    
C18   C72   A    
Ba2   P4    S    
C16   H30   S    
C10   C11   A    
C45   O28   S    
C66   H68   S    
C58   H33   S    
O12   P2    S    
C1    C12   S    
C68   H71   S    
C50   H27   S    
C34   O26   S    
C54   H67   S    
O7    P7    S    
C33   P6    S    
C38   C39   S    
Ba1   O4    S    
C34   O25   S    
C70   H76   S    
C28   H31   S    
O6    P7    D    
C58   O18   S    
O3    P5    S    
C66   H66   S    
O23   P3    S    
C45   O27   S    
C8    H17   S    
C15   C17   A    
Ba1   P2    S    
N1    N2    A    
C67   H11   S    
C50   C51   A    
C37   H28   S    
C55   O12   S    
C46   N3    A    
C64   H59   S    
C2    C21   A    
C45   O3    S    
C70   H79   S    
C47   H26   S    
C56   O29   S    
Ba2   O40   S    
C42   O36   S    
C52   O13   S    
O14   P6    S    
Ba1   O39   S    
Ba2   O34   S    
C2    C3    A    
Ba2   O5    S    
O11   P6    D    
C15   P4    S    
C9    C10   A    
C52   C54   S    
C4    H15   S    
C55   H80   S    
C68   H70   S    
C48   C53   A    
Ba1   O10   S    
C52   H34   S    
O15   P2    D    
C12   H1    S    
O13   P1    S    
C57   O21   S    
C17   C22   A    
C60   H41   S    
C13   P8    S    
C67   H10   S    
C40   O18   S    
C56   H9    S    
C63   H52   S    
C45   C56   S    
C55   O19   S    
C61   H46   S    
C30   C32   A    
C69   H75   S    
H40   O21   S    
C59   H37   S    
C47   C51   A    
C44   C51   S    
C69   H74   S    
C31   C33   A    
C28   O41   S    
C49   C53   A    
C46   N2    A    
C65   H63   S    
C65   H62   S    
C71   O31   S    
C8    C9    A    
C23   C34   S    
O2    P5    D    
Ba1   O42   S    
C62   H49   S    
C18   C19   A    
Ba1   O5    S    
C24   C27   A    
C27   C29   A    
C47   C48   A    
C7    C72   A    
H54   O27   S    
C20   C21   A    
C11   C25   A    
C66   H65   S    
C29   H21   S    
C52   H45   S    
C59   H38   S    
C57   H2    S    
C4    O35   S    
C32   H22   S    
C3    O32   S    
H57   O29   S    
C25   C26   A    
C63   O26   S    
C48   P7    S    
