data_mof_unit_15018.cif
_audit_creation_date              2012-12-10T20:41:03-0500
_audit_creation_method            fapswitch 2.2
_symmetry_space_group_name_H-M    P1
_symmetry_Int_Tables_number       1
_space_group_crystal_system       triclinic
_cell_length_a                    27.689598
_cell_length_b                    10.64636
_cell_length_c                    9.952094
_cell_angle_alpha                 89.22873
_cell_angle_beta                  90.103055
_cell_angle_gamma                 89.704758
_cell_volume                      2933.50204038

loop_
_atom_site_label
_atom_site_type_symbol
_atom_type_description
_atom_site_fract_x
_atom_site_fract_y
_atom_site_fract_z
_atom_type_partial_charge
C1    C     C_R   0.497525 0.260064 0.500588 0.890347
C2    C     C_R   0.974258 0.408953 0.542594 0.059004
C3    C     C_R   0.974470 0.631064 0.468907 0.016002
C4    C     C_R   0.406261 0.500429 0.499690 0.850953
C5    C     C_R   0.949006 0.521114 0.506881 0.070876
C6    C     C_R   0.947646 0.304907 0.590707 -0.220763
C7    C     C_R   0.897744 0.308314 0.595681 -0.143178
C8    C     C_R   0.872496 0.415305 0.552711 0.000304
C9    C     C_R   0.897808 0.522767 0.508626 -0.093153
C10   C     C_R   0.871868 0.631061 0.465957 -0.067127
C11   C     C_R   0.821019 0.625262 0.461692 0.524382
C12   C     C_R   0.278497 0.450441 0.389422 -0.091715
C13   C     C_R   0.822137 0.417012 0.553466 0.506177
C14   C     C_R   0.722543 0.426917 0.424639 -0.069861
C15   C     C_R   0.672451 0.421076 0.424384 -0.125643
C16   C     C_R   0.497849 0.739752 0.499165 0.882032
C17   C     C_R   0.669092 0.597942 0.575796 -0.173543
C18   C     C_R   0.719195 0.602381 0.578011 -0.091300
C19   C     C_R   0.746049 0.516819 0.502487 0.274705
C20   C     C_R   0.025150 0.404496 0.530471 0.044389
C21   C     C_R   0.050670 0.516552 0.500447 0.071135
C22   C     C_R   0.025653 0.630977 0.474079 0.062311
C23   C     C_R   0.253303 0.508010 0.493749 0.307663
C24   C     C_R   0.051545 0.291069 0.545957 -0.218589
C25   C     C_R   0.102986 0.738847 0.454100 -0.135954
C26   C     C_R   0.947861 0.737683 0.426088 -0.280750
C27   C     C_R   0.897529 0.739584 0.425978 0.242429
C28   C     C_R   0.593582 0.500847 0.500079 0.893803
C29   C     C_R   0.052922 0.741826 0.454668 -0.217173
C30   C     C_R   0.477982 0.061729 0.617965 0.093550
C31   C     C_R   0.487460 0.128768 0.499416 -0.169936
C32   C     C_R   0.485563 0.066567 0.375746 -0.165155
C33   C     C_R   0.485815 0.936908 0.374576 -0.175432
C34   C     C_R   0.101790 0.514162 0.497062 -0.053420
C35   C     C_R   0.488069 0.870824 0.497069 -0.102122
C36   C     C_R   0.479036 0.933322 0.616501 0.049040
C37   C     C_3   0.502855 0.922181 0.750911 -0.515521
C38   C     C_3   0.501093 0.064830 0.754081 0.333052
C39   C     C_R   0.457687 0.488121 0.071656 0.154648
C40   C     C_R   0.177529 0.400232 0.514757 0.507969
C41   C     C_R   0.541397 0.512845 0.068755 0.357088
C42   C     C_R   0.541380 0.483220 0.931257 0.376641
C43   C     C_R   0.457731 0.493742 0.929429 0.246912
C44   C     C_3   0.416875 0.584220 0.923322 -0.486877
C45   C     C_R   0.127044 0.400309 0.517454 -0.021887
C46   C     C_3   0.416556 0.579693 0.075796 -0.469467
C47   C     C_R   0.178245 0.621316 0.471739 0.506277
C48   C     C_R   0.278224 0.563367 0.599790 -0.090058
C49   C     C_R   0.328357 0.560828 0.601856 -0.202939
C50   C     C_R   0.328660 0.447793 0.391408 -0.213645
C51   C     C_3   0.864334 0.937322 0.496498 -0.668847
C52   C     C_R   0.101548 0.289341 0.539861 -0.133072
C53   C     C_R   0.127763 0.625641 0.473613 -0.021392
C54   C     C_R   0.353749 0.502362 0.498174 -0.019018
C55   C     C_R   0.645762 0.506399 0.500228 -0.029136
H1    H     H_    0.347801 0.402132 0.310601 0.159444
H2    H     H_    0.479824 0.872810 0.825644 0.254429
H3    H     H_    0.259146 0.407863 0.307225 0.147564
H4    H     H_    0.540304 0.884445 0.744386 0.194604
H5    H     H_    0.537461 0.107235 0.753346 0.145415
H6    H     H_    0.427320 0.677053 0.880294 0.212169
H7    H     H_    0.384120 0.541416 0.879281 0.219726
H8    H     H_    0.426840 0.670283 0.122079 0.220899
H9    H     H_    0.383292 0.536618 0.117907 0.212557
H10   H     H_    0.120156 0.200220 0.552997 0.191483
H11   H     H_    0.654519 0.349865 0.365961 0.179217
H12   H     H_    0.258661 0.608420 0.680181 0.147220
H13   H     H_    0.743175 0.361065 0.365486 0.159386
H14   H     H_    0.878987 0.225699 0.632517 0.186685
H15   H     H_    0.964357 0.219918 0.628544 0.140458
H16   H     H_    0.034582 0.200977 0.559658 0.139504
H17   H     H_    0.347224 0.606767 0.682500 0.151769
H18   H     H_    0.889187 0.898063 0.305843 0.221764
H19   H     H_    0.899009 0.971724 0.538405 0.198736
H20   H     H_    0.843454 0.889258 0.577216 0.256964
H21   H     H_    0.842937 0.019261 0.459455 0.252481
H22   H     H_    0.403590 0.056905 0.005657 0.381169
H23   H     H_    0.122220 0.826214 0.438564 0.192688
H24   H     H_    0.606857 0.746064 0.269171 0.372450
H25   H     H_    0.665093 0.427802 0.820329 0.385174
H26   H     H_    0.965080 0.821944 0.389754 0.141095
H27   H     H_    0.648503 0.665195 0.633406 0.186082
H28   H     H_    0.737204 0.671781 0.638582 0.163388
H29   H     H_    0.036800 0.833579 0.442962 0.140608
H30   H     H_    0.488235 0.116516 0.280554 0.222056
H31   H     H_    0.488582 0.889981 0.278935 0.206174
N1    N     N_R   0.201856 0.509796 0.492604 -0.358415
N2    N     N_R   0.797613 0.519988 0.506301 -0.355984
N3    N     N_R   0.499670 0.499140 0.142800 -0.186417
N4    N     N_R   0.499670 0.499180 0.857150 -0.194941
N5    N     N_2   0.873380 0.852701 0.386669 -0.248330
O1    O     O_R   0.500010 0.316790 0.614690 -0.550220
O2    O     O_R   0.571250 0.500000 0.614690 -0.547796
O3    O     O_R   0.571240 0.499960 0.385340 -0.549855
O4    O     O_2   0.202223 0.292019 0.535624 -0.543659
O5    O     O_2   0.490617 0.167736 0.997433 -0.313086
O6    O     O_2   0.434079 0.237791 0.821626 -0.291833
O7    O     O_3   0.421013 0.017971 0.929858 -0.565599
O8    O     O_2   0.631222 0.523178 0.169236 -0.262352
O9    O     O_2   0.608691 0.680915 0.000884 -0.269258
O10   O     O_3   0.575835 0.709964 0.239002 -0.542557
O11   O     O_2   0.608217 0.311504 0.995766 -0.268209
O12   O     O_2   0.797680 0.316405 0.600957 -0.559323
O13   O     O_2   0.578612 0.305409 0.766252 -0.310949
O14   O     O_3   0.637074 0.484890 0.831692 -0.508149
O15   O     O_2   0.203633 0.727344 0.448714 -0.547202
O16   O     O_2   0.794937 0.722244 0.410901 -0.513540
O17   O     O_R   0.500000 0.316760 0.385350 -0.618847
O18   O     O_R   0.428760 0.500040 0.614660 -0.606818
O19   O     O_R   0.428750 0.500000 0.385310 -0.633439
O20   O     O_R   0.500000 0.683240 0.614650 -0.635183
O21   O     O_R   0.499990 0.683210 0.385310 -0.577732
S1    S     S_3+6 0.461137 0.126757 0.879065 0.034510
S2    S     S_3+6 0.590861 0.606662 0.120255 0.088845
S3    S     S_3+6 0.591394 0.391157 0.878650 0.104905
Zn1   Zn    Zn3+2 0.500000 0.500020 0.653130 1.058479
Zn2   Zn    Zn3+2 0.500000 0.499980 0.346870 1.034580

loop_
_geom_bond_atom_site_label_1
_geom_bond_atom_site_label_2
_ccdc_geom_bond_type
C10   C27   A    
C24   C52   A    
C41   N3    A    
C4    O18   A    
C8    C13   A    
C22   C29   A    
C41   C42   A    
C35   C36   A    
C51   H19   S    
C41   S2    S    
C43   C44   S    
O8    S2    D    
C7    C8    A    
C12   C23   A    
C26   C27   A    
C50   C54   A    
C40   N1    A    
C36   C37   S    
C51   H20   S    
C17   H27   S    
C16   C35   S    
O21   Zn2   S    
O3    Zn2   S    
C49   C54   A    
C1    C31   S    
C30   C38   S    
C28   O3    A    
C18   C19   A    
O11   S3    D    
O18   Zn1   S    
C51   N5    S    
C20   C24   A    
C8    C9    A    
C49   H17   S    
C27   N5    S    
O20   Zn1   S    
N4    Zn1   S    
C13   O12   S    
C9    C10   A    
C17   C55   A    
C47   C53   A    
C12   H3    S    
C23   N1    S    
C21   C22   A    
O10   S2    S    
C2    C6    A    
C14   C19   A    
O19   Zn2   S    
C28   C55   S    
C44   C46   S    
C17   C18   A    
C25   C29   A    
C40   C45   A    
C43   N4    A    
C2    C20   A    
C25   H23   S    
O9    S2    D    
C51   H21   S    
H18   N5    S    
C29   H29   S    
C19   N2    S    
C38   S1    S    
O7    S1    S    
C39   C43   A    
C21   C34   A    
C45   C52   A    
C44   H7    S    
C15   H11   S    
H25   O14   S    
C50   H1    S    
C46   H9    S    
C28   O2    A    
C42   N4    A    
O2    Zn1   S    
C15   C55   A    
C33   H31   S    
C5    C9    A    
C37   C38   S    
O13   S3    D    
C31   C32   A    
C11   N2    A    
C47   O15   S    
C18   H28   S    
H22   O7    S    
C34   C45   A    
O1    Zn1   S    
C37   H4    S    
C39   C46   S    
C38   H5    S    
C48   C49   A    
N3    Zn2   S    
C1    O1    A    
C11   O16   S    
O5    S1    D    
C2    C5    A    
C40   O4    S    
O6    S1    D    
C16   O21   A    
C6    H15   S    
C4    O19   A    
C23   C48   A    
C4    C54   S    
O17   Zn2   S    
O14   S3    S    
C3    C26   A    
C25   C53   A    
C3    C5    A    
C7    H14   S    
C12   C50   A    
C6    C7    A    
C44   H6    S    
C26   H26   S    
C30   C36   A    
C46   H8    S    
C32   C33   A    
C30   C31   A    
C32   H30   S    
C13   N2    A    
C33   C35   A    
C48   H12   S    
C10   C11   A    
C1    O17   A    
C42   S3    S    
C20   C21   A    
C24   H16   S    
C34   C53   A    
C14   H13   S    
C14   C15   A    
H24   O10   S    
C3    C22   A    
C39   N3    A    
C37   H2    S    
C52   H10   S    
C16   O20   A    
C47   N1    A    
