data_mof_unit_58023.cif
_audit_creation_date              2012-12-11T15:54:44-0500
_audit_creation_method            fapswitch 2.2
_symmetry_space_group_name_H-M    P1
_symmetry_Int_Tables_number       1
_space_group_crystal_system       triclinic
_cell_length_a                    6.939437
_cell_length_b                    14.662152
_cell_length_c                    16.000523
_cell_angle_alpha                 90.070882
_cell_angle_beta                  90.423252
_cell_angle_gamma                 89.761307
_cell_volume                      1627.94676373

loop_
_atom_site_label
_atom_site_type_symbol
_atom_type_description
_atom_site_fract_x
_atom_site_fract_y
_atom_site_fract_z
_atom_type_partial_charge
O1    O     O_R   0.638180 0.333920 0.163320 -0.520999
O2    O     O_R   0.361820 0.666080 0.836680 -0.518996
O3    O     O_R   0.308470 0.344960 0.336080 -0.551487
O4    O     O_R   0.691530 0.655040 0.663920 -0.548366
O5    O     O_R   0.138140 0.166110 0.336680 -0.536851
O6    O     O_R   0.861860 0.833890 0.663320 -0.539807
C1    C     C_R   0.477728 0.367387 0.364849 0.661823
C2    C     C_R   0.522302 0.633066 0.634771 0.685306
O7    O     O_R   0.308460 0.344950 0.163930 -0.540394
O8    O     O_R   0.691540 0.655050 0.836070 -0.539354
O9    O     O_R   0.138140 0.166100 0.163310 -0.537567
O10   O     O_R   0.861860 0.833900 0.836690 -0.540281
C3    C     C_R   0.478166 0.371192 0.138283 0.726971
C4    C     C_R   0.523937 0.636270 0.867777 0.727793
O11   O     O_R   0.638180 0.333930 0.336700 -0.547999
O12   O     O_R   0.361820 0.666070 0.663300 -0.540146
O13   O     O_3   0.471670 0.191340 0.250000 -0.367631
O14   O     O_3   0.528330 0.808660 0.750000 -0.375623
V1    V     V_3+5 0.196830 0.260900 0.250000 1.414095
V2    V     V_3+5 0.803170 0.739100 0.750000 1.433903
O15   O     O_R   0.808420 0.155070 0.163920 -0.544556
O16   O     O_R   0.191580 0.844930 0.836080 -0.552919
C5    C     C_R   0.977355 0.132726 0.135062 0.693809
C6    C     C_R   0.022289 0.868374 0.863959 0.663315
O17   O     O_R   0.808420 0.155080 0.336070 -0.538691
O18   O     O_R   0.191580 0.844920 0.663930 -0.540222
C7    C     C_R   0.978178 0.134691 0.365887 0.693468
C8    C     C_R   0.021693 0.865573 0.634243 0.690936
V3    V     V_3+5 0.696830 0.239130 0.250000 1.426958
V4    V     V_3+5 0.303170 0.760870 0.750000 1.434262
O19   O     O_3   0.971850 0.308690 0.250010 -0.378711
O20   O     O_3   0.028150 0.691310 0.749990 -0.360513
H1    H     H_    0.678106 0.852531 0.274056 0.118287
H2    H     H_    0.301248 0.153051 0.729517 0.123044
C9    C     C_R   0.152037 0.177326 0.527834 -0.186551
C10   C     C_R   0.823947 0.827685 0.475756 -0.186002
C11   C     C_R   0.234218 0.199789 0.605171 0.014728
C12   C     C_R   0.731286 0.807906 0.400055 0.023240
C13   C     C_R   0.240495 0.135650 0.668984 -0.156073
C14   C     C_R   0.741351 0.869016 0.334056 -0.173379
C15   C     C_R   0.165971 0.048933 0.656197 -0.148621
C16   C     C_R   0.832510 0.952263 0.344476 -0.141620
C17   C     C_R   0.085991 0.023102 0.578062 0.072402
C18   C     C_R   0.912420 0.977896 0.422573 0.072271
C19   C     C_R   0.077677 0.088848 0.512499 0.060451
C20   C     C_R   0.914974 0.913093 0.488913 0.059192
C21   C     C_R   0.007919 0.934648 0.566007 -0.175997
C22   C     C_R   0.991264 0.066028 0.434414 -0.176065
H3    H     H_    0.145194 0.230113 0.480709 0.111114
H4    H     H_    0.821173 0.775938 0.523732 0.115252
H5    H     H_    0.168996 0.003438 0.709249 0.119049
H6    H     H_    0.838185 0.996076 0.290294 0.115528
C23   C     C_R   0.177069 0.981031 0.962461 -0.177664
C24   C     C_R   0.822153 0.019998 0.036574 -0.157218
H7    H     H_    0.316317 0.966960 0.935071 0.117931
H8    H     H_    0.683042 0.033649 0.064272 0.117055
C25   C     C_R   0.166095 0.043973 0.028195 -0.147856
C26   C     C_R   0.833191 0.956938 0.970919 -0.146504
H9    H     H_    0.297438 0.076766 0.049103 0.121067
H10   H     H_    0.702048 0.923683 0.950365 0.115433
C27   C     C_R   0.988440 0.064522 0.066076 -0.043384
C28   C     C_R   0.010798 0.936711 0.932818 -0.051605
C29   C     C_R   0.321792 0.479671 0.462950 -0.109550
C30   C     C_R   0.678274 0.521862 0.535697 -0.123499
H11   H     H_    0.182030 0.464614 0.435859 0.101180
H12   H     H_    0.818108 0.537018 0.562658 0.111321
C31   C     C_R   0.332683 0.543387 0.528133 -0.074725
C32   C     C_R   0.667393 0.458249 0.470484 -0.122424
H13   H     H_    0.200878 0.575618 0.549057 0.103258
H14   H     H_    0.799284 0.426197 0.449422 0.107807
C33   C     C_R   0.511039 0.565102 0.565649 -0.021826
C34   C     C_R   0.488979 0.436060 0.433359 -0.028863
C35   C     C_R   0.330877 0.497352 0.050231 -0.284783
C36   C     C_R   0.682930 0.533941 0.975307 -0.268607
H15   H     H_    0.194817 0.485140 0.079358 0.200243
H16   H     H_    0.821880 0.547840 0.947824 0.194435
C37   C     C_R   0.345658 0.568859 0.992085 0.455868
C38   C     C_R   0.674843 0.477717 0.046413 0.453768
C39   C     C_R   0.516147 0.577267 0.944222 -0.219582
C40   C     C_R   0.493844 0.447885 0.076395 -0.229763
O21   O     O_3   0.193385 0.630160 0.985820 -0.577461
C41   C     C_3   0.253063 0.719318 0.010093 0.106377
H17   H     H_    0.136351 0.766872 0.991800 0.123492
H18   H     H_    0.382852 0.742903 0.976538 0.109638
C42   C     C_3   0.282930 0.730411 0.104820 -0.372843
H19   H     H_    0.142063 0.745243 0.133761 0.207149
H20   H     H_    0.344885 0.667755 0.133324 0.205276
C43   C     C_3   0.414689 0.810523 0.125078 -0.835915
H21   H     H_    0.564294 0.795574 0.104740 0.227682
H22   H     H_    0.414098 0.822334 0.193493 0.238277
H23   H     H_    0.362225 0.873486 0.093755 0.236502
O22   O     O_3   0.846321 0.455105 0.086001 -0.569956
C44   C     C_3   0.859107 0.498479 0.165680 0.125734
H24   H     H_    0.995417 0.475085 0.195562 0.154964
H25   H     H_    0.742408 0.478407 0.208801 0.113955
C45   C     C_3   0.860876 0.602729 0.160850 -0.421647
H26   H     H_    0.950013 0.624198 0.107539 0.240222
H27   H     H_    0.711851 0.628478 0.150197 0.196758
C46   C     C_3   0.939007 0.643199 0.242260 -0.813486
H28   H     H_    0.918018 0.718216 0.242250 0.236522
H29   H     H_    0.862827 0.613822 0.296572 0.247720
H30   H     H_    0.095203 0.627837 0.249093 0.234049
C47   C     C_1   0.310084 0.289487 0.620362 0.278589
N1    N     N_1   0.371667 0.361262 0.633649 -0.359515
C48   C     C_1   0.621834 0.725522 0.389731 0.261351
N2    N     N_1   0.532293 0.659908 0.380356 -0.376722

loop_
_geom_bond_atom_site_label_1
_geom_bond_atom_site_label_2
_ccdc_geom_bond_type
C7    C22   S    
C26   C28   A    
V4    O20   S    
C29   H11   S    
C8    C21   S    
C44   H24   S    
O13   V3    S    
O4    C2    A    
V1    O19   S    
O21   C41   S    
C13   C15   A    
C42   H19   S    
O9    V1    S    
C36   H16   S    
C30   C32   A    
C9    C11   A    
O3    C1    A    
C24   C26   A    
C38   C40   A    
C19   C22   A    
C26   H10   S    
C45   C46   S    
C30   C33   A    
O7    C3    A    
O5    C7    A    
O7    V1    S    
O6    C8    A    
O8    V2    S    
C45   H27   S    
C9    H3    S    
O3    V1    S    
O14   V4    S    
C31   C33   A    
C42   H20   S    
C3    C40   S    
C2    O12   A    
V3    O19   S    
C15   C17   A    
C16   C18   A    
C18   C20   A    
O11   V3    S    
C24   H8    S    
C23   H7    S    
O17   V3    S    
C29   C31   A    
H1    C14   S    
H2    C13   S    
O8    C4    A    
C1    C34   S    
C11   C47   S    
C23   C25   A    
C1    O11   A    
C38   O22   S    
O15   V3    S    
C31   H13   S    
C30   H12   S    
C23   C28   A    
C46   H28   S    
C43   H23   S    
C37   O21   S    
C32   C34   A    
C45   H26   S    
O10   V2    S    
O1    V3    S    
C37   C39   A    
C4    C39   S    
C29   C34   A    
C10   C20   A    
C17   C19   A    
C46   H29   S    
C43   H22   S    
O18   V4    S    
C44   C45   S    
C41   H18   S    
C36   C39   A    
O15   C5    A    
O16   C6    A    
O1    C3    A    
C35   H15   S    
O12   V4    S    
C9    C19   A    
C10   H4    S    
V2    O20   S    
C42   C43   S    
C20   C21   A    
C2    C33   S    
C6    C28   S    
O16   V4    S    
C14   C16   A    
C25   C27   A    
O5    V1    S    
C24   C27   A    
O17   C7    A    
C41   C42   S    
O6    V2    S    
C48   N2    T    
O10   C6    A    
O18   C8    A    
O2    V4    S    
C12   C48   S    
C10   C12   A    
C11   C13   A    
C12   C14   A    
C44   H25   S    
O9    C5    A    
O22   C44   S    
O13   V1    S    
C35   C40   A    
O14   V2    S    
O2    C4    A    
C25   H9    S    
O4    V2    S    
C5    C27   S    
C46   H30   S    
C43   H21   S    
C32   H14   S    
C41   H17   S    
C36   C38   A    
C47   N1    T    
C35   C37   A    
C17   C21   A    
C15   H5    S    
C18   C22   A    
C16   H6    S    
