data_mof_unit_50990.cif
_audit_creation_date              2013-03-05T16:01:22-0500
_audit_creation_method            fapswitch 2.2
_symmetry_space_group_name_H-M    P1
_symmetry_Int_Tables_number       1
_space_group_crystal_system       triclinic
_cell_length_a                    19.670406
_cell_length_b                    6.931427
_cell_length_c                    17.770263
_cell_angle_alpha                 90.362926
_cell_angle_beta                  108.054904
_cell_angle_gamma                 90.661356
_cell_volume                      2303.28766315

loop_
_atom_site_label
_atom_site_type_symbol
_atom_site_description
_atom_site_fract_x
_atom_site_fract_y
_atom_site_fract_z
_atom_type_partial_charge
O1    O     O_R   0.561700 0.369960 0.440190 -0.594277
O2    O     O_R   0.061700 0.630040 0.940190 -0.608411
O3    O     O_R   0.413790 0.033680 0.407460 -0.600793
O4    O     O_R   0.913790 0.966320 0.907460 -0.588749
O5    O     O_R   0.438300 0.869760 0.559810 -0.578761
O6    O     O_R   0.938300 0.130240 0.059810 -0.574066
C1    C     C_R   0.387629 0.200669 0.384175 0.873691
C2    C     C_R   0.888518 0.795015 0.882645 0.835840
O7    O     O_R   0.559630 0.039830 0.430710 -0.601219
O8    O     O_R   0.059630 0.960170 0.930710 -0.600659
O9    O     O_R   0.585190 0.875950 0.583220 -0.618238
O10   O     O_R   0.085190 0.124050 0.083220 -0.603274
C3    C     C_R   0.580888 0.209171 0.415265 0.973915
C4    C     C_R   0.081173 0.791439 0.915622 0.910751
O11   O     O_R   0.414810 0.363770 0.416780 -0.572201
O12   O     O_R   0.914810 0.636230 0.916780 -0.555362
O13   O     O_3   0.508210 0.205480 0.550010 -0.244253
O14   O     O_3   0.008210 0.794520 0.050010 -0.242946
V1    V     V_3+5 0.498480 0.928140 0.490720 1.210400
V2    V     V_3+5 0.998480 0.071860 0.990720 1.213359
O15   O     O_R   0.586210 0.546600 0.592540 -0.563946
O16   O     O_R   0.086210 0.453400 0.092540 -0.596584
C5    C     C_R   0.612127 0.716852 0.616835 0.829912
C6    C     C_R   0.114471 0.287911 0.114251 0.771553
O17   O     O_R   0.440370 0.540460 0.569290 -0.563857
O18   O     O_R   0.940370 0.459540 0.069290 -0.558850
C7    C     C_R   0.419709 0.708604 0.585482 0.948878
C8    C     C_R   0.919499 0.290844 0.085213 0.977338
V3    V     V_3+5 0.501520 0.428910 0.509280 1.253494
V4    V     V_3+5 0.001520 0.571090 0.009280 1.240820
O19   O     O_3   0.491790 0.701440 0.449990 -0.270048
O20   O     O_3   0.991790 0.298560 0.949990 -0.256111
C9    C     C_R   0.275353 0.884025 0.669115 -0.116704
C10   C     C_R   0.773713 0.113991 0.167687 -0.121570
H1    H     H_    0.237342 0.000368 0.657071 0.119746
H2    H     H_    0.735205 0.995933 0.155571 0.116493
C11   C     C_R   0.321982 0.869284 0.623776 -0.077896
C12   C     C_R   0.820856 0.127524 0.122848 -0.091059
H3    H     H_    0.318803 0.975740 0.578486 0.152659
H4    H     H_    0.817537 0.018826 0.077729 0.149302
C13   C     C_R   0.371064 0.717735 0.635249 -0.313837
C14   C     C_R   0.870640 0.280920 0.134641 -0.316116
C15   C     C_R   0.372906 0.580704 0.694803 0.373074
C16   C     C_R   0.872644 0.420986 0.193764 0.375875
C17   C     C_R   0.326341 0.598193 0.740489 -0.236372
C18   C     C_R   0.825539 0.405179 0.238870 -0.238735
H5    H     H_    0.329549 0.493803 0.786527 0.150459
H6    H     H_    0.829004 0.512045 0.284702 0.149998
C19   C     C_R   0.276585 0.748025 0.727804 0.044406
C20   C     C_R   0.775154 0.253195 0.226056 0.051227
C21   C     C_R   0.195828 0.592022 0.796419 -0.137124
C22   C     C_R   0.694718 0.409033 0.294446 -0.140975
H7    H     H_    0.207919 0.451471 0.777326 0.105848
H8    H     H_    0.706983 0.549195 0.275002 0.104688
C23   C     C_R   0.148932 0.602416 0.841545 -0.137114
C24   C     C_R   0.648106 0.398581 0.339992 -0.101454
H9    H     H_    0.127099 0.469321 0.856613 0.133591
H10   H     H_    0.626528 0.531237 0.354974 0.131257
C25   C     C_R   0.130250 0.781690 0.866496 -0.127792
C26   C     C_R   0.629474 0.219610 0.365570 -0.127972
C27   C     C_R   0.159766 0.950472 0.844859 -0.135723
C28   C     C_R   0.658483 0.051214 0.343895 -0.130809
H11   H     H_    0.147026 0.091007 0.863355 0.126631
H12   H     H_    0.645684 0.910896 0.362747 0.128904
C29   C     C_R   0.206998 0.939971 0.799925 -0.129334
C30   C     C_R   0.705358 0.061783 0.298555 -0.125375
H13   H     H_    0.229725 0.072556 0.785688 0.107949
H14   H     H_    0.727788 0.929594 0.284447 0.108263
C31   C     C_R   0.225844 0.760468 0.775235 0.144585
C32   C     C_R   0.724353 0.240950 0.273430 0.141678
C33   C     C_2   0.713457 0.890867 0.713274 -0.175213
C34   C     C_2   0.202710 0.136541 0.227532 -0.118597
C35   C     C_2   0.674427 0.726317 0.690072 0.291749
C36   C     C_2   0.182792 0.292899 0.181574 0.346406
H15   H     H_    0.695958 0.023396 0.681225 0.150048
H16   H     H_    0.168865 0.007880 0.215856 0.115599
C37   C     C_2   0.776981 0.906198 0.785669 -0.207515
C38   C     C_2   0.264998 0.139369 0.301035 -0.232040
C39   C     C_2   0.829976 0.775280 0.806416 0.142970
C40   C     C_2   0.331758 0.203670 0.306658 0.170430
H17   H     H_    0.779805 0.031739 0.823460 0.136906
H18   H     H_    0.255082 0.083601 0.353755 0.107116
O21   O     O_3   0.692837 0.560024 0.734251 -0.580111
C41   C     C_3   0.650315 0.544897 0.785008 0.280843
H19   H     H_    0.592424 0.535642 0.750600 0.123451
H20   H     H_    0.659979 0.670696 0.826546 0.080542
C42   C     C_3   0.669937 0.362462 0.833614 -0.797322
H21   H     H_    0.727576 0.366886 0.868544 0.237659
H22   H     H_    0.637686 0.350526 0.874822 0.225433
H23   H     H_    0.658905 0.233877 0.793853 0.244862
O22   O     O_3   0.221553 0.465001 0.206305 -0.605124
C43   C     C_3   0.229116 0.574148 0.142107 0.271129
H24   H     H_    0.183423 0.673393 0.120439 0.119356
H25   H     H_    0.233646 0.481488 0.092368 0.092134
C44   C     C_3   0.295833 0.701476 0.170269 -0.734712
H26   H     H_    0.344531 0.612855 0.187175 0.286275
H27   H     H_    0.298403 0.798542 0.121734 0.223567
H28   H     H_    0.294518 0.789926 0.222079 0.253210
N1    N     N_R   0.834176 0.622345 0.752531 0.277400
O23   O     O_R   0.822386 0.658024 0.677770 -0.361919
O24   O     O_R   0.857408 0.453109 0.779089 -0.361243
N2    N     N_R   0.354290 0.244666 0.238275 0.251783
O25   O     O_R   0.417329 0.320978 0.248408 -0.427687
O26   O     O_R   0.319899 0.172408 0.168990 -0.424580
N3    N     N_R   0.423061 0.426585 0.711919 0.221578
O27   O     O_R   0.468366 0.413560 0.782672 -0.429697
O28   O     O_R   0.411355 0.276360 0.665214 -0.401182
N4    N     N_R   0.923769 0.576422 0.211029 0.231049
O29   O     O_R   0.973766 0.582518 0.279044 -0.383330
O30   O     O_R   0.910797 0.730500 0.167795 -0.399237

loop_
_geom_bond_atom_site_label_1
_geom_bond_atom_site_label_2
_geom_bond_distance
_ccdc_geom_bond_type
C30   H14   1.082611 S    
C42   H21   1.111045 S    
C23   C25   1.407232 A    
O13   V3    1.702787 S    
C44   H26   1.105759 S    
C41   C42   1.520697 S    
C34   H16   1.086238 S    
V1    O19   1.712341 S    
C44   H28   1.110024 S    
C3    C26   1.490238 S    
C4    C25   1.490541 S    
N3    O28   1.300446 A    
O9    V1    2.006454 S    
C39   N1    1.444169 S    
C12   H4    1.083294 S    
C41   H20   1.114604 S    
C12   C14   1.406888 A    
O3    C1    1.289802 A    
C38   C40   1.355607 D    
C9    C19   1.405066 A    
O7    C3    1.300701 A    
N4    O29   1.300540 A    
C26   C28   1.407936 A    
C15   N3    1.431587 S    
C8    C14   1.490769 S    
C27   H11   1.082752 S    
C7    C13   1.492293 S    
C34   C38   1.488208 S    
C9    H1    1.082633 S    
O5    C7    1.300026 A    
O7    V1    1.991839 S    
O6    C8    1.298620 A    
O21   C41   1.411009 S    
O8    V2    1.997373 S    
C29   H13   1.082595 S    
C2    C39   1.485551 S    
C28   H12   1.082736 S    
O3    V1    2.003361 S    
O14   V4    1.691648 S    
C17   C19   1.406046 A    
C24   H10   1.082806 S    
C21   C23   1.399482 A    
O4    C2    1.302048 A    
C16   N4    1.430310 S    
C2    O12   1.293786 A    
C19   C31   1.495526 S    
C13   C15   1.418876 A    
C14   C16   1.417210 A    
C5    C35   1.486025 S    
C43   H25   1.115627 S    
C22   H8    1.082579 S    
O11   V3    2.012439 S    
C17   H5    1.083228 S    
O17   V3    1.996997 S    
C18   H6    1.083249 S    
C25   C27   1.407830 A    
C10   C20   1.405749 A    
C28   C30   1.401563 A    
C41   H19   1.113980 S    
C34   C36   1.348240 D    
O8    C4    1.302766 A    
O22   C43   1.417560 S    
C33   C35   1.355695 D    
C1    O11   1.298221 A    
C16   C18   1.404341 A    
O15   V3    2.013766 S    
C43   C44   1.520591 S    
C9    C11   1.400021 A    
C24   C26   1.407033 A    
C40   N2    1.445413 S    
C21   H7    1.082566 S    
C36   O22   1.400777 S    
C38   H18   1.086849 S    
N1    O23   1.301704 A    
C37   H17   1.086111 S    
O10   V2    1.995572 S    
O1    V3    1.995322 S    
C37   C39   1.354223 D    
N2    O26   1.300946 A    
C15   C17   1.405354 A    
N1    O24   1.301273 A    
O18   V4    1.991468 S    
O15   C5    1.296969 A    
O16   C6    1.288812 A    
O1    C3    1.299163 A    
C33   C37   1.492126 S    
V2    O20   1.723507 S    
C18   C20   1.406016 A    
O16   V4    2.036805 S    
C10   C12   1.400210 A    
C33   H15   1.085873 S    
C44   H27   1.110266 S    
O5    V1    1.992117 S    
O17   C7    1.298261 A    
O6    V2    1.994508 S    
N3    O27   1.300747 A    
O10   C6    1.306109 A    
O18   C8    1.296528 A    
O2    V4    1.992908 S    
C23   H9    1.082810 S    
C20   C32   1.494932 S    
V3    O19   2.150272 S    
V4    O20   2.134608 S    
C6    C36   1.496773 S    
C30   C32   1.407455 A    
C29   C31   1.408022 A    
O9    C5    1.295900 A    
C43   H24   1.110153 S    
O13   V1    2.164032 S    
C10   H2    1.082634 S    
N4    O30   1.300429 A    
O14   V2    2.179757 S    
C11   C13   1.407564 A    
N2    O25   1.301934 A    
O2    C4    1.299546 A    
C22   C32   1.407750 A    
O4    V2    1.982363 S    
C27   C29   1.402401 A    
C11   H3    1.083285 S    
C42   H23   1.110499 S    
C42   H22   1.110424 S    
C21   C31   1.407459 A    
O12   V4    2.025900 S    
C35   O21   1.385978 S    
C22   C24   1.400051 A    
C1    C40   1.472498 S    
