data_mof_unit_7549.cif
_audit_creation_date              2012-12-10T17:49:39-0500
_audit_creation_method            fapswitch 2.2
_symmetry_space_group_name_H-M    P1
_symmetry_Int_Tables_number       1
_space_group_crystal_system       triclinic
_cell_length_a                    10.528115
_cell_length_b                    10.710452
_cell_length_c                    9.968322
_cell_angle_alpha                 89.492925
_cell_angle_beta                  89.151293
_cell_angle_gamma                 93.878123
_cell_volume                      1121.28510578

loop_
_atom_site_label
_atom_site_type_symbol
_atom_type_description
_atom_site_fract_x
_atom_site_fract_y
_atom_site_fract_z
_atom_type_partial_charge
C1    C     C_R   0.506837 0.260157 0.501193 0.987695
C2    C     C_3   0.967946 0.601662 0.447132 0.702613
C3    C     C_3   0.045471 0.506559 0.372877 -0.249645
C4    C     C_3   0.122988 0.495966 0.501138 -0.077212
C5    C     C_R   0.549130 0.109964 0.751896 -0.107526
C6    C     C_R   0.518120 0.047981 0.872857 -0.123218
C7    C     C_R   0.446904 0.933936 0.872181 -0.061039
C8    C     C_R   0.419687 0.875676 0.750598 -0.115254
C9    C     C_R   0.461609 0.932899 0.627547 0.044839
C10   C     C_R   0.507713 0.058241 0.628085 0.133517
C11   C     C_R   0.507862 0.125743 0.504763 -0.204942
C12   C     C_R   0.257744 0.498186 0.500625 0.941353
C13   C     C_R   0.484284 0.063669 0.383793 -0.244614
C14   C     C_R   0.464201 0.936145 0.382538 0.665897
C15   C     C_R   0.461803 0.869262 0.503623 -0.288822
C16   C     C_R   0.344738 0.323439 0.148498 -0.294311
C17   C     C_R   0.273220 0.228087 0.087086 0.538531
C18   C     C_R   0.268749 0.223150 0.947959 -0.292636
C19   C     C_R   0.338681 0.316250 0.871847 0.512737
C20   C     C_R   0.423115 0.409593 0.931639 0.017092
C21   C     C_R   0.424562 0.410782 0.075733 0.004475
C22   C     C_R   0.567126 0.590577 0.066887 0.001046
C23   C     C_R   0.484593 0.737813 0.500430 0.910215
C24   C     C_R   0.568101 0.587855 0.924558 -0.162003
C25   C     C_R   0.742348 0.498994 0.499545 0.971176
C26   C     C_3   0.034846 0.387074 0.555403 -0.145383
C27   C     C_3   0.954556 0.399059 0.428459 -0.115843
C28   C     C_3   0.877305 0.495017 0.499752 -0.169747
C29   C     C_3   0.956050 0.484112 0.627692 -0.228577
C30   C     C_3   0.047721 0.592703 0.573967 -0.230702
H1    H     H_    0.415607 0.888998 0.965710 0.213099
H2    H     H_    0.363970 0.787004 0.753749 0.158452
H3    H     H_    0.332378 0.327282 0.254160 0.251604
H4    H     H_    0.623349 0.659179 0.866988 0.175404
H5    H     H_    0.066884 0.299209 0.599559 0.210119
H6    H     H_    0.916804 0.474666 0.731567 0.189195
H7    H     H_    0.090034 0.672441 0.632489 0.160648
H8    H     H_    0.084298 0.516436 0.268830 0.186893
H9    H     H_    0.481602 0.113391 0.288853 0.202231
H10   H     H_    0.607071 0.196843 0.757426 0.152944
H11   H     H_    0.545921 0.090360 0.967125 0.158289
N1    N     N_R   0.498800 0.498800 0.142780 -0.114417
N2    N     N_R   0.498760 0.498720 0.857170 -0.101107
O1    O     O_R   0.500000 0.316780 0.614690 -0.571778
O2    O     O_R   0.499990 0.316750 0.385360 -0.638849
O3    O     O_R   0.313960 0.499980 0.614650 -0.551111
O4    O     O_R   0.313940 0.499960 0.385310 -0.656569
O5    O     O_R   0.500010 0.683250 0.614640 -0.645823
O6    O     O_R   0.500000 0.683220 0.385310 -0.546899
O7    O     O_R   0.686060 0.500040 0.614690 -0.650259
O8    O     O_R   0.686040 0.500020 0.385350 -0.533175
Zn1   Zn    Zn3+2 0.500010 0.500020 0.653130 0.996838
Zn2   Zn    Zn3+2 0.499990 0.499980 0.346870 1.027672
C31   C     C_2   0.906400 0.288669 0.347853 0.942901
O9    O     O_2   0.982508 0.222339 0.295368 -0.520088
O10   O     O_R   0.775818 0.261157 0.333744 -0.817333
H12   H     H_    0.755880 0.184167 0.277388 0.349855
F1    F     F_    0.445652 0.878987 0.262788 -0.635973
C32   C     C_2   0.634839 0.701517 0.126823 0.995391
O11   O     O_2   0.626211 0.804481 0.074995 -0.619762
O12   O     O_R   0.714556 0.690410 0.235357 -0.722170
H13   H     H_    0.751054 0.774955 0.266842 0.386169
F2    F     F_    0.206368 0.141691 0.165386 -0.561644
C33   C     C_2   0.187331 0.122940 0.881216 1.023512
O13   O     O_2   0.104333 0.061847 0.945115 -0.534945
O14   O     O_R   0.205966 0.097093 0.745254 -0.761306
H14   H     H_    0.145716 0.026449 0.712372 0.338424
F3    F     F_    0.311508 0.317297 0.741957 -0.611021
F4    F     F_    0.933547 0.713518 0.393825 -0.645126

loop_
_geom_bond_atom_site_label_1
_geom_bond_atom_site_label_2
_ccdc_geom_bond_type
C4    C26   S    
C25   O8    A    
C19   F3    S    
C16   C21   A    
C16   H3    S    
C4    C12   S    
C2    F4    S    
C9    C10   A    
C31   O9    D    
C1    O1    A    
O7    Zn1   S    
C19   C20   A    
C1    C11   S    
C2    C30   S    
O4    Zn2   S    
C4    C30   S    
C1    O2    A    
C33   O13   D    
O1    Zn1   S    
C15   C23   S    
C17   C18   A    
C9    C15   A    
C27   C31   S    
O2    Zn2   S    
C32   O11   D    
C22   C32   S    
C22   N1    A    
C13   C14   A    
C17   F2    S    
C25   C28   S    
C11   C13   A    
C29   H6    S    
C18   C33   S    
C26   C27   S    
C29   C30   S    
C12   O4    A    
O6    Zn2   S    
C5    C10   A    
C28   C29   S    
C2    C3    S    
C6    C7    A    
C22   C24   A    
C3    C27   S    
N1    Zn2   S    
C5    C6    A    
C14   F1    S    
C13   H9    S    
C31   O10   S    
N2    Zn1   S    
C23   O6    A    
C7    C8    A    
O12   H13   S    
C3    C4    S    
C8    H2    S    
O3    Zn1   S    
C26   H5    S    
O5    Zn1   S    
C20   N2    A    
C7    H1    S    
O10   H12   S    
C30   H7    S    
C26   C29   S    
C12   O3    A    
C18   C19   A    
C10   C11   A    
C32   O12   S    
C27   C28   S    
C24   N2    A    
C25   O7    A    
C16   C17   A    
C2    C28   S    
C23   O5    A    
O14   H14   S    
C20   C21   A    
C5    H10   S    
C21   N1    A    
C24   H4    S    
C14   C15   A    
C3    H8    S    
C8    C9    A    
O8    Zn2   S    
C6    H11   S    
C33   O14   S    
