data_mof_unit_31857.cif
_audit_creation_date              2012-12-11T14:21:15-0500
_audit_creation_method            fapswitch 2.2
_symmetry_space_group_name_H-M    P1
_symmetry_Int_Tables_number       1
_space_group_crystal_system       triclinic
_cell_length_a                    11.573856
_cell_length_b                    11.480622
_cell_length_c                    19.569313
_cell_angle_alpha                 90.018527
_cell_angle_beta                  89.556685
_cell_angle_gamma                 60.03122
_cell_volume                      2252.51747145

loop_
_atom_site_label
_atom_site_type_symbol
_atom_type_description
_atom_site_fract_x
_atom_site_fract_y
_atom_site_fract_z
_atom_type_partial_charge
C1    C     C_R   0.639977 0.117390 0.599348 0.546439
C2    C     C_1   0.649976 0.683826 0.664215 0.001921
C3    C     C_1   0.126686 0.199251 0.859222 0.006575
C4    C     C_1   0.170973 0.170040 0.727690 -0.029405
C5    C     C_1   0.149870 0.182551 0.798887 -0.028304
C6    C     C_1   0.194674 0.160436 0.667351 0.002636
C7    C     C_1   0.679539 0.191276 0.860620 0.008783
C8    C     C_1   0.658344 0.167486 0.728977 -0.028795
C9    C     C_1   0.666296 0.181018 0.800257 -0.028323
C10   C     C_1   0.652270 0.149996 0.668663 0.003849
C11   C     C_R   0.642922 0.674564 0.193684 0.003687
C12   C     C_R   0.613095 0.743707 0.597993 0.544458
C13   C     C_R   0.556754 0.648719 0.235909 0.035278
C14   C     C_R   0.586108 0.624882 0.305381 0.019876
C15   C     C_R   0.723633 0.729103 0.293982 -0.148498
C16   C     C_R   0.719021 0.722381 0.223544 -0.171415
C17   C     C_R   0.441928 0.647317 0.212245 -0.073669
C18   C     C_R   0.376129 0.599717 0.253588 -0.145315
C19   C     C_R   0.422535 0.553049 0.318848 -0.126020
C20   C     C_R   0.528001 0.564048 0.344659 -0.078542
C21   C     C_R   0.658172 0.679419 0.335392 0.001797
C22   C     C_R   0.084100 0.234016 0.203108 0.004345
C23   C     C_R   0.240365 0.145314 0.598137 0.556246
C24   C     C_R   0.086717 0.335223 0.243126 0.022392
C25   C     C_R   0.168350 0.299390 0.300783 0.042412
C26   C     C_R   0.211026 0.067406 0.288393 -0.159903
C27   C     C_R   0.145534 0.101238 0.226507 -0.132871
C28   C     C_R   0.012704 0.471999 0.225109 -0.090385
C29   C     C_R   0.031572 0.569245 0.256010 -0.132550
C30   C     C_R   0.119821 0.534972 0.308406 -0.154275
C31   C     C_R   0.189297 0.402824 0.329773 -0.103296
C32   C     C_R   0.222688 0.163773 0.326463 0.007591
C33   C     C_R   0.674856 0.159711 0.189542 0.063939
C34   C     C_R   0.645161 0.113891 0.402237 0.533548
C35   C     C_R   0.783887 0.055715 0.227314 0.029817
C36   C     C_R   0.785521 0.073163 0.298297 -0.007450
C37   C     C_R   0.548003 0.230156 0.293850 -0.179917
C38   C     C_R   0.552398 0.238037 0.222827 -0.025064
C39   C     C_R   0.895728 0.939806 0.197475 0.041824
C40   C     C_R   0.016326 0.875781 0.232891 -0.176916
C41   C     C_R   0.023130 0.911393 0.299941 -0.143923
C42   C     C_R   0.907891 0.006808 0.333273 -0.086905
C43   C     C_R   0.663233 0.150497 0.332465 -0.018345
C44   C     C_R   0.082027 0.231111 0.928550 0.558223
C45   C     C_R   0.619450 0.735915 0.403479 0.531420
C46   C     C_R   0.708850 0.547321 0.922731 0.551932
C47   C     C_R   0.708939 0.206734 0.929953 0.562868
C48   C     C_R   0.031506 0.264994 0.133638 0.537743
C49   C     C_R   0.678468 0.615063 0.125042 0.554959
C50   C     C_R   0.706427 0.204979 0.124740 0.614884
C51   C     C_R   0.287176 0.124121 0.393192 0.547337
C52   C     C_1   0.698995 0.582409 0.851925 0.002598
C53   C     C_1   0.671710 0.645520 0.722450 -0.028020
C54   C     C_1   0.688811 0.609958 0.792089 -0.028073
Cr1   Cr    Cr6+3 0.404720 0.198220 0.499960 1.011392
Cr2   Cr    Cr6+3 0.698290 0.897110 0.500380 1.027467
Cr3   Cr    Cr6+3 0.396970 0.904720 0.499610 1.026511
Cr4   Cr    Cr6+3 0.926180 0.151990 0.028120 1.040948
Cr5   Cr    Cr6+3 0.921330 0.451820 0.027470 1.051423
Cr6   Cr    Cr6+3 0.626260 0.446870 0.028710 1.061433
H1    H     H_    0.775536 0.776689 0.315850 0.159977
H2    H     H_    0.977898 0.671480 0.239075 0.110673
H3    H     H_    0.135330 0.611024 0.332351 0.114401
H4    H     H_    0.261353 0.389549 0.367484 0.145284
H5    H     H_    0.452908 0.281452 0.318835 0.114103
H6    H     H_    0.104273 0.794746 0.209036 0.087815
H7    H     H_    0.116432 0.859992 0.327195 0.122766
H8    H     H_    0.914934 0.028938 0.386351 0.138666
H9    H     H_    0.398582 0.687420 0.163010 0.145013
H10   H     H_    0.777054 0.750851 0.192089 0.159702
H11   H     H_    0.290236 0.597435 0.234425 0.103829
H12   H     H_    0.373711 0.513730 0.350796 0.095131
H13   H     H_    0.558623 0.532774 0.396788 0.123774
H14   H     H_    0.256125 0.964341 0.305759 0.137164
H15   H     H_    0.939074 0.505499 0.186897 0.159069
H16   H     H_    0.145225 0.022359 0.196367 0.148838
O1    O     O_R   0.267740 0.231960 0.575440 -0.500114
O2    O     O_R   0.685970 0.784660 0.430010 -0.503128
O3    O     O_R   0.502530 0.767000 0.423990 -0.524552
O4    O     O_R   0.288330 0.026350 0.429250 -0.493298
O5    O     O_3   0.499990 0.000020 0.499980 -0.260925
O6    O     O_R   0.821500 0.119340 0.952830 -0.492353
O7    O     O_R   0.037130 0.162530 0.957360 -0.494346
O8    O     O_R   0.056440 0.344740 0.951340 -0.496127
O9    O     O_R   0.797900 0.560360 0.957470 -0.476929
O10   O     O_R   0.596130 0.579390 0.952730 -0.493380
O11   O     O_R   0.639060 0.321160 0.958670 -0.498886
O12   O     O_R   0.527280 0.186640 0.570530 -0.494829
O13   O     O_R   0.821240 0.124200 0.104370 -0.512905
O14   O     O_R   0.036890 0.167040 0.097840 -0.501420
O15   O     O_R   0.056180 0.349610 0.102880 -0.492463
O16   O     O_R   0.797660 0.564870 0.097950 -0.519881
O17   O     O_R   0.595880 0.584250 0.104270 -0.523281
O18   O     O_R   0.638830 0.325670 0.099150 -0.462274
O19   O     O_3   0.824590 0.350230 0.028100 -0.309925
O20   O     O_R   0.728090 0.003450 0.576380 -0.503616
O21   O     O_R   0.682970 0.789190 0.570490 -0.490727
O22   O     O_R   0.499290 0.771880 0.575530 -0.507311
O23   O     O_R   0.285330 0.030870 0.569730 -0.488096
O24   O     O_R   0.270980 0.227080 0.423890 -0.535902
O25   O     O_R   0.530280 0.182120 0.430050 -0.523654
O26   O     O_R   0.731330 0.998570 0.424830 -0.517359
C55   C     C_2   0.888797 0.874991 0.132842 0.233491
H17   H     H_    0.979183 0.793386 0.110378 0.091460
O27   O     O_2   0.782438 0.909350 0.105026 -0.489850
C56   C     C_2   0.425739 0.314561 0.184936 0.242246
H18   H     H_    0.334398 0.380448 0.212234 0.108763
O28   O     O_2   0.420123 0.299854 0.123497 -0.467009

loop_
_geom_bond_atom_site_label_1
_geom_bond_atom_site_label_2
_ccdc_geom_bond_type
C25   C31   A    
C22   C48   S    
C26   C32   A    
C41   C42   A    
Cr3   O3    S    
C23   O23   A    
C35   C36   A    
C44   O7    A    
C2    C12   S    
Cr2   O5    S    
C41   H7    S    
C53   C54   S    
C17   H9    S    
C26   C27   A    
C29   C30   A    
C14   C21   A    
C28   C29   A    
Cr4   O6    S    
C30   C31   A    
Cr1   O1    S    
C56   H18   S    
Cr3   O22   S    
C15   C16   A    
Cr3   O23   S    
C46   C52   S    
C18   H11   S    
Cr2   O2    S    
C7    C9    T    
C18   C19   A    
C47   O6    A    
Cr1   O12   S    
C51   O4    A    
C33   C35   A    
C36   C42   A    
C55   O27   D    
C19   C20   A    
C8    C9    S    
C48   O15   A    
C37   H5    S    
Cr1   O24   S    
C45   O2    A    
Cr1   O5    S    
C12   O22   A    
C46   O9    A    
Cr6   O17   S    
C25   C32   A    
C48   O14   A    
C30   H3    S    
C42   H8    S    
Cr3   O4    S    
C19   H12   S    
Cr5   O19   S    
Cr2   O21   S    
Cr6   O11   S    
C52   C54   T    
C21   C45   S    
C3    C44   S    
C34   O25   A    
C34   C43   S    
C14   C20   A    
C16   H10   S    
Cr5   O8    S    
C4    C6    T    
C39   C40   A    
Cr6   O10   S    
C50   O18   A    
Cr5   O15   S    
C3    C5    T    
C33   C50   S    
C23   O1    A    
C47   O11   A    
C38   C56   S    
C35   C39   A    
Cr4   O19   S    
Cr5   O9    S    
C32   C51   S    
C37   C38   A    
C11   C49   S    
C11   C16   A    
C50   O13   A    
C17   C18   A    
C15   H1    S    
C45   O3    A    
C34   O26   A    
C24   C25   A    
Cr4   O14   S    
C12   O21   A    
C40   C41   A    
C22   C27   A    
C22   C24   A    
C37   C43   A    
C49   O16   A    
C27   H16   S    
C51   O24   A    
Cr2   O20   S    
C29   H2    S    
C31   H4    S    
C1    C10   S    
C24   C28   A    
C4    C5    S    
C44   O8    A    
C2    C53   T    
C39   C55   S    
Cr1   O25   S    
C33   C38   A    
C13   C17   A    
Cr2   O26   S    
Cr4   O7    S    
C11   C13   A    
C56   O28   D    
C1    O12   A    
C1    O20   A    
C6    C23   S    
C26   H14   S    
C20   H13   S    
Cr3   O5    S    
Cr5   O16   S    
Cr4   O13   S    
Cr6   O19   S    
C15   C21   A    
C8    C10   T    
C55   H17   S    
C36   C43   A    
C40   H6    S    
C49   O17   A    
C13   C14   A    
C28   H15   S    
C7    C47   S    
C46   O10   A    
Cr6   O18   S    
