data_mof_unit_46559.cif
_audit_creation_date              2013-03-05T15:40:34-0500
_audit_creation_method            fapswitch 2.2
_symmetry_space_group_name_H-M    P1
_symmetry_Int_Tables_number       1
_space_group_crystal_system       triclinic
_cell_length_a                    7.828641
_cell_length_b                    8.562361
_cell_length_c                    11.4524
_cell_angle_alpha                 93.400688
_cell_angle_beta                  84.238962
_cell_angle_gamma                 93.71737
_cell_volume                      761.109930178

loop_
_atom_site_label
_atom_site_type_symbol
_atom_site_description
_atom_site_fract_x
_atom_site_fract_y
_atom_site_fract_z
_atom_type_partial_charge
O1    O     O_R   0.389250 0.738570 0.508280 -0.632243
O2    O     O_R   0.610750 0.261430 0.491720 -0.632239
O3    O     O_R   0.678390 0.711630 0.486650 -0.607099
O4    O     O_R   0.321610 0.288370 0.513350 -0.607102
C1    C     C_R   0.545493 0.794490 0.496877 0.949694
C2    C     C_R   0.454507 0.205510 0.503123 0.949697
O5    O     O_R   0.355430 0.513480 0.694040 -0.598192
O6    O     O_R   0.644570 0.486520 0.305960 -0.598189
O7    O     O_R   0.644570 0.486540 0.672410 -0.564750
O8    O     O_R   0.355430 0.513460 0.327590 -0.564754
C3    C     C_R   0.503571 0.504792 0.740461 0.843514
C4    C     C_R   0.496429 0.495211 0.259539 0.843518
Zn1   Zn    Zn3+2 0.306940 0.517990 0.514440 1.066990
Zn2   Zn    Zn3+2 0.693060 0.482010 0.485560 1.066995
H1    H     H_    0.062003 0.362795 0.888885 0.196226
H2    H     H_    0.938000 0.637223 0.111115 0.196226
C5    C     C_R   0.226809 0.620309 0.900916 -0.129913
C6    C     C_R   0.773195 0.379707 0.099085 -0.129895
C7    C     C_R   0.057073 0.596261 0.949696 -0.186646
C8    C     C_R   0.942931 0.403757 0.050304 -0.186643
C9    C     C_R   0.027211 0.555604 0.064020 -0.162863
C10   C     C_R   0.972792 0.444414 0.935981 -0.162872
C11   C     C_R   0.169036 0.555591 0.127602 0.328946
C12   C     C_R   0.830966 0.444425 0.872399 0.328954
C13   C     C_R   0.340200 0.528442 0.070871 -0.047203
C14   C     C_R   0.659802 0.471571 0.929130 -0.047207
C15   C     C_R   0.361371 0.550826 0.947303 0.012920
C16   C     C_R   0.638632 0.449188 0.052698 0.012911
C17   C     C_R   0.487561 0.486980 0.126693 -0.164409
C18   C     C_R   0.512440 0.513031 0.873307 -0.164411
H3    H     H_    0.253082 0.700493 0.830728 0.184241
H4    H     H_    0.746918 0.299514 0.169266 0.184233
H5    H     H_    0.985332 0.694807 0.929799 0.191766
H6    H     H_    0.014672 0.305210 0.070201 0.191765
C19   C     C_2   0.569470 0.957996 0.494967 -0.360236
C20   C     C_2   0.430530 0.042004 0.505033 -0.360239
H7    H     H_    0.700858 0.008695 0.485270 0.191845
H8    H     H_    0.299142 0.991305 0.514730 0.191845
N1    N     N_2   0.950330 0.457950 0.466250 -0.045898
N2    N     N_2   0.049670 0.542050 0.533750 -0.045900
H9    H     H_    0.983882 0.343245 0.457504 0.234418
H10   H     H_    0.016120 0.656755 0.542494 0.234421
N3    N     N_R   0.108176 0.525895 0.242406 0.216389
O9    O     O_R   0.033386 0.638213 0.305636 -0.440677
O10   O     O_R   0.077899 0.379224 0.266167 -0.476822
N4    N     N_R   0.891822 0.474117 0.757594 0.216390
O11   O     O_R   0.922112 0.620787 0.733831 -0.476828
O12   O     O_R   0.966595 0.361790 0.694363 -0.440674

loop_
_geom_bond_atom_site_label_1
_geom_bond_atom_site_label_2
_geom_bond_distance
_ccdc_geom_bond_type
O1    Zn1   1.958621 S    
O7    Zn2   2.133935 S    
H2    C9    1.100004 S    
C4    C17   1.527189 S    
C13   C15   1.431026 A    
N3    O10   1.302462 A    
C14   C16   1.431020 A    
C19   C20   1.334261 D    
O6    C4    1.331476 A    
N3    O9    1.302821 A    
C8    H6    1.090548 S    
C20   H8    1.087963 S    
C11   N3    1.385097 S    
N1    H9    1.029625 S    
C15   C18   1.427395 A    
O5    C3    1.331477 A    
O7    C3    1.298251 A    
O2    C2    1.281355 A    
O3    Zn2   1.976090 S    
O8    C4    1.298248 A    
O1    C1    1.281355 A    
C1    C19   1.401580 S    
N2    H10   1.029624 S    
C16   C17   1.427396 A    
C19   H7    1.087963 S    
C5    H3    1.083407 S    
C2    C20   1.401580 S    
C14   C18   1.446964 A    
N4    O12   1.302827 A    
C11   C13   1.455819 A    
C9    C11   1.387560 A    
C13   C17   1.446967 A    
O2    Zn2   1.958621 S    
C10   C12   1.387561 A    
C6    H4    1.083403 S    
C8    C10   1.368256 A    
C5    C15   1.406059 A    
O3    C1    1.288762 A    
O5    Zn1   2.131739 S    
C7    C10   1.426810 A    
C6    C16   1.406059 A    
C8    C9    1.426811 A    
C6    C8    1.396191 A    
O4    C2    1.288762 A    
C7    H5    1.090546 S    
N1    N2    1.304979 D    
N4    O11   1.302456 A    
Zn1   N2    2.026530 S    
O6    Zn2   2.131739 S    
C5    C7    1.396188 A    
Zn2   N1    2.026530 S    
H1    C10   1.100003 S    
O4    Zn1   1.976090 S    
C3    C18   1.527195 S    
C12   C14   1.455813 A    
C12   N4    1.385091 S    
C7    C9    1.368259 A    
O8    Zn1   2.133935 S    
