data_mof_unit_5176.cif
_audit_creation_date              2013-03-05T16:07:19-0500
_audit_creation_method            fapswitch 2.2
_symmetry_space_group_name_H-M    P1
_symmetry_Int_Tables_number       1
_space_group_crystal_system       triclinic
_cell_length_a                    6.962939
_cell_length_b                    13.714146
_cell_length_c                    20.163653
_cell_angle_alpha                 103.08104
_cell_angle_beta                  89.794388
_cell_angle_gamma                 90.584892
_cell_volume                      1875.37978399

loop_
_atom_site_label
_atom_site_type_symbol
_atom_site_description
_atom_site_fract_x
_atom_site_fract_y
_atom_site_fract_z
_atom_type_partial_charge
O1    O     O_R   0.506770 0.599700 0.449550 -0.582622
O2    O     O_R   0.179980 0.595740 0.587960 -0.575193
O3    O     O_R   0.004580 0.400300 0.550450 -0.615942
C1    C     C_R   0.347728 0.618252 0.614806 0.921947
O4    O     O_R   0.177380 0.611700 0.452380 -0.560480
O5    O     O_R   0.001970 0.416370 0.413900 -0.559764
C2    C     C_R   0.346943 0.638747 0.436055 1.055617
O6    O     O_R   0.509390 0.583630 0.586100 -0.608781
O7    O     O_3   0.337530 0.435890 0.487530 -0.281533
V1    V     V_3+5 0.064660 0.511890 0.502310 1.274665
O8    O     O_R   0.671950 0.404260 0.412040 -0.606771
C3    C     C_R   0.840697 0.382060 0.385017 0.978827
O9    O     O_R   0.674540 0.388300 0.547620 -0.605718
C4    C     C_R   0.843074 0.362838 0.564951 1.005821
V2    V     V_3+5 0.564030 0.488110 0.497690 1.234523
O10   O     O_3   0.841030 0.564110 0.512470 -0.246713
C5    C     C_R   0.898514 0.116647 0.612132 0.055140
H1    H     H_    0.830322 0.162934 0.520383 0.174790
H2    H     H_    0.904834 0.038870 0.585427 0.206936
C6    C     C_R   0.853834 0.288410 0.606370 -0.271769
C7    C     C_R   0.805673 0.310556 0.931308 -0.138425
C8    C     C_R   0.787624 0.386417 0.896674 -0.121503
C9    C     C_R   0.821635 0.367445 0.826930 -0.202672
C10   C     C_R   0.878530 0.271662 0.789659 0.141826
C11   C     C_R   0.903680 0.195266 0.826005 0.068571
C12   C     C_R   0.897664 0.247237 0.717171 -0.105237
C13   C     C_R   0.928815 0.146070 0.682950 -0.089359
C14   C     C_R   0.989552 0.076736 0.720293 0.381995
C15   C     C_R   0.968985 0.100721 0.791159 -0.377754
C16   C     C_R   0.889280 0.319299 0.676634 0.465578
C17   C     C_R   0.853012 0.186989 0.574797 -0.189484
C18   C     C_R   0.863454 0.215371 0.896754 -0.148642
H3    H     H_    0.774313 0.326001 0.985357 0.122714
H4    H     H_    0.799610 0.429468 0.803821 0.188515
H5    H     H_    0.743345 0.460190 0.923803 0.125962
H6    H     H_    0.006977 0.045093 0.819134 0.174341
C19   C     C_R   0.720061 0.253844 0.202138 0.169671
C20   C     C_R   0.867994 0.185061 0.183503 -0.217479
C21   C     C_R   0.017831 0.187538 0.230813 -0.147772
H7    H     H_    0.136611 0.136380 0.218449 0.126210
C22   C     C_R   0.009033 0.251324 0.296376 -0.040002
H8    H     H_    0.121360 0.247635 0.332624 0.138744
C23   C     C_R   0.851383 0.315188 0.316123 -0.254838
C24   C     C_R   0.713054 0.317975 0.266400 0.160800
C25   C     C_3   0.499744 0.308867 0.268953 0.164221
C26   C     C_3   0.508019 0.237894 0.198963 -0.593956
H9    H     H_    0.447995 0.273690 0.310356 0.076363
H10   H     H_    0.441062 0.266902 0.157383 0.244152
H11   H     H_    0.467820 0.159571 0.199774 0.167756
C27   C     C_R   0.488962 0.762152 0.701540 0.143287
C28   C     C_R   0.347691 0.688795 0.682262 -0.250611
C29   C     C_R   0.192910 0.690344 0.728199 -0.044705
H12   H     H_    0.073119 0.639097 0.714629 0.124974
C30   C     C_R   0.197636 0.753154 0.794260 -0.120637
H13   H     H_    0.082604 0.747853 0.829512 0.107982
C31   C     C_R   0.354979 0.818055 0.815465 -0.190693
C32   C     C_R   0.493192 0.824442 0.766000 0.184178
C33   C     C_3   0.707013 0.829717 0.766970 -0.577032
C34   C     C_3   0.701665 0.761118 0.695478 0.182269
H14   H     H_    0.768226 0.793382 0.805953 0.175826
H15   H     H_    0.759400 0.907013 0.769074 0.239691
H16   H     H_    0.763776 0.685782 0.691833 0.068823
C35   C     C_R   0.404013 0.892521 0.394795 0.358832
H17   H     H_    0.408018 0.835568 0.486251 0.197726
H18   H     H_    0.475499 0.011883 0.306584 0.164057
C36   C     C_R   0.357654 0.717803 0.397832 -0.223654
C37   C     C_R   0.284664 0.692193 0.073362 -0.240112
C38   C     C_R   0.213470 0.625967 0.110477 -0.152515
C39   C     C_R   0.206200 0.652811 0.181756 0.346012
C40   C     C_R   0.298427 0.743374 0.217090 -0.037021
C41   C     C_R   0.356576 0.813937 0.178572 0.098082
C42   C     C_R   0.331747 0.767476 0.289047 0.086698
C43   C     C_R   0.383780 0.867039 0.322740 0.007296
C44   C     C_R   0.425412 0.937057 0.283468 -0.138671
C45   C     C_R   0.417426 0.910201 0.212818 -0.216752
C46   C     C_R   0.329602 0.693590 0.327583 -0.084199
C47   C     C_R   0.391759 0.816971 0.431366 -0.215773
C48   C     C_R   0.347394 0.787679 0.106476 -0.156471
H19   H     H_    0.314350 0.615739 0.303329 0.204084
H20   H     H_    0.275423 0.671921 0.018283 0.126769
H21   H     H_    0.148129 0.556581 0.083071 0.162305
H22   H     H_    0.459493 0.966052 0.185132 0.114898
O11   O     O_R   0.203450 0.916320 0.913910 -0.593306
O12   O     O_R   0.535520 0.888300 0.047620 -0.597296
O13   O     O_R   0.710860 0.083650 0.086100 -0.598624
C49   C     C_R   0.365662 0.863306 0.065530 0.932250
O14   O     O_R   0.532860 0.904250 0.912040 -0.600951
O15   O     O_R   0.708190 0.099710 0.949550 -0.587374
C50   C     C_R   0.364306 0.882881 0.884812 0.945179
O16   O     O_R   0.206120 0.900260 0.050460 -0.595285
O17   O     O_3   0.375280 0.064080 0.012470 -0.273854
V3    V     V_3+5 0.648180 0.988110 0.997690 1.167332
O18   O     O_R   0.038220 0.111740 0.952370 -0.594522
C51   C     C_R   0.870353 0.137151 0.935162 0.936970
O19   O     O_R   0.040880 0.095790 0.087940 -0.596436
C52   C     C_R   0.872837 0.115917 0.115584 0.957776
V4    V     V_3+5 0.148800 0.011950 0.002300 1.174121
O20   O     O_3   0.871820 0.935920 0.987530 -0.281302
N1    N     N_R   0.406901 0.403475 0.267862 0.261736
O21   O     O_R   0.273065 0.437101 0.311923 -0.402508
O22   O     O_R   0.461571 0.456484 0.224977 -0.382009
N2    N     N_R   0.086254 0.985879 0.687780 0.254734
O23   O     O_R   0.101620 0.913390 0.719133 -0.406603
O24   O     O_R   0.193792 0.983593 0.634519 -0.352880
N3    N     N_R   0.767408 0.810300 0.642116 0.275096
O25   O     O_R   0.688541 0.892672 0.634305 -0.371308
O26   O     O_R   0.901130 0.769346 0.600086 -0.334960
N4    N     N_R   0.434269 0.994207 0.431736 0.230904
O27   O     O_R   0.328460 0.065438 0.418936 -0.431432
O28   O     O_R   0.540641 0.012900 0.486165 -0.379375
N5    N     N_R   0.078535 0.596390 0.215522 0.235200
O29   O     O_R   0.053496 0.500758 0.191366 -0.351461
O30   O     O_R   0.960621 0.643101 0.261955 -0.390523
O31   O     O_3   0.947323 0.417191 0.702329 -0.706590
C53   C     C_3   0.151047 0.422147 0.703251 0.214371
H23   H     H_    0.196559 0.473163 0.670819 0.124164
H24   H     H_    0.224685 0.349538 0.681972 0.098187
C54   C     C_3   0.222640 0.463372 0.775834 -0.333107
H25   H     H_    0.143206 0.532179 0.799908 0.205580
H26   H     H_    0.198245 0.406633 0.806488 0.216477
C55   C     C_3   0.436655 0.486680 0.776239 -1.002120
H27   H     H_    0.514440 0.418864 0.749467 0.276848
H28   H     H_    0.487699 0.510108 0.829625 0.266367
H29   H     H_    0.467669 0.547948 0.750107 0.262316

loop_
_geom_bond_atom_site_label_1
_geom_bond_atom_site_label_2
_geom_bond_distance
_ccdc_geom_bond_type
C18   C51   1.459513 S    
O18   C51   1.293833 A    
C16   O31   1.381903 S    
C22   H8    1.081721 S    
O19   C52   1.299315 A    
C46   H19   1.073341 S    
C42   C46   1.409521 A    
O31   C53   1.419438 S    
V3    O20   1.712657 S    
C21   C22   1.411972 A    
C6    C16   1.405827 A    
C25   C26   1.523526 S    
N4    O27   1.301476 A    
C8    H5    1.082829 S    
N3    O26   1.300066 A    
C26   H11   1.110927 S    
C12   C13   1.421210 A    
C34   N3    1.463181 S    
C38   H21   1.082952 S    
C7    C8    1.384930 A    
C14   C15   1.399016 A    
O12   C49   1.300539 A    
C3    C23   1.483336 S    
O5    C3    1.300548 A    
C20   C21   1.411170 A    
O13   C52   1.302618 A    
C7    H3    1.083978 S    
C33   H14   1.109905 S    
C53   H23   1.103919 S    
C31   C32   1.399852 A    
C43   C44   1.403563 A    
C54   H25   1.110569 S    
C55   H29   1.107318 S    
C34   H16   1.111032 S    
O8    V2    1.994733 S    
O15   V3    2.028730 S    
C38   C39   1.401467 A    
C53   H24   1.119815 S    
C9    C10   1.417340 A    
C40   C41   1.426034 A    
O1    V2    2.032447 S    
O7    V1    2.163524 S    
O16   V4    2.033977 S    
C1    O6    1.307436 A    
C48   C49   1.468914 S    
C11   C18   1.417828 A    
O9    C4    1.299108 A    
C22   C23   1.410407 A    
N2    O23   1.298672 A    
C37   C48   1.395012 A    
O13   V3    2.005432 S    
C29   C30   1.413399 A    
V4    O20   2.172066 S    
O15   C51   1.294603 A    
C25   H9    1.111815 S    
C11   C15   1.406774 A    
O11   C50   1.301150 A    
C7    C18   1.395816 A    
C30   C31   1.409427 A    
C44   C45   1.389522 A    
C1    C28   1.479978 S    
C28   C29   1.415729 A    
C5    C13   1.409244 A    
C4    C6    1.460433 S    
C10   C11   1.420445 A    
C49   O16   1.291072 A    
O17   V3    2.163518 S    
O4    C2    1.297474 A    
C35   C43   1.422492 A    
C33   C34   1.533076 S    
H18   C44   1.081328 S    
C37   C38   1.387985 A    
C54   C55   1.520538 S    
O2    C1    1.293886 A    
C23   C24   1.399795 A    
C19   C20   1.395921 A    
N1    O21   1.299130 A    
C15   H6    1.081716 S    
C53   C54   1.528094 S    
C36   C46   1.393754 A    
C27   C28   1.391506 A    
C35   N4    1.438356 S    
N5    O30   1.301830 A    
C29   H12   1.080351 S    
O17   V4    1.718408 S    
N2    O24   1.301716 A    
C55   H27   1.109351 S    
O3    C4    1.291472 A    
C31   C50   1.478703 S    
N1    O22   1.302950 A    
C12   C16   1.419634 A    
O6    V2    1.996730 S    
O14   C50   1.299803 A    
C25   N1    1.460125 S    
C5    C17   1.390831 A    
C27   C34   1.485583 S    
O2    V1    2.010429 S    
O18   V4    2.032257 S    
C21   H7    1.081477 S    
C24   C25   1.490916 S    
C35   C47   1.402907 A    
C36   C47   1.393377 A    
C30   H13   1.081764 S    
C9    H4    1.070843 S    
N5    O29   1.301717 A    
O1    C2    1.295984 A    
C27   C32   1.384612 A    
C37   H20   1.084075 S    
C10   C12   1.429747 A    
C42   C43   1.424423 A    
O5    V1    2.005324 S    
O8    C3    1.302987 A    
O19   V4    1.994533 S    
C45   H22   1.082562 S    
N3    O25   1.302421 A    
C19   C24   1.392645 A    
O9    V2    2.032283 S    
O7    V2    1.718998 S    
O4    V1    2.024705 S    
O3    V1    2.028710 S    
V1    O10   1.712758 S    
C2    C36   1.466695 S    
C41   C45   1.406146 A    
C39   N5    1.439636 S    
C32   C33   1.489822 S    
C33   H15   1.109244 S    
C5    H2    1.081871 S    
N4    O28   1.301295 A    
C39   C40   1.431438 A    
C54   H26   1.109343 S    
C55   H28   1.110023 S    
C26   H10   1.111802 S    
C14   N2    1.442201 S    
O11   V4    1.997133 S    
C20   C52   1.479310 S    
C13   C14   1.408725 A    
H17   C47   1.084040 S    
C8    C9    1.390941 A    
C40   C42   1.432465 A    
H1    C17   1.083476 S    
O12   V3    2.024547 S    
C19   C26   1.489816 S    
O14   V3    2.010479 S    
C41   C48   1.417841 A    
V2    O10   2.172015 S    
C6    C17   1.392469 A    
