data_mof_unit_33826.cif
_audit_creation_date              2012-12-11T15:06:45-0500
_audit_creation_method            fapswitch 2.2
_symmetry_space_group_name_H-M    P1
_symmetry_Int_Tables_number       1
_space_group_crystal_system       triclinic
_cell_length_a                    7.217259
_cell_length_b                    15.595189
_cell_length_c                    22.127917
_cell_angle_alpha                 90.04052
_cell_angle_beta                  89.92092
_cell_angle_gamma                 88.465437
_cell_volume                      2489.70072743

loop_
_atom_site_label
_atom_site_type_symbol
_atom_type_description
_atom_site_fract_x
_atom_site_fract_y
_atom_site_fract_z
_atom_type_partial_charge
O1    O     O_R   0.390810 0.844810 0.447340 -0.520310
O2    O     O_R   0.109190 0.155190 0.947340 -0.518882
O3    O     O_R   0.890810 0.655190 0.552660 -0.530490
O4    O     O_R   0.609190 0.344810 0.052660 -0.530730
O5    O     O_R   0.720550 0.655820 0.440420 -0.527985
O6    O     O_R   0.779450 0.344180 0.940420 -0.529368
O7    O     O_R   0.220550 0.844180 0.559580 -0.532740
O8    O     O_R   0.279450 0.155820 0.059580 -0.532679
C1    C     C_R   0.555100 0.622771 0.430585 0.813304
C2    C     C_R   0.945092 0.376870 0.930190 0.799195
C3    C     C_R   0.050966 0.876121 0.570360 0.836524
C4    C     C_R   0.448868 0.123882 0.070320 0.840085
O9    O     O_R   0.720530 0.844130 0.440420 -0.533811
O10   O     O_R   0.779470 0.155870 0.940420 -0.534223
O11   O     O_R   0.220530 0.655870 0.559580 -0.517867
O12   O     O_R   0.279470 0.344130 0.059580 -0.517376
O13   O     O_R   0.890830 0.844810 0.552660 -0.545666
O14   O     O_R   0.609170 0.155190 0.052660 -0.546171
O15   O     O_R   0.390830 0.655190 0.447340 -0.555076
O16   O     O_R   0.109170 0.344810 0.947340 -0.554555
C5    C     C_R   0.550026 0.872326 0.425374 0.774323
C6    C     C_R   0.950207 0.127454 0.925563 0.760997
C7    C     C_R   0.053039 0.629760 0.576183 0.818808
C8    C     C_R   0.446773 0.370336 0.076154 0.816954
O17   O     O_3   0.557310 0.749980 0.536820 -0.378736
O18   O     O_3   0.942690 0.250020 0.036820 -0.377654
O19   O     O_3   0.057310 0.750020 0.463180 -0.386983
O20   O     O_3   0.442690 0.249980 0.963180 -0.384813
V1    V     V_3+5 0.832160 0.749980 0.493170 1.588067
V2    V     V_3+5 0.667840 0.250020 0.993170 1.593323
V3    V     V_3+5 0.332160 0.750020 0.506830 1.596739
V4    V     V_3+5 0.167840 0.249980 0.006830 1.600824
C9    C     C_R   0.790277 0.590949 0.867435 -0.115700
C10   C     C_R   0.709067 0.408838 0.367182 -0.115003
C11   C     C_R   0.589061 0.903555 0.125438 -0.115118
C12   C     C_R   0.914585 0.097153 0.625794 -0.157681
H1    H     H_    0.709038 0.646899 0.881414 0.217751
H2    H     H_    0.789592 0.352675 0.381037 0.217859
H3    H     H_    0.639505 0.842813 0.107221 0.219720
H4    H     H_    0.873670 0.158790 0.607089 0.186209
C13   C     C_R   0.940915 0.455591 0.892773 -0.083321
C14   C     C_R   0.559577 0.544388 0.392839 -0.084373
C15   C     C_R   0.466596 0.047350 0.109062 -0.119687
C16   C     C_R   0.032730 0.952551 0.609318 -0.121878
C17   C     C_R   0.141515 0.482398 0.605724 0.291354
C18   C     C_R   0.357843 0.517682 0.105947 0.290847
C19   C     C_R   0.489812 0.026923 0.405035 0.324477
C20   C     C_R   0.011048 0.972749 0.905233 0.327899
C21   C     C_R   0.152596 0.412518 0.646199 -0.081758
C22   C     C_R   0.347546 0.587699 0.146405 -0.079054
C23   C     C_R   0.467255 0.098634 0.366181 -0.072974
C24   C     C_R   0.031946 0.900892 0.866314 -0.073408
C25   C     C_R   0.095092 0.424191 0.705887 -0.164853
C26   C     C_R   0.406343 0.576275 0.205919 -0.187786
C27   C     C_R   0.473343 0.086553 0.303421 -0.220247
C28   C     C_R   0.023545 0.912824 0.803565 -0.218030
C29   C     C_R   0.016484 0.502400 0.726985 0.051352
C30   C     C_R   0.484381 0.497994 0.226934 0.051517
C31   C     C_R   0.505073 0.005117 0.277206 0.062107
C32   C     C_R   0.992762 0.994345 0.777473 0.060777
C33   C     C_R   0.981223 0.570157 0.684553 -0.090409
C34   C     C_R   0.518393 0.429977 0.184504 -0.087606
C35   C     C_R   0.538574 0.933611 0.316154 -0.087659
C36   C     C_R   0.963103 0.066016 0.816552 -0.123833
C37   C     C_R   0.963959 0.512411 0.789227 0.042884
C38   C     C_R   0.536992 0.488010 0.289114 0.035395
C39   C     C_R   0.505995 0.993055 0.212853 0.022311
C40   C     C_R   0.990127 0.006488 0.713127 0.048064
C41   C     C_R   0.851437 0.583175 0.807083 0.069752
C42   C     C_R   0.648264 0.416843 0.306872 0.069873
C43   C     C_R   0.573810 0.914496 0.188451 0.058564
C44   C     C_R   0.922823 0.085431 0.688951 -0.010039
C45   C     C_R   0.807817 0.648194 0.765936 0.320095
C46   C     C_R   0.690796 0.351601 0.265688 0.319347
C47   C     C_R   0.615764 0.845559 0.226754 0.296495
C48   C     C_R   0.882617 0.154346 0.728227 0.310829
C49   C     C_R   0.876865 0.643514 0.706052 -0.072735
C50   C     C_R   0.621490 0.356310 0.205920 -0.072949
C51   C     C_R   0.572850 0.852765 0.288718 -0.078824
C52   C     C_R   0.931099 0.146858 0.789249 -0.017444
C53   C     C_R   0.020006 0.453606 0.834708 -0.112474
C54   C     C_R   0.481909 0.547097 0.334654 -0.124071
C55   C     C_R   0.440511 0.056274 0.171816 -0.185677
C56   C     C_R   0.056155 0.943292 0.672058 -0.180691
C57   C     C_R   0.831769 0.527751 0.910468 -0.086178
C58   C     C_R   0.667849 0.471969 0.410367 -0.087419
C59   C     C_R   0.538096 0.969170 0.085217 -0.086796
C60   C     C_R   0.964699 0.031240 0.585547 -0.052970
C61   C     C_R   0.051982 0.560286 0.623176 -0.102147
C62   C     C_R   0.447479 0.439813 0.123225 -0.101219
C63   C     C_R   0.531122 0.944877 0.380885 -0.094476
C64   C     C_R   0.969939 0.054791 0.881181 -0.089789
H5    H     H_    0.122208 0.404560 0.825238 0.114381
H6    H     H_    0.381277 0.596862 0.325271 0.119540
H7    H     H_    0.366617 0.112576 0.187922 0.175393
H8    H     H_    0.129321 0.886851 0.688140 0.172123
H9    H     H_    0.102541 0.368587 0.734730 0.192685
H10   H     H_    0.400079 0.632062 0.234678 0.184575
H11   H     H_    0.460979 0.143023 0.275422 0.161300
H12   H     H_    0.033630 0.856260 0.775520 0.159796
C65   C     C_2   0.767547 0.541779 0.973973 0.758515
O21   O     O_2   0.831463 0.498193 0.015274 -0.564899
O22   O     O_R   0.638769 0.607850 0.987015 -0.625808
H13   H     H_    0.614537 0.614194 0.031929 0.340276
C66   C     C_2   0.731791 0.457704 0.473814 0.755243
O23   O     O_2   0.668227 0.501352 0.515240 -0.565969
O24   O     O_R   0.860064 0.391411 0.486648 -0.626280
H14   H     H_    0.884435 0.385055 0.531526 0.338419
C67   C     C_2   0.554229 0.952188 0.018824 0.783543
O25   O     O_2   0.486417 0.002248 0.981959 -0.565731
O26   O     O_R   0.643080 0.876850 0.998293 -0.618712
H15   H     H_    0.641258 0.871665 0.952612 0.332854
C68   C     C_2   0.951588 0.048435 0.519160 0.777171
O27   O     O_2   0.022938 0.998974 0.482476 -0.567026
O28   O     O_R   0.860794 0.123103 0.498448 -0.619406
H16   H     H_    0.864304 0.128391 0.452788 0.333538
O29   O     O_3   0.700871 0.717549 0.786409 -0.625140
H17   H     H_    0.746942 0.771237 0.768848 0.302413
O30   O     O_3   0.796619 0.281917 0.286046 -0.624964
H18   H     H_    0.748715 0.228348 0.268851 0.302677
O31   O     O_3   0.675133 0.768423 0.201477 -0.642531
H19   H     H_    0.750317 0.736331 0.231689 0.334411
O32   O     O_3   0.820936 0.233407 0.707110 -0.619148
H20   H     H_    0.720136 0.223537 0.677780 0.304027
O33   O     O_3   0.215127 0.476559 0.548048 -0.621848
H21   H     H_    0.324761 0.437057 0.548856 0.330925
O34   O     O_3   0.283468 0.523385 0.048441 -0.621931
H22   H     H_    0.174056 0.563017 0.049460 0.330875
O35   O     O_3   0.470168 0.034212 0.467000 -0.626934
H23   H     H_    0.378939 0.081043 0.475912 0.330312
O36   O     O_3   0.032202 0.965599 0.967117 -0.626632
H24   H     H_    0.124319 0.919039 0.975652 0.330153
C69   C     C_2   0.216741 0.324905 0.627186 0.786930
O37   O     O_2   0.196929 0.300995 0.574992 -0.541475
O38   O     O_R   0.293623 0.268187 0.669865 -0.651022
H25   H     H_    0.328069 0.210044 0.651948 0.303813
C70   C     C_2   0.282731 0.675201 0.127547 0.802029
O39   O     O_2   0.302363 0.699155 0.075362 -0.538785
O40   O     O_R   0.205256 0.731743 0.170355 -0.648396
H26   H     H_    0.170176 0.789813 0.152532 0.314036
C71   C     C_2   0.443447 0.187863 0.389658 0.788846
O41   O     O_2   0.357209 0.241787 0.360061 -0.537433
O42   O     O_R   0.523853 0.211379 0.444485 -0.635884
H27   H     H_    0.499024 0.273967 0.454928 0.323274
C72   C     C_2   0.056206 0.811688 0.889707 0.787765
O43   O     O_2   0.140130 0.757497 0.859540 -0.538046
O44   O     O_R   0.979004 0.788498 0.945146 -0.634234
H28   H     H_    0.003737 0.725879 0.955430 0.324766
C73   C     C_2   0.849166 0.720430 0.670120 0.700103
O45   O     O_2   0.984391 0.761229 0.657599 -0.614063
O46   O     O_R   0.670375 0.752299 0.657807 -0.628664
H29   H     H_    0.669845 0.812520 0.640672 0.300927
C74   C     C_2   0.646750 0.278989 0.170152 0.698638
O47   O     O_2   0.510203 0.238927 0.157964 -0.613757
O48   O     O_R   0.824681 0.246014 0.157631 -0.628704
H30   H     H_    0.823708 0.185629 0.140784 0.300884
C75   C     C_2   0.503277 0.776456 0.317390 0.691855
O49   O     O_2   0.608465 0.716015 0.327465 -0.597318
O50   O     O_R   0.314343 0.774532 0.331533 -0.643525
H31   H     H_    0.275709 0.720906 0.352940 0.291289
C76   C     C_2   0.997416 0.223980 0.817649 0.736194
O51   O     O_2   0.893444 0.286269 0.822954 -0.561497
O52   O     O_R   0.184051 0.225563 0.834622 -0.651869
H32   H     H_    0.223331 0.281182 0.853064 0.288909

loop_
_geom_bond_atom_site_label_1
_geom_bond_atom_site_label_2
_ccdc_geom_bond_type
C30   C34   A    
O1    C5    A    
C24   C72   S    
C54   H6    S    
C27   C31   A    
O19   V1    S    
O29   H17   S    
O13   V1    S    
O12   C8    A    
O3    C7    A    
O26   H15   S    
C14   C54   A    
C44   C48   A    
O15   V3    S    
C76   O51   D    
C22   C70   S    
C57   C65   S    
O32   H20   S    
C35   C51   A    
C12   C60   A    
O7    C3    A    
C46   O30   S    
C66   O24   S    
C30   C38   A    
C1    C14   S    
C65   O21   D    
C19   O35   S    
O9    V1    S    
C28   H12   S    
O35   H23   S    
C4    C15   S    
C67   O26   S    
C56   H8    S    
O4    C8    A    
C37   C41   A    
C12   C44   A    
O28   H16   S    
O1    V3    S    
C15   C55   A    
O2    V4    S    
C10   C58   A    
C60   C68   S    
O3    V1    S    
C9    C57   A    
C76   O52   S    
C11   C59   A    
C1    O15   A    
C75   O49   D    
O44   H28   S    
C2    O16   A    
O2    C6    A    
O24   H14   S    
C7    C61   S    
C20   O36   S    
C41   C45   A    
C14   C58   A    
C74   O48   S    
O38   H25   S    
C10   C42   A    
C39   C43   A    
C9    C41   A    
C70   O39   D    
C31   C39   A    
O11   C7    A    
O33   H21   S    
O46   H29   S    
C55   H7    S    
C65   O22   S    
C10   H2    S    
C2    C13   S    
C49   C73   S    
C36   C52   A    
O10   V2    S    
O16   V4    S    
C72   O44   S    
C33   C61   A    
C59   C67   S    
C72   O43   D    
O5    V1    S    
C23   C71   S    
O7    V3    S    
C51   C75   S    
O8    V4    S    
C18   O34   S    
C12   H4    S    
C45   O29   S    
C67   O25   D    
C17   O33   S    
C25   C29   A    
O18   V4    S    
C19   C23   A    
C25   H9    S    
C9    H1    S    
C28   C32   A    
C40   C44   A    
C71   O42   S    
C40   C56   A    
C11   H3    S    
C42   C46   A    
C38   C54   A    
C53   H5    S    
C37   C53   A    
O50   H31   S    
C17   C21   A    
O8    C4    A    
C13   C53   A    
C26   C30   A    
O9    C5    A    
C3    C16   S    
C22   C26   A    
C39   C55   A    
O30   H18   S    
O11   V3    S    
C70   O40   S    
O31   H19   S    
O14   V2    S    
O6    V2    S    
C33   C49   A    
C46   C50   A    
C69   O37   D    
C58   C66   S    
C36   C64   A    
C27   H11   S    
O34   H22   S    
O22   H13   S    
C17   C61   A    
C68   O27   D    
C5    C63   S    
C21   C69   S    
C3    O13   A    
C6    C64   S    
C47   O31   S    
C48   O32   S    
C19   C63   A    
O17   V3    S    
C34   C50   A    
C4    O14   A    
C48   C52   A    
C29   C37   A    
C16   C56   A    
C8    C62   S    
O6    C2    A    
O40   H26   S    
C50   C74   S    
C29   C33   A    
C18   C62   A    
O12   V4    S    
C13   C57   A    
C66   O23   D    
C18   C22   A    
C31   C35   A    
C32   C36   A    
C15   C59   A    
O10   C6    A    
C73   O46   S    
C16   C60   A    
C73   O45   D    
C43   C47   A    
C38   C42   A    
C21   C25   A    
C34   C62   A    
O20   V2    S    
C23   C27   A    
O36   H24   S    
C52   C76   S    
O52   H32   S    
C11   C43   A    
C24   C28   A    
C20   C24   A    
C32   C40   A    
C75   O50   S    
C20   C64   A    
C35   C63   A    
O48   H30   S    
C69   O38   S    
C45   C49   A    
C26   H10   S    
O5    C1    A    
C74   O47   D    
C71   O41   D    
C47   C51   A    
O4    V2    S    
O42   H27   S    
C68   O28   S    
