data_mof_unit_30946.cif
_audit_creation_date              2012-12-10T16:47:48-0500
_audit_creation_method            fapswitch 2.2
_symmetry_space_group_name_H-M    P1
_symmetry_Int_Tables_number       1
_space_group_crystal_system       triclinic
_cell_length_a                    7.868552
_cell_length_b                    8.558214
_cell_length_c                    10.551513
_cell_angle_alpha                 92.089512
_cell_angle_beta                  83.845166
_cell_angle_gamma                 92.634697
_cell_volume                      705.348543006

loop_
_atom_site_label
_atom_site_type_symbol
_atom_type_description
_atom_site_fract_x
_atom_site_fract_y
_atom_site_fract_z
_atom_type_partial_charge
C1    C     C_R   0.544069 0.794459 0.499781 0.976649
C2    C     C_2   0.563180 0.956685 0.486687 -0.405471
C3    C     C_3   0.293791 0.387112 0.924550 -0.819840
C4    C     C_3   0.987855 0.683289 0.596153 -0.395760
C5    C     C_2   0.440143 0.047892 0.539542 0.001287
C6    C     C_R   0.495246 0.478481 0.736368 0.938390
C7    C     C_R   0.456273 0.206162 0.508161 0.898303
C8    C     C_R   0.501955 0.501121 0.261780 0.924887
C9    C     C_2   0.603251 0.387576 0.060586 -0.181735
C10   C     C_2   0.509417 0.495651 0.126782 -0.353746
C11   C     C_2   0.612025 0.378702 0.922348 0.194283
C12   C     C_2   0.476335 0.418382 0.864263 -0.050609
H1    H     H_    0.680303 0.310077 0.107891 0.181068
H2    H     H_    0.862985 0.666734 0.651237 0.222869
H3    H     H_    0.436425 0.578855 0.082330 0.167146
H4    H     H_    0.667132 0.999156 0.418379 0.152644
H5    H     H_    0.009961 0.367268 0.415848 0.183640
H6    H     H_    0.223469 0.313996 0.857105 0.288783
H7    H     H_    0.285848 0.319847 0.013090 0.254099
H8    H     H_    0.227883 0.498782 0.944159 0.249686
H9    H     H_    0.075235 0.718533 0.667896 0.205486
H10   H     H_    0.988687 0.777381 0.526398 0.191319
I1    I     I_    0.849644 0.306019 0.828300 -0.345971
I2    I     I_    0.272053 0.996062 0.705892 -0.367337
N1    N     N_2   0.950320 0.457950 0.466680 -0.119227
N2    N     N_2   0.049680 0.542050 0.533320 -0.041566
O1    O     O_R   0.389250 0.738570 0.508180 -0.590411
O2    O     O_R   0.678390 0.711630 0.486820 -0.638640
O3    O     O_R   0.355470 0.513470 0.691600 -0.592921
O4    O     O_R   0.644610 0.486520 0.670240 -0.619371
O5    O     O_R   0.321610 0.288370 0.513180 -0.607170
O6    O     O_R   0.610750 0.261430 0.491820 -0.618122
O7    O     O_R   0.355390 0.513480 0.329760 -0.621120
O8    O     O_R   0.644530 0.486530 0.308400 -0.608543
Zn1   Zn    Zn3+2 0.306940 0.517990 0.514260 0.982389
Zn2   Zn    Zn3+2 0.693060 0.482010 0.485740 0.964634

loop_
_geom_bond_atom_site_label_1
_geom_bond_atom_site_label_2
_ccdc_geom_bond_type
C1    O2    A    
C4    N2    S    
C11   C12   D    
C5    C7    S    
C3    H7    S    
C3    C12   S    
C2    H4    S    
C9    C10   D    
O3    Zn1   S    
O4    Zn2   S    
C10   H3    S    
H5    N1    S    
C3    H8    S    
C8    O8    A    
C4    H2    S    
C4    H9    S    
C9    C11   S    
C5    I2    S    
O1    Zn1   S    
O6    Zn2   S    
C11   I1    S    
C6    O4    A    
O8    Zn2   S    
C8    O7    A    
C6    C12   S    
O5    Zn1   S    
C2    C5    D    
C7    O5    A    
N1    Zn2   S    
N2    Zn1   S    
C6    O3    A    
C4    H10   S    
O2    Zn2   S    
C3    H6    S    
C8    C10   S    
C1    C2    S    
C1    O1    A    
C9    H1    S    
C7    O6    A    
O7    Zn1   S    
N1    N2    D    
