data_mof_unit_57877.cif
_audit_creation_date              2012-12-11T15:15:48-0500
_audit_creation_method            fapswitch 2.2
_symmetry_space_group_name_H-M    P1
_symmetry_Int_Tables_number       1
_space_group_crystal_system       triclinic
_cell_length_a                    20.754287
_cell_length_b                    22.68975
_cell_length_c                    6.958271
_cell_angle_alpha                 90.000072
_cell_angle_beta                  87.864511
_cell_angle_gamma                 90.000046
_cell_volume                      3274.44083488

loop_
_atom_site_label
_atom_site_type_symbol
_atom_type_description
_atom_site_fract_x
_atom_site_fract_y
_atom_site_fract_z
_atom_type_partial_charge
O1    O     O_R   0.387100 0.552640 0.378490 -0.537574
O2    O     O_R   0.612900 0.052640 0.621510 -0.537575
O3    O     O_R   0.249610 0.559600 0.072250 -0.546487
O4    O     O_R   0.750390 0.059600 0.927750 -0.546488
O5    O     O_R   0.249120 0.447360 0.902040 -0.540338
O6    O     O_R   0.750880 0.947360 0.097960 -0.540337
C1    C     C_R   0.228284 0.574661 0.243064 0.684071
C2    C     C_R   0.771715 0.074661 0.756936 0.684073
O7    O     O_R   0.386610 0.559560 0.048860 -0.537062
O8    O     O_R   0.613390 0.059560 0.951140 -0.537062
O9    O     O_R   0.387100 0.447320 0.878470 -0.540596
O10   O     O_R   0.612900 0.947320 0.121530 -0.540596
C3    C     C_R   0.407582 0.574627 0.215438 0.689643
C4    C     C_R   0.592418 0.074627 0.784562 0.689643
O11   O     O_R   0.249120 0.552680 0.402050 -0.541832
O12   O     O_R   0.750880 0.052680 0.597950 -0.541831
O13   O     O_3   0.318110 0.463180 0.223790 -0.379243
O14   O     O_3   0.681890 0.963180 0.776210 -0.379243
V1    V     V_3+5 0.318110 0.506830 0.948930 1.402904
V2    V     V_3+5 0.681890 0.006830 0.051070 1.402901
O15   O     O_R   0.386610 0.440400 0.548840 -0.545573
O16   O     O_R   0.613390 0.940400 0.451160 -0.545571
C5    C     C_R   0.408291 0.425646 0.715072 0.750418
C6    C     C_R   0.591708 0.925646 0.284927 0.750419
O17   O     O_R   0.249610 0.440440 0.572240 -0.552983
O18   O     O_R   0.750390 0.940440 0.427760 -0.552982
C7    C     C_R   0.226730 0.426309 0.742561 0.698332
C8    C     C_R   0.773270 0.926308 0.257439 0.698332
V3    V     V_3+5 0.318110 0.493170 0.448930 1.386441
V4    V     V_3+5 0.681890 0.993170 0.551070 1.386442
O19   O     O_3   0.318110 0.536820 0.723940 -0.368856
O20   O     O_3   0.681890 0.036820 0.276060 -0.368857
C9    C     C_R   0.168651 0.387105 0.758399 -0.075800
C10   C     C_R   0.831348 0.887104 0.241601 -0.075800
C11   C     C_R   0.147047 0.348969 0.609496 0.082971
C12   C     C_R   0.852951 0.848968 0.390503 0.082970
C13   C     C_R   0.089599 0.316974 0.641068 -0.147091
C14   C     C_R   0.910400 0.816972 0.358931 -0.147092
C15   C     C_R   0.053616 0.319985 0.814535 0.137234
C16   C     C_R   0.946383 0.819984 0.185465 0.137234
C17   C     C_R   0.074997 0.356535 0.959962 -0.164506
C18   C     C_R   0.925002 0.856534 0.040037 -0.164506
C19   C     C_R   0.131002 0.390044 0.931509 -0.198076
C20   C     C_R   0.868997 0.890043 0.068490 -0.198076
C21   C     C_R   0.884742 0.196349 0.904024 -0.112928
C22   C     C_R   0.115256 0.696347 0.095976 -0.112924
C23   C     C_R   0.840762 0.149843 0.913589 -0.177972
C24   C     C_R   0.159237 0.649842 0.086411 -0.177962
C25   C     C_R   0.846052 0.141713 0.566506 -0.183726
C26   C     C_R   0.153948 0.641713 0.433495 -0.183725
C27   C     C_R   0.890106 0.188245 0.556920 -0.146637
C28   C     C_R   0.109894 0.688246 0.443081 -0.146616
C29   C     C_R   0.910404 0.215740 0.725228 0.174975
C30   C     C_R   0.089596 0.715739 0.274773 0.174968
C31   C     C_2   0.996427 0.281679 0.849892 -0.193032
C32   C     C_2   0.003572 0.781678 0.150109 -0.193030
C33   C     C_2   0.959621 0.263028 0.706047 -0.201333
C34   C     C_2   0.040378 0.763027 0.293953 -0.201336
C35   C     C_R   0.820793 0.122002 0.745077 -0.043761
C36   C     C_R   0.179206 0.622002 0.254923 -0.043776
H1    H     H_    0.821841 0.136241 0.053795 0.123690
H2    H     H_    0.178156 0.636239 0.946206 0.123690
H3    H     H_    0.831444 0.121586 0.433901 0.124338
H4    H     H_    0.168557 0.621587 0.566100 0.124341
H5    H     H_    0.968512 0.280666 0.562479 0.120108
H6    H     H_    0.031487 0.780665 0.437522 0.120106
H7    H     H_    0.047946 0.359546 0.095798 0.108538
H8    H     H_    0.952053 0.859544 0.904201 0.108537
H9    H     H_    0.897593 0.217022 0.037083 0.094487
H10   H     H_    0.102404 0.717019 0.962916 0.094481
H11   H     H_    0.144444 0.419183 0.046544 0.131117
H12   H     H_    0.855555 0.919183 0.953455 0.131117
H13   H     H_    0.987265 0.266572 0.996069 0.119770
H14   H     H_    0.012734 0.766571 0.003931 0.119769
H15   H     H_    0.073798 0.288056 0.528476 0.110032
H16   H     H_    0.926200 0.788054 0.471523 0.110032
H17   H     H_    0.908985 0.202384 0.417144 0.096528
H18   H     H_    0.091017 0.702385 0.582857 0.096526
C37   C     C_R   0.575897 0.363392 0.744858 -0.162872
C38   C     C_R   0.424103 0.863392 0.255105 -0.162860
H19   H     H_    0.533230 0.449258 0.764613 0.127133
H20   H     H_    0.466771 0.949258 0.235355 0.127132
H21   H     H_    0.623932 0.381199 0.758442 0.152167
H22   H     H_    0.376070 0.881200 0.241502 0.152163
C39   C     C_R   0.461844 0.382302 0.718857 -0.101971
C40   C     C_R   0.538155 0.882303 0.281140 -0.101970
C41   C     C_R   0.476200 0.094090 0.807898 -0.153797
C42   C     C_R   0.523801 0.594090 0.192123 -0.153799
C43   C     C_R   0.423106 0.131247 0.812034 -0.150305
C44   C     C_R   0.576894 0.631246 0.187993 -0.150305
C45   C     C_R   0.430894 0.191710 0.786485 -0.156381
C46   C     C_R   0.569106 0.691710 0.213531 -0.156379
C47   C     C_R   0.492559 0.217162 0.751492 0.074341
C48   C     C_R   0.507441 0.717162 0.248508 0.074341
C49   C     C_R   0.547180 0.178757 0.755720 0.005471
C50   C     C_R   0.452820 0.678758 0.244270 0.005467
C51   C     C_R   0.502078 0.279670 0.725503 -0.091757
C52   C     C_R   0.497921 0.779671 0.274491 -0.091767
C53   C     C_R   0.565909 0.302220 0.730433 -0.010900
C54   C     C_R   0.434091 0.802221 0.269538 -0.010891
C55   C     C_R   0.619061 0.263363 0.721166 0.417690
C56   C     C_R   0.380938 0.763364 0.278785 0.417717
C57   C     C_R   0.609332 0.202759 0.737209 -0.274203
C58   C     C_R   0.390668 0.702760 0.262754 -0.274203
C59   C     C_R   0.451121 0.321279 0.693826 0.356643
C60   C     C_R   0.548878 0.821280 0.306178 0.356644
C61   C     C_R   0.524201 0.402552 0.747416 -0.258749
C62   C     C_R   0.475799 0.902553 0.252561 -0.258750
C63   C     C_R   0.538354 0.116924 0.781453 -0.057228
C64   C     C_R   0.461647 0.616924 0.218549 -0.057227
H23   H     H_    0.468855 0.047187 0.828653 0.100820
H24   H     H_    0.531146 0.547187 0.171379 0.100821
H25   H     H_    0.387604 0.217389 0.802943 0.172002
H26   H     H_    0.612397 0.717389 0.197076 0.172001
H27   H     H_    0.375316 0.113112 0.837986 0.117587
H28   H     H_    0.624685 0.613111 0.162054 0.117587
H29   H     H_    0.651496 0.174603 0.736489 0.126125
H30   H     H_    0.348503 0.674604 0.263462 0.126123
C65   C     C_3   0.178873 0.340376 0.411273 -0.373919
C66   C     C_3   0.203119 0.276905 0.379223 -0.319476
C67   C     C_3   0.208764 0.262278 0.164965 -0.765734
H31   H     H_    0.160005 0.259240 0.105097 0.237108
H32   H     H_    0.236485 0.296906 0.085203 0.243305
H33   H     H_    0.233325 0.219167 0.143969 0.210686
H34   H     H_    0.250682 0.272023 0.444469 0.200201
H35   H     H_    0.170474 0.243909 0.449191 0.197800
H36   H     H_    0.141544 0.350333 0.306409 0.176302
H37   H     H_    0.218873 0.370228 0.373645 0.195679
C68   C     C_3   0.821125 0.840375 0.588725 -0.373918
C69   C     C_3   0.796878 0.776904 0.620772 -0.319473
C70   C     C_3   0.791235 0.762276 0.835029 -0.765735
H38   H     H_    0.839993 0.759237 0.894893 0.237106
H39   H     H_    0.763514 0.796903 0.914795 0.243304
H40   H     H_    0.766673 0.719165 0.856024 0.210686
H41   H     H_    0.749315 0.772023 0.555528 0.200202
H42   H     H_    0.829523 0.743908 0.550799 0.197800
H43   H     H_    0.858454 0.850331 0.693590 0.176302
H44   H     H_    0.781125 0.870226 0.626353 0.195679
O21   O     O_3   0.681867 0.283830 0.701871 -0.576367
C71   C     C_3   0.696070 0.299444 0.507466 0.069476
H45   H     H_    0.739833 0.327664 0.505093 0.148458
H46   H     H_    0.657205 0.326395 0.444518 0.109491
C72   C     C_3   0.710236 0.244963 0.381713 -0.354155
H47   H     H_    0.748263 0.217989 0.447044 0.212171
H48   H     H_    0.666051 0.217646 0.372547 0.192062
C73   C     C_3   0.732361 0.262516 0.178089 -0.771128
H49   H     H_    0.695746 0.291156 0.112479 0.249884
H50   H     H_    0.738607 0.222402 0.088097 0.239846
H51   H     H_    0.779107 0.286308 0.180130 0.224122
O22   O     O_3   0.318132 0.783831 0.298041 -0.576373
C74   C     C_3   0.303915 0.799444 0.492438 0.069451
H52   H     H_    0.260138 0.827647 0.494788 0.148484
H53   H     H_    0.342765 0.826413 0.555386 0.109486
C75   C     C_3   0.289771 0.744962 0.618209 -0.354145
H54   H     H_    0.251777 0.717958 0.552839 0.212178
H55   H     H_    0.333976 0.717677 0.627457 0.192049
C76   C     C_3   0.267598 0.762513 0.821792 -0.771153
H56   H     H_    0.304175 0.791189 0.887432 0.249895
H57   H     H_    0.261377 0.722402 0.911807 0.239850
H58   H     H_    0.220831 0.786267 0.819670 0.224104
O23   O     O_3   0.390535 0.303990 0.639837 -0.598070
C77   C     C_3   0.394263 0.279753 0.452386 0.018419
H59   H     H_    0.358361 0.243588 0.447216 0.140174
H60   H     H_    0.441706 0.259342 0.410951 0.128629
C78   C     C_3   0.378001 0.326788 0.305640 -0.272627
H61   H     H_    0.330624 0.346836 0.344979 0.212213
H62   H     H_    0.415512 0.361694 0.303497 0.201444
C79   C     C_3   0.376057 0.300306 0.106301 -0.824341
H63   H     H_    0.425520 0.286762 0.060562 0.235953
H64   H     H_    0.357628 0.333508 0.005148 0.253648
H65   H     H_    0.344377 0.260992 0.105807 0.226737
O24   O     O_3   0.609462 0.803992 0.360175 -0.598070
C80   C     C_3   0.605733 0.779755 0.547626 0.018419
H66   H     H_    0.641632 0.743588 0.552797 0.140176
H67   H     H_    0.558287 0.759347 0.589061 0.128626
C81   C     C_3   0.621998 0.826789 0.694371 -0.272622
H68   H     H_    0.669374 0.846835 0.655028 0.212213
H69   H     H_    0.584488 0.861696 0.696518 0.201443
C82   C     C_3   0.623942 0.800306 0.893709 -0.824342
H70   H     H_    0.574480 0.786762 0.939449 0.235955
H71   H     H_    0.642372 0.833507 0.994862 0.253646
H72   H     H_    0.655622 0.760992 0.894200 0.226736

loop_
_geom_bond_atom_site_label_1
_geom_bond_atom_site_label_2
_ccdc_geom_bond_type
C72   C73   S    
C14   C16   A    
C43   H27   S    
C78   H61   S    
C25   H3    S    
O11   V3    S    
C4    C63   S    
C26   H4    S    
C11   C65   S    
C69   H41   S    
C71   C72   S    
O4    C2    A    
C70   H40   S    
V1    O19   S    
H19   C61   S    
O23   C77   S    
C55   O21   S    
C17   H7    S    
C14   H16   S    
C80   H66   S    
C7    C9    S    
O9    V1    S    
C76   H56   S    
C37   C53   A    
C11   C13   A    
C71   H46   S    
C77   H59   S    
O3    C1    A    
C2    C35   S    
V2    O20   S    
C66   H35   S    
C41   H23   S    
C48   C52   A    
O12   V4    S    
C72   H47   S    
C73   H51   S    
O13   V3    S    
C6    C40   S    
C2    O12   A    
C74   C75   S    
O7    C3    A    
C67   H33   S    
C9    C11   A    
O5    C7    A    
C44   C46   A    
C34   H6    S    
C79   H65   S    
O6    C8    A    
C68   H44   S    
C28   C30   A    
C16   C32   S    
C26   C28   A    
C74   H52   S    
O3    V1    S    
O14   V4    S    
H20   C62   S    
C43   C45   A    
C75   H55   S    
C38   H22   S    
C82   H72   S    
C51   C59   A    
C65   H37   S    
C79   H64   S    
C13   H15   S    
C8    C10   S    
C76   H57   S    
C38   C54   A    
C18   H8    S    
C17   C19   A    
O10   V2    S    
C57   H29   S    
C18   C20   A    
C28   H18   S    
C54   C56   A    
O18   C8    A    
C51   C53   A    
O7    V1    S    
C24   C36   A    
C73   H50   S    
C21   C23   A    
O17   V3    S    
C13   C15   A    
C15   C31   S    
C23   C35   A    
C32   H14   S    
C49   C57   A    
C21   H9    S    
C9    C19   A    
C10   C20   A    
C71   H45   S    
C75   C76   S    
C15   C17   A    
C49   C63   A    
O8    V2    S    
C29   C33   S    
C66   H34   S    
C1    O11   A    
C39   C59   A    
C25   C27   A    
O15   V3    S    
C45   H25   S    
C27   C29   A    
O4    V2    S    
C48   C50   A    
C27   H17   S    
C58   H30   S    
C3    C64   S    
V4    O20   S    
C45   C47   A    
C77   C78   S    
C24   H2    S    
C65   C66   S    
C31   H13   S    
C22   C30   A    
O1    V3    S    
C75   H54   S    
C37   C61   A    
C56   C58   A    
C67   H31   S    
C80   H67   S    
C56   O22   S    
O5    V1    S    
C79   H63   S    
C53   C55   A    
C42   C44   A    
O18   V4    S    
C76   H58   S    
C44   H28   S    
C31   C33   D    
O8    C4    A    
O16   C6    A    
O1    C3    A    
C70   H38   S    
C47   C51   A    
C1    C36   S    
C67   H32   S    
O24   C80   S    
C73   H49   S    
C30   C34   S    
C80   C81   S    
C72   H48   S    
C50   C58   A    
O10   C6    A    
C81   H68   S    
C19   H11   S    
O16   V4    S    
O22   C74   S    
C60   O24   S    
C69   H42   S    
C33   H5    S    
C16   C18   A    
C70   H39   S    
C52   C60   A    
C23   H1    S    
O21   C71   S    
C78   C79   S    
C41   C63   A    
O17   C7    A    
O6    V2    S    
C38   C62   A    
C52   C54   A    
C25   C35   A    
C55   C57   A    
O2    V4    S    
C26   C36   A    
C81   C82   S    
O15   C5    A    
C69   C70   S    
C68   C69   S    
C42   C64   A    
V3    O19   S    
C77   H60   S    
C12   C68   S    
C12   C14   A    
C37   H21   S    
C46   C48   A    
C47   C49   A    
C50   C64   A    
O9    C5    A    
O13   V1    S    
C10   C12   A    
C32   C34   D    
C20   H12   S    
O14   V2    S    
C74   H53   S    
O2    C4    A    
C22   H10   S    
C21   C29   A    
C82   H70   S    
C42   H24   S    
C22   C24   A    
C68   H43   S    
C78   H62   S    
C5    C39   S    
C41   C43   A    
C66   C67   S    
C59   O23   S    
C40   C62   A    
C39   C61   A    
C40   C60   A    
C46   H26   S    
C81   H69   S    
C82   H71   S    
C65   H36   S    
