data_mof_unit_28224.cif
_audit_creation_date              2012-12-10T18:35:25-0500
_audit_creation_method            fapswitch 2.2
_symmetry_space_group_name_H-M    P1
_symmetry_Int_Tables_number       1
_space_group_crystal_system       triclinic
_cell_length_a                    15.12275
_cell_length_b                    13.944457
_cell_length_c                    10.893772
_cell_angle_alpha                 90.280794
_cell_angle_beta                  92.781733
_cell_angle_gamma                 89.981756
_cell_volume                      2294.52818587

loop_
_atom_site_label
_atom_site_type_symbol
_atom_type_description
_atom_site_fract_x
_atom_site_fract_y
_atom_site_fract_z
_atom_type_partial_charge
C1    C     C_R   0.330132 0.500035 0.500947 0.836228
C2    C     C_R   0.669950 0.499938 0.501175 0.855420
C3    C     C_R   0.048976 0.499765 0.507622 -0.191262
C4    C     C_R   0.951652 0.498819 0.507938 -0.184018
C5    C     C_R   0.543051 0.106132 0.591782 -0.209106
C6    C     C_R   0.430728 0.891827 0.438643 -0.322468
C7    C     C_R   0.457467 0.107033 0.402198 -0.165949
C8    C     C_R   0.569954 0.893607 0.552093 -0.240068
C9    C     C_R   0.545544 0.206870 0.590829 0.580468
C10   C     C_R   0.432161 0.789991 0.439609 0.592006
C11   C     C_R   0.455722 0.207893 0.406150 0.559177
C12   C     C_R   0.568158 0.793170 0.557414 0.543002
C13   C     C_R   0.499883 0.053900 0.496438 0.005541
C14   C     C_R   0.500140 0.945363 0.495214 0.045717
C15   C     C_R   0.499731 0.499432 0.262501 0.891031
C16   C     C_R   0.493086 0.500456 0.737676 0.806807
C17   C     C_R   0.367783 0.618154 0.118099 0.398614
C18   C     C_R   0.476991 0.318441 0.891510 0.435609
C19   C     C_R   0.436625 0.676322 0.896106 0.386939
C20   C     C_R   0.580423 0.347124 0.109440 0.394491
C21   C     C_R   0.332818 0.700486 0.059129 -0.106056
C22   C     C_R   0.519523 0.238524 0.948902 -0.081533
C23   C     C_R   0.371988 0.733679 0.952058 -0.224706
C24   C     C_R   0.578720 0.255190 0.052274 -0.200358
C25   C     C_R   0.454020 0.582376 0.941303 0.019959
C26   C     C_R   0.524316 0.419866 0.060403 0.014937
C27   C     C_R   0.437807 0.566929 0.065280 -0.142279
C28   C     C_R   0.494944 0.412345 0.937804 -0.153401
C29   C     C_R   0.480916 0.499965 0.872093 -0.133442
C30   C     C_R   0.490388 0.497145 0.128511 -0.115501
C31   C     C_R   0.092885 0.572058 0.442089 0.416150
C32   C     C_R   0.902819 0.426088 0.442762 0.418130
C33   C     C_R   0.906283 0.571376 0.572039 0.420077
C34   C     C_R   0.099182 0.428097 0.572010 0.425822
C35   C     C_R   0.184863 0.572793 0.444499 -0.094517
C36   C     C_R   0.810962 0.426001 0.445026 -0.138785
C37   C     C_R   0.814170 0.572113 0.565954 -0.155501
C38   C     C_R   0.190889 0.427857 0.565991 -0.179411
C39   C     C_R   0.233869 0.500151 0.503628 -0.225328
C40   C     C_R   0.766438 0.499565 0.503742 -0.210589
Cu1   Cu    Cu3+1 0.500000 0.596430 0.500000 1.046254
Cu2   Cu    Cu3+1 0.500000 0.403570 0.500000 0.995069
H1    H     H_    0.217941 0.628995 0.396223 0.246500
H2    H     H_    0.774103 0.369455 0.397238 0.197347
H3    H     H_    0.779812 0.628192 0.613612 0.215994
H4    H     H_    0.228979 0.372336 0.613643 0.197759
H5    H     H_    0.576770 0.069369 0.667622 0.180416
H6    H     H_    0.374902 0.928471 0.394236 0.164277
H7    H     H_    0.424793 0.070930 0.324394 0.186576
H8    H     H_    0.626513 0.930490 0.594649 0.185975
N1    N     N_R   0.500000 0.258690 0.500000 -0.270924
N2    N     N_R   0.500000 0.741310 0.500000 -0.233690
O1    O     O_R   0.371460 0.581430 0.500010 -0.505032
O2    O     O_R   0.628540 0.418570 0.499990 -0.598794
O3    O     O_R   0.628540 0.581430 0.499990 -0.583676
O4    O     O_R   0.371460 0.418570 0.500010 -0.624329
O5    O     O_R   0.499990 0.581440 0.319660 -0.537518
O6    O     O_R   0.500010 0.418560 0.680340 -0.571214
O7    O     O_R   0.500010 0.581440 0.680340 -0.550991
O8    O     O_R   0.499990 0.418560 0.319660 -0.552569
C41   C     C_2   0.631732 0.176189 0.108193 0.921516
O9    O     O_2   0.613693 0.144903 0.208582 -0.584437
O10   O     O_R   0.703881 0.139740 0.047457 -0.686156
H9    H     H_    0.735448 0.086516 0.095119 0.354509
C42   C     C_2   0.340798 0.822935 0.890870 0.883634
O11   O     O_2   0.306537 0.819066 0.786962 -0.566501
O12   O     O_R   0.354509 0.911440 0.949328 -0.695226
H10   H     H_    0.329926 0.966744 0.898221 0.372842
C43   C     C_2   0.498367 0.139034 0.903204 0.944836
O13   O     O_2   0.427330 0.122452 0.848841 -0.545701
O14   O     O_R   0.558710 0.063923 0.921654 -0.733547
H11   H     H_    0.535815 0.000693 0.886402 0.335861
C44   C     C_2   0.253380 0.747784 0.107862 0.921709
O15   O     O_2   0.191350 0.698882 0.139315 -0.522188
O16   O     O_R   0.249629 0.847441 0.120194 -0.730896
H12   H     H_    0.192416 0.870199 0.155469 0.348560
O17   O     O_3   0.326544 0.584201 0.219482 -0.685304
H13   H     H_    0.331355 0.513328 0.220367 0.300656
O18   O     O_3   0.411145 0.302056 0.801253 -0.653929
H14   H     H_    0.371505 0.358737 0.796165 0.318283
O19   O     O_3   0.493322 0.716473 0.815184 -0.701848
H15   H     H_    0.487023 0.787090 0.813383 0.325418
O20   O     O_3   0.638844 0.370148 0.206903 -0.717508
H16   H     H_    0.684203 0.319594 0.218555 0.330705
O21   O     O_3   0.049396 0.643023 0.374618 -0.659026
H17   H     H_    0.985641 0.627928 0.364025 0.348554
O22   O     O_3   0.941262 0.354139 0.375708 -0.682306
H18   H     H_    0.004499 0.368401 0.365742 0.348869
O23   O     O_3   0.948527 0.642895 0.640863 -0.671176
H19   H     H_    0.012226 0.627992 0.653242 0.347089
O24   O     O_3   0.062110 0.357032 0.641091 -0.676489
H20   H     H_    0.999090 0.371442 0.652908 0.346753
O25   O     O_3   0.595863 0.249523 0.684209 -0.721962
H21   H     H_    0.616806 0.311513 0.655314 0.364050
O26   O     O_3   0.365495 0.738711 0.379448 -0.666180
H22   H     H_    0.318927 0.783539 0.348148 0.319378
O27   O     O_3   0.409561 0.252105 0.310620 -0.718098
H23   H     H_    0.382270 0.310222 0.343033 0.356366
O28   O     O_3   0.637358 0.750259 0.622336 -0.711359
H24   H     H_    0.614907 0.691439 0.659121 0.380970

loop_
_geom_bond_atom_site_label_1
_geom_bond_atom_site_label_2
_ccdc_geom_bond_type
O22   H18   S    
Cu1   Cu2   S    
O25   H21   S    
C31   O21   S    
C8    H8    S    
C44   O16   S    
C15   O8    A    
C19   C23   A    
O26   H22   S    
C9    N1    A    
C10   N2    A    
Cu2   O6    S    
O27   H23   S    
O17   H13   S    
C7    C11   A    
C5    H5    S    
C24   C41   S    
C6    H6    S    
C32   C36   A    
C28   C29   A    
C1    O4    A    
C37   C40   A    
C2    O3    A    
C38   C39   A    
C21   C44   S    
C41   O10   S    
C44   O15   D    
C43   O14   S    
C1    O1    A    
C34   O24   S    
Cu1   O3    S    
C12   O28   S    
Cu2   O4    S    
C20   C24   A    
C18   O18   S    
C42   O12   S    
C35   H1    S    
C22   C43   S    
C5    C13   A    
Cu2   N1    S    
C18   C22   A    
C13   C14   S    
C27   C30   A    
C15   O5    A    
C43   O13   D    
C12   N2    A    
O19   H15   S    
C25   C29   A    
O12   H10   S    
C17   C27   A    
C36   C40   A    
C18   C28   A    
C7    H7    S    
C2    O2    A    
Cu2   O8    S    
O24   H20   S    
C3    C34   A    
C16   C29   S    
O21   H17   S    
C32   O22   S    
C33   C37   A    
O18   H14   S    
C16   O7    A    
C35   C39   A    
O16   H12   S    
C5    C9    A    
C33   O23   S    
C6    C14   A    
O20   H16   S    
C8    C12   A    
C17   O17   S    
C16   O6    A    
C3    C31   A    
Cu1   O1    S    
C4    C32   A    
C26   C30   A    
C21   C23   A    
C22   C24   A    
C36   H2    S    
C37   H3    S    
C3    C4    S    
C9    O25   S    
C15   C30   S    
C4    C33   A    
C8    C14   A    
Cu1   N2    S    
C34   C38   A    
C6    C10   A    
C25   C27   A    
C26   C28   A    
O28   H24   S    
C11   O27   S    
C23   C42   S    
Cu1   O5    S    
O14   H11   S    
Cu2   O2    S    
C20   C26   A    
C10   O26   S    
C31   C35   A    
C41   O9    D    
C19   C25   A    
C17   C21   A    
C38   H4    S    
C11   N1    A    
C1    C39   S    
O10   H9    S    
C2    C40   S    
C7    C13   A    
C42   O11   D    
C20   O20   S    
O23   H19   S    
C19   O19   S    
Cu1   O7    S    
