data_mof_unit_44187.cif
_audit_creation_date              2012-12-10T16:52:38-0500
_audit_creation_method            fapswitch 2.2
_symmetry_space_group_name_H-M    P1
_symmetry_Int_Tables_number       1
_space_group_crystal_system       triclinic
_cell_length_a                    13.025377
_cell_length_b                    10.919654
_cell_length_c                    9.675658
_cell_angle_alpha                 90.166595
_cell_angle_beta                  97.13814
_cell_angle_gamma                 90.205205
_cell_volume                      1365.51126419

loop_
_atom_site_label
_atom_site_type_symbol
_atom_type_description
_atom_site_fract_x
_atom_site_fract_y
_atom_site_fract_z
_atom_type_partial_charge
C1    C     C_R   0.496787 0.265352 0.499300 0.848429
C2    C     C_2   0.487356 0.133561 0.498932 -0.267387
C3    C     C_2   0.450409 0.419066 0.913618 -0.069195
C4    C     C_R   0.300072 0.500047 0.472437 0.809509
C5    C     C_2   0.455468 0.415091 0.070065 -0.066513
C6    C     C_R   0.506326 0.734705 0.501313 0.792988
C7    C     C_R   0.699815 0.498389 0.527533 0.804719
C8    C     C_R   0.813419 0.495453 0.546088 -0.095235
C9    C     C_R   0.186297 0.501194 0.454132 -0.134283
C10   C     C_R   0.018534 0.530357 0.317464 -0.242081
C11   C     C_R   0.125920 0.523682 0.323924 -0.004350
C12   C     C_R   0.029559 0.488256 0.565406 0.153406
C13   C     C_R   0.136641 0.483362 0.573313 -0.245923
C14   C     C_R   0.826538 0.446956 0.804700 0.130641
C15   C     C_R   0.790376 0.329112 0.831018 -0.108275
C16   C     C_R   0.744959 0.306535 0.952098 -0.112323
C17   C     C_R   0.735399 0.401348 0.047028 -0.120237
C18   C     C_R   0.770774 0.519019 0.020670 -0.183142
C19   C     C_R   0.816924 0.541758 0.900338 -0.099880
C20   C     C_2   0.170015 0.539556 0.191844 0.872862
C21   C     C_2   0.600199 0.914300 0.626447 0.838822
C22   C     C_R   0.970369 0.512147 0.436774 0.153675
C23   C     C_R   0.863407 0.516279 0.428295 -0.253152
C24   C     C_R   0.873170 0.471671 0.676195 -0.016982
C25   C     C_R   0.980945 0.469129 0.684474 -0.227091
C26   C     C_2   0.496584 0.932959 0.391721 -0.225223
C27   C     C_2   0.529449 0.865493 0.505193 -0.156912
C28   C     C_2   0.503743 0.066558 0.387999 -0.102189
Cu1   Cu    Cu3+1 0.500020 0.500020 0.638640 0.985406
Cu2   Cu    Cu3+1 0.499980 0.499980 0.361360 0.964106
H1    H     H_    0.818973 0.535575 0.328744 0.155735
H2    H     H_    0.457454 0.889388 0.298504 0.178742
H3    H     H_    0.517253 0.109608 0.290766 0.164076
H4    H     H_    0.796985 0.255335 0.757628 0.126017
H5    H     H_    0.716920 0.215679 0.972143 0.135840
H6    H     H_    0.700140 0.383745 0.140582 0.158242
H7    H     H_    0.762022 0.592870 0.092980 0.134412
H8    H     H_    0.844007 0.633231 0.880777 0.142580
H9    H     H_    0.236417 0.460315 0.037232 0.320516
H10   H     H_    0.718405 0.027646 0.695636 0.322219
H11   H     H_    0.467068 0.090629 0.593016 0.149241
H12   H     H_    0.404223 0.349493 0.854375 0.153309
H13   H     H_    0.546862 0.560952 0.902082 0.214588
H14   H     H_    0.418416 0.338235 0.114791 0.176722
H15   H     H_    0.530042 0.574343 0.111177 0.201149
H16   H     H_    0.972273 0.547814 0.218300 0.150319
H17   H     H_    0.026752 0.450691 0.783709 0.151361
H18   H     H_    0.181280 0.465185 0.673356 0.163808
N1    N     N_2   0.498860 0.498660 0.846770 -0.266589
N2    N     N_2   0.498840 0.498630 0.152900 -0.284295
O1    O     O_R   0.500020 0.321960 0.617050 -0.581901
O2    O     O_R   0.213792 0.439464 0.130927 -0.758237
O3    O     O_2   0.594785 0.875240 0.743666 -0.595779
O4    O     O_R   0.675163 0.002177 0.605667 -0.753318
O5    O     O_R   0.499980 0.321920 0.382890 -0.583353
O6    O     O_R   0.349010 0.500000 0.598060 -0.581082
O7    O     O_R   0.348980 0.499950 0.363910 -0.545494
O8    O     O_R   0.500020 0.678080 0.617110 -0.536590
O9    O     O_R   0.499980 0.678040 0.382950 -0.581992
O10   O     O_R   0.651020 0.500050 0.636090 -0.564040
O11   O     O_R   0.650990 0.500000 0.401940 -0.593364
O12   O     O_2   0.163369 0.638592 0.132869 -0.597035

loop_
_geom_bond_atom_site_label_1
_geom_bond_atom_site_label_2
_ccdc_geom_bond_type
C4    O7    A    
C10   H16   S    
C13   H18   S    
C2    C28   D    
C24   C25   A    
C3    H12   S    
C26   H2    S    
Cu1   Cu2   S    
Cu1   O6    S    
C9    C11   A    
Cu2   O5    S    
C25   H17   S    
C15   H4    S    
C26   C28   S    
C6    C27   S    
Cu1   O10   S    
C12   C25   A    
Cu2   O9    S    
C17   C18   A    
C3    N1    D    
C7    C8    S    
C20   O2    S    
Cu1   N1    S    
C10   C22   A    
C21   O3    D    
C1    O1    A    
C26   C27   D    
C7    O11   A    
H15   N2    S    
Cu1   O8    S    
C6    O9    A    
C17   H6    S    
C5    H14   S    
C28   H3    S    
H9    O2    S    
Cu2   N2    S    
H10   O4    S    
C22   C23   A    
C16   H5    S    
C1    O5    A    
C21   O4    S    
C21   C27   S    
C11   C20   S    
C16   C17   A    
C10   C11   A    
C2    H11   S    
C15   C16   A    
Cu2   O7    S    
C12   C22   A    
C5    N2    D    
C8    C23   A    
C12   C13   A    
C18   C19   A    
Cu1   O1    S    
Cu2   O11   S    
C14   C24   S    
C1    C2    S    
C6    O8    A    
C19   H8    S    
H13   N1    S    
C9    C13   A    
C8    C24   A    
C4    C9    S    
C14   C15   A    
C14   C19   A    
C18   H7    S    
C4    O6    A    
C7    O10   A    
C20   O12   D    
C3    C5    S    
C23   H1    S    
