data_mof_unit_27558.cif
_audit_creation_date              2012-10-26T21:02:34-0400
_audit_creation_method            fapswitch 2.2
_symmetry_space_group_name_H-M    P1
_symmetry_Int_Tables_number       1
_space_group_crystal_system       triclinic
_cell_length_a                    12.413497
_cell_length_b                    13.243746
_cell_length_c                    15.014892
_cell_angle_alpha                 75.856145
_cell_angle_beta                  101.656756
_cell_angle_gamma                 116.843916
_cell_volume                      2123.66610843

loop_
_atom_site_label
_atom_site_type_symbol
_atom_type_description
_atom_site_fract_x
_atom_site_fract_y
_atom_site_fract_z
_atom_type_partial_charge
C1    C     C_R   0.855792 0.287007 0.504697 0.604362
C2    C     C_R   0.923112 0.399380 0.822491 0.256666
C3    C     C_R   0.998926 0.498487 0.767469 0.023666
C4    C     C_R   0.999382 0.498854 0.670882 0.607731
C5    C     C_R   0.072423 0.598557 0.803505 0.326754
C6    C     C_R   0.271431 0.034939 0.446766 0.300511
C7    C     C_R   0.228933 0.834296 0.498983 -0.042795
C8    C     C_R   0.821808 0.084411 0.562015 0.328438
C9    C     C_R   0.744935 0.982746 0.611267 0.468598
C10   C     C_R   0.622620 0.957187 0.605780 0.419267
C11   C     C_R   0.568486 0.017407 0.534214 -0.079427
C12   C     C_R   0.083100 0.601371 0.085827 0.004847
C13   C     C_R   0.648293 0.123243 0.485100 -0.177758
C14   C     C_R   0.439760 0.981121 0.512871 -0.058278
C15   C     C_R   0.396513 0.062424 0.458407 -0.133805
C16   C     C_R   0.145091 0.712923 0.494247 0.553026
C17   C     C_R   0.477032 0.165585 0.410422 0.423685
C18   C     C_R   0.599069 0.190218 0.417599 0.451846
C19   C     C_R   0.352907 0.865275 0.535656 0.239929
C20   C     C_R   0.188328 0.920533 0.462879 0.356872
C21   C     C_R   0.775664 0.162890 0.510004 -0.083959
C22   C     C_R   0.369253 0.372223 0.672891 0.263043
C23   C     C_R   0.828671 0.312887 0.059133 0.445937
C24   C     C_R   0.760933 0.646961 0.374341 0.574693
C25   C     C_R   0.678606 0.695935 0.356097 0.378576
C26   C     C_R   0.579108 0.651408 0.408560 0.256635
C27   C     C_R   0.562074 0.552971 0.478292 -0.080487
C28   C     C_R   0.000594 0.501220 0.329358 0.577383
C29   C     C_R   0.657927 0.514848 0.502647 0.024186
C30   C     C_R   0.456499 0.494576 0.530004 -0.078439
C31   C     C_R   0.468653 0.433288 0.619848 -0.101139
C32   C     C_R   0.577607 0.425640 0.652354 0.396306
C33   C     C_R   0.651577 0.435988 0.588616 0.318280
C34   C     C_R   0.829159 0.311286 0.967198 0.455961
C35   C     C_R   0.338275 0.490239 0.496250 0.404537
C36   C     C_R   0.259311 0.377757 0.638012 0.476585
C37   C     C_R   0.081917 0.600754 0.179850 0.226798
C38   C     C_R   0.000933 0.502641 0.232870 0.002350
C39   C     C_R   0.920521 0.404960 0.195119 0.245508
C40   C     C_R   0.915534 0.406369 0.100648 -0.036321
C41   C     C_R   0.999110 0.503362 0.046497 -0.143160
C42   C     C_3   0.114332 0.763101 0.229980 -0.042076
C43   C     C_3   0.229721 0.164896 0.488758 -0.042513
C44   C     C_3   0.349060 0.732726 0.667683 0.033463
C45   C     C_R   0.916158 0.403237 0.913951 -0.023528
C46   C     C_3   0.334617 0.191705 0.749484 -0.025348
C47   C     C_3   0.901521 0.235397 0.288061 -0.007413
C48   C     C_3   0.296022 0.461052 0.347626 -0.085590
C49   C     C_3   0.481107 0.763876 0.319430 0.041580
C50   C     C_3   0.637281 0.251368 0.640624 -0.015418
C51   C     C_3   0.910705 0.228730 0.805428 -0.044467
C52   C     C_3   0.361141 0.762057 0.905609 -0.061960
C53   C     C_3   0.225414 0.889314 0.027985 -0.047229
C54   C     C_R   0.998422 0.501816 0.952818 -0.151568
C55   C     C_R   0.079799 0.598564 0.897782 0.018346
C56   C     C_R   0.167021 0.693161 0.937745 0.306637
C57   C     C_R   0.165098 0.697588 0.030065 0.288257
Cu1   Cu    Cu3+1 0.098270 0.475420 0.521130 1.113066
Cu2   Cu    Cu3+1 0.901730 0.524580 0.478870 1.209509
F1    F     F_    0.436339 0.238320 0.349244 -0.564740
F2    F     F_    0.741228 0.222346 0.106695 -0.525893
F3    F     F_    0.741798 0.219904 0.930387 -0.538264
F4    F     F_    0.131233 0.697132 0.745273 -0.639922
F5    F     F_    0.068427 0.894526 0.438650 -0.536171
F6    F     F_    0.942929 0.113004 0.577604 -0.571771
F7    F     F_    0.568214 0.893322 0.682183 -0.615598
F8    F     F_    0.792329 0.917870 0.675765 -0.522930
F9    F     F_    0.668152 0.279031 0.356425 -0.527426
F10   F     F_    0.164648 0.321799 0.689446 -0.605445
F11   F     F_    0.603656 0.389730 0.743609 -0.550558
F12   F     F_    0.856376 0.694927 0.323768 -0.561779
F13   F     F_    0.703011 0.792709 0.291279 -0.591884
H1    H     H_    0.187739 0.849989 0.235463 0.147100
H2    H     H_    0.349655 0.141086 0.817579 0.177691
H3    H     H_    0.383649 0.181841 0.700068 0.072393
H4    H     H_    0.235330 0.154782 0.727496 0.166594
H5    H     H_    0.927837 0.210249 0.233121 0.149970
H6    H     H_    0.836737 0.155614 0.327308 0.190650
H7    H     H_    0.982319 0.274608 0.336980 0.096353
H8    H     H_    0.212255 0.380800 0.360186 0.123470
H9    H     H_    0.375151 0.440512 0.354352 0.144753
H10   H     H_    0.283737 0.502764 0.275056 0.150201
H11   H     H_    0.463150 0.710718 0.266327 0.149135
H12   H     H_    0.069423 0.731460 0.294072 0.194324
H13   H     H_    0.550235 0.852842 0.299661 0.193800
H14   H     H_    0.395587 0.770425 0.321132 0.187876
H15   H     H_    0.553439 0.221407 0.591946 0.035789
H16   H     H_    0.613623 0.233219 0.711851 0.236803
H17   H     H_    0.687035 0.199194 0.643912 0.132686
H18   H     H_    0.857231 0.154682 0.768906 0.180025
H19   H     H_    0.917347 0.194404 0.880710 0.158392
H20   H     H_    0.002613 0.273163 0.781752 0.189374
H21   H     H_    0.432662 0.833654 0.865287 0.185937
H22   H     H_    0.343774 0.680858 0.884090 0.111949
H23   H     H_    0.048861 0.772546 0.169322 0.144999
H24   H     H_    0.397131 0.760149 0.979859 0.164898
H25   H     H_    0.268286 0.952220 0.075795 0.158517
H26   H     H_    0.126417 0.867751 0.017003 0.111030
H27   H     H_    0.266490 0.932710 0.962095 0.183355
H28   H     H_    0.324110 0.223222 0.511660 0.070783
H29   H     H_    0.187160 0.097269 0.547922 0.159642
H30   H     H_    0.175488 0.215679 0.466814 0.157298
H31   H     H_    0.257033 0.663443 0.664213 0.167480
H32   H     H_    0.351412 0.798318 0.703403 0.192071
H33   H     H_    0.407693 0.692497 0.711445 0.181819
N1    N     N_R   0.246280 0.438190 0.553160 -0.266558
N2    N     N_R   0.754320 0.561190 0.447410 -0.260726
O1    O     O_R   0.972510 0.318130 0.526570 -0.435569
O2    O     O_3   0.228210 0.118129 0.413233 -0.458365
O3    O     O_3   0.391827 0.780464 0.579339 -0.479890
O4    O     O_3   0.379027 0.307570 0.759202 -0.456110
O5    O     O_3   0.843959 0.309626 0.250846 -0.446913
O6    O     O_3   0.313680 0.537150 0.406254 -0.494525
O7    O     O_3   0.515616 0.715363 0.408992 -0.500382
O8    O     O_3   0.714961 0.368836 0.612617 -0.488490
O9    O     O_3   0.850967 0.301737 0.784311 -0.512293
O10   O     O_3   0.255784 0.782199 0.886831 -0.520112
O11   O     O_3   0.250227 0.792601 0.067718 -0.528487
O12   O     O_R   0.806530 0.359650 0.490890 -0.421903
O13   O     O_R   0.082980 0.479210 0.647590 -0.499877
O14   O     O_R   0.917000 0.520730 0.611900 -0.433802
O15   O     O_R   0.193470 0.640350 0.509110 -0.469955
O16   O     O_R   0.027490 0.681870 0.473430 -0.420541
O17   O     O_R   0.083000 0.479270 0.388100 -0.498057
O18   O     O_R   0.917020 0.520790 0.352410 -0.430633
O19   O     O_3   0.167278 0.691343 0.222387 -0.552742

loop_
_geom_bond_atom_site_label_1
_geom_bond_atom_site_label_2
_ccdc_geom_bond_type
Cu2   O14   S    
C55   C56   A    
C1    C21   S    
C27   C29   A    
C56   O10   S    
C47   H7    S    
C43   H29   S    
C44   H32   S    
C52   H24   S    
C44   H33   S    
C53   H27   S    
C26   C27   A    
C37   C38   A    
C30   C35   A    
C48   H9    S    
C16   O16   A    
C51   H18   S    
C30   C31   A    
C11   C14   A    
C18   F9    S    
C47   O5    S    
C29   C33   A    
C34   F3    S    
C56   C57   A    
C5    F4    S    
C50   O8    S    
C1    O12   A    
C12   C37   A    
C16   O15   A    
C51   H19   S    
C6    C15   A    
C2    O9    S    
C8    C9    A    
C52   H22   S    
C9    C10   A    
C50   H16   S    
C52   O10   S    
C49   O7    S    
C8    F6    S    
C46   O4    S    
C27   C30   A    
C14   C19   A    
C46   H4    S    
C46   H3    S    
C44   H31   S    
C8    C21   A    
C10   F7    S    
C2    C45   A    
Cu2   O16   S    
C33   O8    S    
Cu1   O15   S    
C22   C31   A    
C36   N1    A    
C42   H23   S    
C49   H13   S    
C42   H12   S    
C24   C25   A    
C39   C40   A    
C25   F13   S    
C53   O11   S    
C32   F11   S    
C1    O1    A    
C53   H25   S    
Cu1   Cu2   S    
Cu2   N2    S    
Cu1   N1    S    
C20   F5    S    
C9    F8    S    
C12   C41   A    
C51   H20   S    
C50   H17   S    
C31   C32   A    
C28   C38   S    
C23   C34   A    
Cu1   O13   S    
C17   C18   A    
C13   C21   A    
C52   H21   S    
C24   N2    A    
C43   H28   S    
C34   C45   A    
C50   H15   S    
C12   C57   A    
C13   C18   A    
C39   O5    S    
C45   C54   A    
C7    C20   A    
C7    C19   A    
C6    O2    S    
C47   H5    S    
C3    C4    S    
C46   H2    S    
C6    C20   A    
C28   O18   A    
C37   O19   S    
C19   O3    S    
C26   O7    S    
C15   C17   A    
C54   C55   A    
C7    C16   S    
C42   H1    S    
Cu2   O12   S    
C49   H14   S    
C5    C55   A    
C4    O13   A    
C3    C5    A    
C28   O17   A    
C53   H26   S    
Cu2   O18   S    
C22   C36   A    
Cu1   O17   S    
C51   O9    S    
C32   C33   A    
C48   H8    S    
C2    C3    A    
C25   C26   A    
C43   H30   S    
C35   N1    A    
C11   C13   A    
C49   H11   S    
C38   C39   A    
C48   H10   S    
C4    O14   A    
C35   O6    S    
Cu1   O1    S    
C36   F10   S    
C41   C54   A    
C10   C11   A    
C42   O19   S    
C17   F1    S    
C23   F2    S    
C57   O11   S    
C22   O4    S    
C14   C15   A    
C29   N2    A    
C40   C41   A    
C43   O2    S    
C47   H6    S    
C23   C40   A    
C24   F12   S    
C48   O6    S    
C44   O3    S    
