data_mof_unit_28656.cif
_audit_creation_date              2012-12-10T16:49:29-0500
_audit_creation_method            fapswitch 2.2
_symmetry_space_group_name_H-M    P1
_symmetry_Int_Tables_number       1
_space_group_crystal_system       triclinic
_cell_length_a                    7.817553
_cell_length_b                    8.591764
_cell_length_c                    12.864579
_cell_angle_alpha                 88.80642
_cell_angle_beta                  88.278012
_cell_angle_gamma                 92.862346
_cell_volume                      862.386066892

loop_
_atom_site_label
_atom_site_type_symbol
_atom_type_description
_atom_site_fract_x
_atom_site_fract_y
_atom_site_fract_z
_atom_type_partial_charge
C1    C     C_R   0.456202 0.205888 0.498002 0.916659
C2    C     C_R   0.709895 0.462371 0.141424 -0.140906
C3    C     C_R   0.589461 0.474002 0.869361 -0.241044
C4    C     C_R   0.410539 0.525998 0.130639 -0.241043
C5    C     C_R   0.578506 0.481983 0.975750 0.172170
C6    C     C_R   0.421494 0.518017 0.024250 0.172170
C7    C     C_2   0.434647 0.044344 0.513903 0.099706
C8    C     C_2   0.565353 0.955656 0.486092 0.099705
C9    C     C_R   0.543798 0.794112 0.501997 0.916657
C10   C     C_R   0.466361 0.501913 0.699598 0.879489
C11   C     C_R   0.533639 0.498086 0.300402 0.879489
C12   C     C_R   0.553380 0.496523 0.189292 -0.044138
C13   C     C_R   0.446620 0.503477 0.810708 -0.044139
C14   C     C_R   0.277563 0.544913 0.965801 -0.204289
C15   C     C_R   0.722436 0.455087 0.034198 -0.204290
C16   C     C_R   0.290104 0.537629 0.858576 -0.140908
Cl1   Cl    Cl    0.978998 0.667093 0.379654 -0.420095
Cl2   Cl    Cl    0.021002 0.332906 0.620345 -0.420097
Cl3   Cl    Cl    0.252450 0.980261 0.592786 -0.484109
Cl4   Cl    Cl    0.747548 0.019739 0.407205 -0.484109
H1    H     H_    0.289544 0.554031 0.167438 0.187063
H2    H     H_    0.710456 0.445968 0.832562 0.187063
H3    H     H_    0.821082 0.439576 0.186557 0.192360
H4    H     H_    0.178918 0.560424 0.813442 0.192360
H5    H     H_    0.156636 0.572241 0.002817 0.150429
H6    H     H_    0.843364 0.427759 0.997183 0.150429
N1    N     N_2   0.054030 0.541640 0.471970 0.141985
N2    N     N_2   0.945970 0.458360 0.528030 0.141985
O1    O     O_R   0.609680 0.261530 0.506880 -0.579653
O2    O     O_R   0.390320 0.738470 0.493120 -0.579651
O3    O     O_R   0.323330 0.288220 0.488910 -0.553763
O4    O     O_R   0.676670 0.711780 0.511090 -0.553765
O5    O     O_R   0.619510 0.488830 0.661140 -0.623391
O6    O     O_R   0.380490 0.511170 0.338860 -0.623391
O7    O     O_R   0.333160 0.515520 0.643180 -0.587871
O8    O     O_R   0.666840 0.484480 0.356820 -0.587871
Zn1   Zn    Zn3+2 0.691200 0.482180 0.511990 1.139402
Zn2   Zn    Zn3+2 0.308800 0.517820 0.488010 1.139403

loop_
_geom_bond_atom_site_label_1
_geom_bond_atom_site_label_2
_ccdc_geom_bond_type
C11   C12   S    
C15   H6    S    
C10   O7    A    
C4    H1    S    
C4    C12   A    
C3    C13   A    
O3    Zn2   S    
C2    C12   A    
C1    O1    A    
C7    C8    D    
C16   H4    S    
C1    C7    S    
O4    Zn1   S    
C2    C15   A    
C8    Cl4   S    
N2    Zn1   S    
C9    O2    A    
C11   O8    A    
C10   O5    A    
C7    Cl3   S    
C14   H5    S    
C5    C6    A    
C14   C16   A    
C5    C15   A    
C6    C14   A    
N1    Zn2   S    
Cl1   N1    S    
C1    O3    A    
O7    Zn2   S    
Cl2   N2    S    
O2    Zn2   S    
C4    C6    A    
C13   C16   A    
O1    Zn1   S    
C2    H3    S    
O8    Zn1   S    
C3    H2    S    
C9    O4    A    
C3    C5    A    
O6    Zn2   S    
C11   O6    A    
O5    Zn1   S    
C8    C9    S    
N1    N2    D    
C10   C13   S    
