data_mof_unit_32423.cif
_audit_creation_date              2012-12-10T17:10:27-0500
_audit_creation_method            fapswitch 2.2
_symmetry_space_group_name_H-M    P1
_symmetry_Int_Tables_number       1
_space_group_crystal_system       triclinic
_cell_length_a                    10.785306
_cell_length_b                    12.942586
_cell_length_c                    11.701658
_cell_angle_alpha                 98.915029
_cell_angle_beta                  94.188451
_cell_angle_gamma                 91.807915
_cell_volume                      1607.86465992

loop_
_atom_site_label
_atom_site_type_symbol
_atom_type_description
_atom_site_fract_x
_atom_site_fract_y
_atom_site_fract_z
_atom_type_partial_charge
C1    C     C_R   0.495251 0.299388 0.479454 0.804457
C2    C     C_R   0.500214 0.700647 0.521096 0.794135
C3    C     C_R   0.502389 0.813949 0.534835 -0.046474
C4    C     C_R   0.483462 0.186521 0.469631 -0.045051
C5    C     C_R   0.394272 0.019890 0.370876 -0.227259
C6    C     C_R   0.583445 0.981485 0.638335 -0.215458
C7    C     C_R   0.412186 0.127378 0.375577 -0.205753
C8    C     C_R   0.573540 0.873250 0.628929 -0.195202
C9    C     C_R   0.538637 0.138256 0.558067 -0.247514
C10   C     C_R   0.436251 0.863174 0.453126 -0.279567
C11   C     C_R   0.524162 0.030600 0.552426 0.171041
C12   C     C_R   0.450250 0.971006 0.458755 0.179554
C13   C     C_R   0.399864 0.386876 0.024089 -0.319520
C14   C     C_R   0.622934 0.594442 0.974753 -0.294247
C15   C     C_R   0.406582 0.400572 0.145335 -0.035782
C16   C     C_R   0.608923 0.587579 0.854261 -0.031050
C17   C     C_R   0.544929 0.548926 0.156269 0.604271
C18   C     C_R   0.452027 0.451513 0.841994 0.622175
C19   C     C_R   0.542824 0.535558 0.032646 -0.058775
C20   C     C_R   0.462379 0.458012 0.965657 -0.057756
C21   C     C_R   0.264086 0.515852 0.500865 0.789800
C22   C     C_R   0.738041 0.489896 0.499460 0.804256
C23   C     C_R   0.136160 0.598116 0.710836 -0.229354
C24   C     C_R   0.870046 0.431119 0.284590 -0.231569
C25   C     C_R   0.087976 0.593336 0.817421 0.445424
C26   C     C_R   0.918845 0.444704 0.178486 0.500306
C27   C     C_R   0.976945 0.535041 0.819430 -0.277784
C28   C     C_R   0.030882 0.502135 0.183167 -0.209255
C29   C     C_R   0.908771 0.493119 0.715812 -0.208969
C30   C     C_R   0.098612 0.536552 0.288638 -0.220288
C31   C     C_R   0.950043 0.508220 0.606958 0.080808
C32   C     C_R   0.054700 0.516057 0.394084 0.086126
C33   C     C_R   0.072603 0.548162 0.605734 -0.006861
C34   C     C_R   0.931866 0.476294 0.393076 0.033697
C35   C     C_R   0.875077 0.482519 0.499949 -0.193071
C36   C     C_R   0.129586 0.535562 0.500216 -0.192337
Cu1   Cu    Cu3+1 0.509250 0.507730 0.615930 0.962055
Cu2   Cu    Cu3+1 0.490750 0.492270 0.384070 0.956068
H1    H     H_    0.067828 0.517871 0.103739 0.173234
H2    H     H_    0.943664 0.521263 0.900993 0.190455
H3    H     H_    0.346577 0.319584 0.977937 0.178196
H4    H     H_    0.696711 0.646103 0.021725 0.175926
H5    H     H_    0.224317 0.640579 0.711184 0.174157
H6    H     H_    0.785756 0.383838 0.282986 0.131717
H7    H     H_    0.827279 0.444504 0.722719 0.184237
H8    H     H_    0.183889 0.582301 0.286878 0.168281
H9    H     H_    0.375663 0.817546 0.384482 0.125780
H10   H     H_    0.594129 0.184379 0.630412 0.152425
H11   H     H_    0.623872 0.835656 0.693558 0.147437
H12   H     H_    0.368072 0.164651 0.307405 0.146315
H13   H     H_    0.338159 0.974999 0.298292 0.136545
H14   H     H_    0.639883 0.026336 0.710728 0.134929
H15   H     H_    0.668705 0.635532 0.811438 0.149088
H16   H     H_    0.356429 0.345832 0.188074 0.153191
N1    N     N_R   0.523180 0.519350 0.790130 -0.215073
N2    N     N_R   0.476820 0.480650 0.209870 -0.222990
O1    O     O_R   0.506570 0.354460 0.582000 -0.532060
O2    O     O_R   0.493430 0.645540 0.418000 -0.561853
O3    O     O_R   0.490940 0.341410 0.386200 -0.609249
O4    O     O_R   0.509060 0.658590 0.613800 -0.595782
O5    O     O_R   0.327470 0.506520 0.597900 -0.579649
O6    O     O_R   0.672530 0.493480 0.402100 -0.539694
O7    O     O_R   0.311840 0.493460 0.402100 -0.588346
O8    O     O_R   0.688160 0.506540 0.597900 -0.599048
O9    O     O_3   0.160816 0.631640 0.918241 -0.597676
C37   C     C_3   0.099490 0.712139 0.984471 0.071705
H17   H     H_    0.015155 0.680562 0.018911 0.141133
H18   H     H_    0.072500 0.773940 0.931933 0.140623
C38   C     C_3   0.187516 0.762392 0.087023 -0.822686
H19   H     H_    0.271299 0.797583 0.055577 0.243601
H20   H     H_    0.139981 0.824682 0.141453 0.199286
H21   H     H_    0.217117 0.702657 0.140808 0.237818
O10   O     O_3   0.858583 0.412468 0.068520 -0.601008
C39   C     C_3   0.771683 0.327731 0.063241 0.063359
H22   H     H_    0.686380 0.354649 0.104562 0.162262
H23   H     H_    0.812366 0.263491 0.105102 0.128972
C40   C     C_3   0.734216 0.284520 0.936519 -0.781799
H24   H     H_    0.816564 0.253903 0.892769 0.235378
H25   H     H_    0.662450 0.220060 0.930563 0.201314
H26   H     H_    0.695492 0.347198 0.891398 0.255314
O11   O     O_3   0.389287 0.366313 0.772256 -0.569688
C41   C     C_3   0.258572 0.367936 0.778731 0.073172
H27   H     H_    0.216170 0.405017 0.707976 0.197880
H28   H     H_    0.228364 0.410724 0.861265 0.147540
C42   C     C_3   0.203880 0.256052 0.758766 -0.826792
H29   H     H_    0.244025 0.211340 0.825031 0.239297
H30   H     H_    0.101399 0.256855 0.763380 0.210251
H31   H     H_    0.224193 0.215904 0.671562 0.259195
O12   O     O_3   0.624097 0.624598 0.223481 -0.555026
C43   C     C_3   0.579893 0.725594 0.215963 0.062192
H32   H     H_    0.487413 0.734170 0.250287 0.151641
H33   H     H_    0.567814 0.743093 0.126248 0.116927
C44   C     C_3   0.672670 0.807595 0.283916 -0.759368
H34   H     H_    0.762190 0.804416 0.242495 0.229815
H35   H     H_    0.635978 0.886890 0.284784 0.202911
H36   H     H_    0.690000 0.792827 0.374494 0.259010

loop_
_geom_bond_atom_site_label_1
_geom_bond_atom_site_label_2
_ccdc_geom_bond_type
C37   H18   S    
C44   H34   S    
C27   C29   A    
O10   C39   S    
C19   C20   A    
C18   O11   S    
C13   H3    S    
O11   C41   S    
C21   C36   S    
C40   H24   S    
C22   C35   S    
C39   H23   S    
C32   C36   A    
C24   C26   A    
C1    O3    A    
C2    O4    A    
C40   H26   S    
C37   C38   S    
C33   C36   A    
C23   H5    S    
C34   C35   A    
C38   H20   S    
C16   H15   S    
Cu2   O2    S    
C23   C33   A    
C39   C40   S    
C31   C33   A    
C21   O5    A    
C14   H4    S    
C42   H30   S    
C37   H17   S    
C44   H35   S    
C4    C7    A    
C40   H25   S    
C39   H22   S    
C15   H16   S    
C25   O9    S    
C5    C12   A    
C3    C8    A    
C6    C11   A    
C5    C7    A    
C6    C8    A    
C28   H1    S    
C42   H29   S    
C26   O10   S    
C24   C34   A    
C29   H7    S    
C32   C34   A    
C38   H21   S    
Cu1   Cu2   S    
C1    O1    A    
C22   O6    A    
C43   H33   S    
C27   H2    S    
C17   O12   S    
C9    C11   A    
C17   N2    A    
C10   C12   A    
C18   N1    A    
C41   H27   S    
C44   H36   S    
C41   H28   S    
C13   C15   A    
C24   H6    S    
C14   C16   A    
Cu1   O8    S    
C43   C44   S    
Cu2   O7    S    
C42   H31   S    
C13   C20   A    
C14   C19   A    
C30   H8    S    
C7    H12   S    
Cu1   O5    S    
C11   C12   A    
C2    O2    A    
C25   C27   A    
C41   C42   S    
C26   C28   A    
C1    C4    S    
C15   N2    A    
C28   C30   A    
C2    C3    S    
C4    C9    A    
C16   N1    A    
C29   C31   A    
C3    C10   A    
C30   C32   A    
C43   H32   S    
C31   C35   A    
C17   C19   A    
C18   C20   A    
C23   C25   A    
C38   H19   S    
C21   O7    A    
Cu1   O4    S    
C22   O8    A    
Cu2   O3    S    
Cu1   N1    S    
Cu2   N2    S    
C9    H10   S    
O9    C37   S    
C10   H9    S    
C5    H13   S    
C6    H14   S    
O12   C43   S    
C8    H11   S    
Cu1   O1    S    
Cu2   O6    S    
