data_mof_unit_22289.cif
_audit_creation_date              2013-03-05T16:02:01-0500
_audit_creation_method            fapswitch 2.2
_symmetry_space_group_name_H-M    P1
_symmetry_Int_Tables_number       1
_space_group_crystal_system       triclinic
_cell_length_a                    6.936283
_cell_length_b                    17.502546
_cell_length_c                    19.49782
_cell_angle_alpha                 108.557286
_cell_angle_beta                  89.876068
_cell_angle_gamma                 90.710917
_cell_volume                      2243.83511665

loop_
_atom_site_label
_atom_site_type_symbol
_atom_site_description
_atom_site_fract_x
_atom_site_fract_y
_atom_site_fract_z
_atom_type_partial_charge
O1    O     O_R   0.494330 0.415720 0.413720 -0.592778
O2    O     O_R   0.819330 0.430070 0.560210 -0.563715
O3    O     O_R   0.994320 0.584280 0.586280 -0.560013
C1    C     C_R   0.650757 0.416875 0.583380 1.013768
O4    O     O_R   0.823730 0.406300 0.412670 -0.595215
O5    O     O_R   0.998760 0.560340 0.437690 -0.600177
C2    C     C_R   0.654546 0.383789 0.384742 0.933289
O6    O     O_R   0.489890 0.439660 0.562310 -0.588992
O7    O     O_3   0.662340 0.550560 0.508380 -0.284998
V1    V     V_3+5 0.935370 0.490620 0.498450 1.215240
O8    O     O_R   0.328750 0.569930 0.439790 -0.606158
C3    C     C_R   0.160648 0.586178 0.419115 0.930380
O9    O     O_R   0.324340 0.593700 0.587330 -0.611862
C4    C     C_R   0.156684 0.617186 0.614500 0.989998
V2    V     V_3+5 0.435940 0.509380 0.501550 1.180355
O10   O     O_3   0.159100 0.449440 0.491620 -0.261626
H1    H     H_    0.920014 0.861343 0.570802 0.110075
C5    C     C_R   0.309751 0.603785 0.748390 -0.047660
C6    C     C_R   0.349802 0.588989 0.812819 -0.084291
C7    C     C_R   0.277412 0.639839 0.877412 -0.118205
C8    C     C_R   0.177323 0.709036 0.878638 0.135324
C9    C     C_R   0.169234 0.733376 0.815873 0.057000
C10   C     C_R   0.213106 0.674575 0.748441 0.095229
C11   C     C_R   0.111550 0.811787 0.817515 -0.294922
C12   C     C_R   0.064858 0.825368 0.751414 0.126206
C13   C     C_R   0.077720 0.761365 0.684574 0.116470
C14   C     C_R   0.151666 0.685775 0.683145 -0.294893
C15   C     C_R   0.002832 0.901787 0.750399 -0.178836
C16   C     C_R   0.950893 0.914201 0.685785 -0.116367
C17   C     C_R   0.960248 0.851328 0.620851 -0.106510
C18   C     C_R   0.023553 0.775750 0.619899 -0.162910
H2    H     H_    0.354330 0.558809 0.698961 0.154614
H3    H     H_    0.423134 0.534393 0.811850 0.147858
H4    H     H_    0.285542 0.621803 0.925534 0.158758
H5    H     H_    0.992891 0.952733 0.799337 0.115110
H6    H     H_    0.903023 0.972982 0.686154 0.115919
H7    H     H_    0.032303 0.729242 0.567857 0.086499
C19   C     C_R   0.307662 0.637063 0.324083 -0.202390
C20   C     C_R   0.154158 0.637714 0.371636 -0.123729
C21   C     C_R   0.994493 0.687170 0.373007 -0.190162
C22   C     C_R   0.986471 0.734601 0.326810 0.190410
C23   C     C_R   0.139450 0.732262 0.278317 0.056689
C24   C     C_R   0.300553 0.683351 0.277059 0.141610
C25   C     C_R   0.827257 0.783639 0.327558 -0.230025
C26   C     C_R   0.818348 0.829124 0.280111 -0.218726
C27   C     C_R   0.968576 0.826531 0.231054 0.158400
C28   C     C_R   0.130821 0.778469 0.230628 0.035766
C29   C     C_R   0.284235 0.776270 0.182378 0.134528
C30   C     C_R   0.443310 0.727214 0.181497 -0.188560
C31   C     C_R   0.451044 0.681010 0.228235 -0.164276
C32   C     C_R   0.959531 0.871035 0.182452 -0.235302
C33   C     C_R   0.113015 0.869814 0.134705 -0.131829
C34   C     C_R   0.275601 0.822753 0.135588 -0.224509
H8    H     H_    0.431069 0.599110 0.322559 0.144582
H9    H     H_    0.876343 0.688534 0.409865 0.120677
H10   H     H_    0.708412 0.786177 0.364352 0.133085
H11   H     H_    0.693032 0.865937 0.281448 0.135945
H12   H     H_    0.834364 0.907567 0.182500 0.129203
H13   H     H_    0.393975 0.820984 0.098716 0.154201
H14   H     H_    0.562150 0.724634 0.144679 0.165397
H15   H     H_    0.575380 0.643646 0.226356 0.195704
C35   C     C_R   0.782320 0.184084 0.869113 -0.268662
C36   C     C_R   0.622815 0.133575 0.868484 -0.143665
C37   C     C_R   0.468538 0.130517 0.820813 -0.244762
C38   C     C_R   0.473398 0.176774 0.773766 0.145616
C39   C     C_R   0.632716 0.228302 0.775389 0.060632
C40   C     C_R   0.786735 0.232346 0.823721 0.157586
C41   C     C_R   0.321306 0.172649 0.725325 -0.227501
C42   C     C_R   0.326989 0.219011 0.678676 -0.183414
C43   C     C_R   0.483901 0.270964 0.680118 0.156051
C44   C     C_R   0.637315 0.276188 0.728989 -0.013347
C45   C     C_R   0.793780 0.329849 0.732299 -0.034944
C46   C     C_R   0.943975 0.334280 0.782156 -0.118751
C47   C     C_R   0.941435 0.285410 0.826547 -0.223120
C48   C     C_R   0.489848 0.317343 0.633249 -0.218018
C49   C     C_R   0.644058 0.370855 0.635624 -0.322725
C50   C     C_R   0.794286 0.378827 0.686832 0.309049
H16   H     H_    0.900734 0.187301 0.906209 0.142137
H17   H     H_    0.345477 0.091282 0.819718 0.135486
H18   H     H_    0.197731 0.133519 0.723506 0.137483
H19   H     H_    0.207680 0.214661 0.641764 0.137473
H20   H     H_    0.374970 0.311152 0.594144 0.168518
H21   H     H_    0.065273 0.375138 0.787164 0.180433
H22   H     H_    0.060291 0.289673 0.863642 0.147042
H23   H     H_    0.393346 0.142837 0.430752 0.110922
C51   C     C_R   0.771943 0.401757 0.247488 -0.315211
C52   C     C_R   0.830317 0.412863 0.182233 0.417899
C53   C     C_R   0.821721 0.347524 0.118425 -0.226493
C54   C     C_R   0.753839 0.272704 0.119125 -0.215555
C55   C     C_R   0.693940 0.260319 0.184144 0.136183
C56   C     C_R   0.704218 0.325957 0.249799 0.077546
C57   C     C_R   0.620953 0.184331 0.184084 -0.300422
C58   C     C_R   0.558352 0.173813 0.249822 0.115185
C59   C     C_R   0.569867 0.239246 0.315731 0.114258
C60   C     C_R   0.643238 0.315348 0.315862 -0.278765
C61   C     C_R   0.486876 0.098318 0.251544 -0.178231
C62   C     C_R   0.427372 0.087715 0.316245 -0.116850
C63   C     C_R   0.438820 0.151494 0.380556 -0.109112
C64   C     C_R   0.509729 0.226388 0.380668 -0.157490
H24   H     H_    0.778891 0.453062 0.296300 0.162942
H25   H     H_    0.865068 0.354486 0.067339 0.172050
H26   H     H_    0.747136 0.224998 0.067727 0.127827
H27   H     H_    0.477109 0.046549 0.203141 0.110701
H28   H     H_    0.372994 0.029540 0.316490 0.114148
H29   H     H_    0.517725 0.273737 0.432267 0.096614
O11   O     O_R   0.775200 0.060470 0.937800 -0.605178
O12   O     O_R   0.441110 0.093720 0.087350 -0.591653
O13   O     O_R   0.266330 0.939630 0.062280 -0.606805
C65   C     C_R   0.610113 0.115966 0.115386 0.938943
O14   O     O_R   0.445750 0.069950 0.939820 -0.599401
O15   O     O_R   0.271000 0.915700 0.913700 -0.588002
C66   C     C_R   0.614683 0.084715 0.918008 0.948129
O16   O     O_R   0.770530 0.084400 0.086380 -0.596765
O17   O     O_3   0.602830 0.949510 0.991680 -0.259726
V3    V     V_3+5 0.329710 0.009370 0.001550 1.166739
O18   O     O_R   0.940990 0.906170 0.912570 -0.573912
C67   C     C_R   0.108850 0.880658 0.886643 0.982276
O19   O     O_R   0.936350 0.929940 0.060100 -0.581102
C68   C     C_R   0.104398 0.917652 0.084035 0.981820
V4    V     V_3+5 0.829160 0.990450 0.998310 1.178932
O20   O     O_3   0.105910 0.050480 0.008320 -0.279549
N1    N     N_R   0.940315 0.439911 0.695451 0.226587
O21   O     O_R   0.117710 0.419911 0.677467 -0.453895
O22   O     O_R   0.892705 0.515491 0.715587 -0.427295
N2    N     N_R   0.895875 0.490598 0.180650 0.232118
O23   O     O_R   0.968881 0.499229 0.121962 -0.395310
O24   O     O_R   0.878094 0.553945 0.237328 -0.450914
I1    I     I_    0.963986 0.741733 0.959991 -0.381433

loop_
_geom_bond_atom_site_label_1
_geom_bond_atom_site_label_2
_geom_bond_distance
_ccdc_geom_bond_type
C41   H18   1.084030 S    
C52   C53   1.397212 A    
C58   C59   1.425057 A    
V3    O20   1.706249 S    
C54   H26   1.081796 S    
C46   C47   1.397082 A    
C6    C7    1.387536 A    
C1    O6    1.300065 A    
C62   C63   1.389975 A    
C34   H13   1.084383 S    
O11   C66   1.298630 A    
C26   C27   1.404283 A    
V4    O20   2.155920 S    
C12   C15   1.416214 A    
C16   H6    1.082826 S    
C26   H11   1.083742 S    
C11   C67   1.495457 S    
C16   C17   1.390219 A    
C30   H14   1.083783 S    
C35   C40   1.404586 A    
O13   V3    1.997422 S    
C15   C16   1.393662 A    
C51   C56   1.416079 A    
O5    C3    1.298643 A    
C17   C18   1.393456 A    
C57   C65   1.486484 S    
V2    O10   2.155865 S    
O18   C67   1.295089 A    
C5    C6    1.390228 A    
C22   C23   1.411986 A    
C36   C66   1.480236 S    
O19   C68   1.301999 A    
H23   C63   1.082676 S    
C45   C50   1.415744 A    
O8    V2    1.990402 S    
C39   C44   1.415559 A    
C15   H5    1.081668 S    
C41   C42   1.398618 A    
C43   C44   1.412518 A    
C50   N1    1.434130 S    
C10   C14   1.415679 A    
C4    C14   1.487249 S    
C51   H24   1.081472 S    
O7    V1    2.154776 S    
C65   O16   1.294927 A    
C7    H4    1.082776 S    
C38   C41   1.403292 A    
C39   C40   1.412223 A    
C13   C18   1.414642 A    
C8    C9    1.419508 A    
H1    C17   1.082666 S    
O12   C65   1.296369 A    
O13   C68   1.296371 A    
C42   C43   1.404104 A    
C53   H25   1.082791 S    
O19   V4    1.990346 S    
C29   C34   1.404169 A    
C64   H29   1.081873 S    
C32   C33   1.408612 A    
C11   C12   1.421673 A    
C6    H3    1.082914 S    
C54   C55   1.413210 A    
C20   C21   1.409050 A    
C32   H12   1.084430 S    
C51   C52   1.404928 A    
C12   C13   1.426178 A    
C27   C32   1.407108 A    
C18   H7    1.082185 S    
O2    C1    1.296933 A    
C48   C49   1.404017 A    
C35   C36   1.405204 A    
O16   V4    2.008555 S    
C25   H10   1.083620 S    
C55   C57   1.416837 A    
C28   C29   1.411563 A    
C19   H8    1.084570 S    
C21   H9    1.084280 S    
C61   C62   1.393235 A    
C7    C8    1.397035 A    
C13   C14   1.416879 A    
C24   C31   1.403376 A    
C40   C47   1.400009 A    
C49   C50   1.419299 A    
C8    I1    2.113376 S    
O12   V3    1.995129 S    
O3    C4    1.299101 A    
O1    V2    2.002640 S    
C21   C22   1.407460 A    
C63   C64   1.393692 A    
O6    V2    1.991484 S    
O9    V2    2.006543 S    
N2    O23   1.301641 A    
C37   H17   1.084819 S    
C9    C11   1.424854 A    
C5    H2    1.079793 S    
C23   C24   1.411527 A    
N1    O22   1.301090 A    
O2    V1    2.001989 S    
C52   N2    1.438812 S    
C33   C34   1.408091 A    
O4    C2    1.297543 A    
C27   C28   1.411807 A    
C29   C30   1.403214 A    
O11   V4    1.991878 S    
O1    C2    1.295484 A    
C35   H16   1.084640 S    
C25   C26   1.401320 A    
C47   H22   1.084002 S    
C45   C46   1.410934 A    
O5    V1    1.997618 S    
O8    C3    1.298529 A    
C48   H20   1.084405 S    
O17   V3    2.154750 S    
C58   C61   1.415921 A    
C2    C60   1.489597 S    
O15   C67   1.303449 A    
C37   C38   1.403572 A    
C3    C20   1.485040 S    
O7    V2    1.707343 S    
C19   C24   1.404794 A    
O3    V1    1.996659 S    
V1    O10   1.706236 S    
C55   C56   1.423350 A    
C19   C20   1.408100 A    
C59   C64   1.415797 A    
C5    C10   1.415745 A    
C57   C58   1.418128 A    
C22   C25   1.404254 A    
C23   C28   1.415035 A    
C38   C39   1.411671 A    
C59   C60   1.419234 A    
O14   C66   1.296524 A    
C1    C49   1.486504 S    
C62   H28   1.082856 S    
C42   H19   1.083862 S    
C56   C60   1.421434 A    
C36   C37   1.408236 A    
C33   C68   1.486150 S    
O18   V4    2.006374 S    
O4    V1    1.995280 S    
C44   C45   1.414412 A    
C53   C54   1.390270 A    
C30   C31   1.399152 A    
C61   H27   1.082009 S    
C43   C48   1.402469 A    
N2    O24   1.299481 A    
C31   H15   1.082324 S    
C9    C10   1.423092 A    
O15   V3    1.996661 S    
N1    O21   1.300089 A    
O9    C4    1.293278 A    
O14   V3    2.001918 S    
C46   H21   1.081562 S    
O17   V4    1.705496 S    
