data_mof_unit_8274.cif
_audit_creation_date              2012-10-26T21:06:33-0400
_audit_creation_method            fapswitch 2.2
_symmetry_space_group_name_H-M    P1
_symmetry_Int_Tables_number       1
_space_group_crystal_system       triclinic
_cell_length_a                    15.835715
_cell_length_b                    10.817853
_cell_length_c                    9.610105
_cell_angle_alpha                 89.435756
_cell_angle_beta                  87.846075
_cell_angle_gamma                 91.599311
_cell_volume                      1644.39019335

loop_
_atom_site_label
_atom_site_type_symbol
_atom_type_description
_atom_site_fract_x
_atom_site_fract_y
_atom_site_fract_z
_atom_type_partial_charge
C1    C     C_R   0.499416 0.262355 0.500449 0.542883
C2    C     C_R   0.563950 0.560647 0.065254 0.125038
C3    C     C_R   0.339962 0.499598 0.502225 0.547714
C4    C     C_R   0.660060 0.500262 0.497795 0.544469
C5    C     C_3   0.965931 0.421167 0.598393 -0.100701
C6    C     C_3   0.034221 0.577814 0.402074 -0.100431
C7    C     C_3   0.027019 0.383997 0.476580 -0.101387
C8    C     C_3   0.973147 0.614986 0.523891 -0.101073
C9    C     C_1   0.250172 0.499213 0.506870 -0.044584
C10   C     C_1   0.749895 0.500320 0.493219 -0.049640
C11   C     C_3   0.023023 0.535843 0.625311 0.048676
C12   C     C_R   0.499570 0.737638 0.499724 0.539351
C13   C     C_3   0.977168 0.463124 0.375127 0.048732
C14   C     C_3   0.082924 0.499107 0.504891 0.039263
C15   C     C_3   0.917208 0.499869 0.495524 0.039774
C16   C     C_1   0.174555 0.499012 0.507639 -0.076239
C17   C     C_1   0.825536 0.500209 0.492609 -0.075469
C18   C     C_R   0.480903 0.064414 0.378710 -0.139791
C19   C     C_R   0.515812 0.935578 0.622398 -0.140355
C20   C     C_3   0.949068 0.422002 0.232040 -0.276459
C21   C     C_3   0.024512 0.389218 0.137398 -0.449387
C22   C     C_3   0.051609 0.576778 0.768192 -0.276983
C23   C     C_R   0.480708 0.936502 0.378400 -0.147784
C24   C     C_3   0.976535 0.610180 0.863240 -0.449109
C25   C     C_3   0.369100 0.355125 0.873813 -0.245473
C26   C     C_3   0.283026 0.415397 0.889801 -0.443431
C27   C     C_3   0.646531 0.615932 0.117591 -0.228713
C28   C     C_3   0.638490 0.741044 0.188593 -0.382922
C29   C     C_R   0.515390 0.063476 0.623020 -0.145605
C30   C     C_R   0.498874 0.871627 0.499864 0.015955
C31   C     C_R   0.498491 0.128359 0.500927 0.018960
C32   C     C_R   0.438370 0.438389 0.080966 0.020885
C33   C     C_R   0.560116 0.564180 0.918091 0.012605
C34   C     C_R   0.438389 0.435338 0.933311 0.126161
Cu1   Cu    Cu3+1 0.500000 0.500020 0.640660 0.916591
Cu2   Cu    Cu3+1 0.500000 0.499980 0.359340 0.923273
H1    H     H_    0.050228 0.289656 0.456783 0.098331
H2    H     H_    0.607578 0.614805 0.854747 0.118772
H3    H     H_    0.068282 0.470600 0.121765 0.149737
H4    H     H_    0.059213 0.311952 0.183457 0.148586
H5    H     H_    0.002004 0.359920 0.034457 0.134790
H6    H     H_    0.905659 0.339930 0.245016 0.143483
H7    H     H_    0.914301 0.497874 0.183204 0.137411
H8    H     H_    0.942025 0.687715 0.817345 0.148147
H9    H     H_    0.932533 0.529104 0.879146 0.149605
H10   H     H_    0.999404 0.639333 0.966003 0.134835
H11   H     H_    0.086209 0.500640 0.816848 0.137958
H12   H     H_    0.949966 0.709337 0.543717 0.098044
H13   H     H_    0.095309 0.658498 0.754941 0.143663
H14   H     H_    0.285600 0.510216 0.844324 0.178298
H15   H     H_    0.234892 0.359204 0.835480 0.130605
H16   H     H_    0.262885 0.420837 0.001473 0.128409
H17   H     H_    0.381427 0.330401 0.765032 0.210159
H18   H     H_    0.365573 0.264795 0.930328 0.090470
H19   H     H_    0.578435 0.785014 0.163216 0.153482
H20   H     H_    0.644147 0.730904 0.302565 0.174698
H21   H     H_    0.691145 0.804820 0.152115 0.103664
H22   H     H_    0.682518 0.548518 0.175922 0.167154
H23   H     H_    0.936877 0.357670 0.679268 0.099114
H24   H     H_    0.692014 0.633438 0.027946 0.074992
H25   H     H_    0.063297 0.641323 0.321228 0.099192
H26   H     H_    0.466674 0.112995 0.283677 0.125266
H27   H     H_    0.529985 0.887041 0.717485 0.126927
H28   H     H_    0.465597 0.888689 0.283699 0.122900
H29   H     H_    0.529173 0.111341 0.718380 0.127876
H30   H     H_    0.389990 0.387653 0.142294 0.118939
N1    N     N_R   0.500020 0.500030 0.852070 -0.233319
N2    N     N_R   0.499980 0.499970 0.147930 -0.225897
O1    O     O_R   0.500000 0.319660 0.618740 -0.523011
O2    O     O_R   0.500000 0.680340 0.381260 -0.505214
O3    O     O_R   0.499990 0.319630 0.381170 -0.504412
O4    O     O_R   0.500010 0.680370 0.618830 -0.504133
O5    O     O_R   0.379080 0.500000 0.618760 -0.508245
O6    O     O_R   0.620920 0.500000 0.381240 -0.507543
O7    O     O_R   0.379080 0.499970 0.381190 -0.499851
O8    O     O_R   0.620920 0.500030 0.618810 -0.498677

loop_
_geom_bond_atom_site_label_1
_geom_bond_atom_site_label_2
_ccdc_geom_bond_type
Cu1   Cu2   S    
C28   H20   S    
C28   H21   S    
C1    O3    A    
C24   H9    S    
C6    H25   S    
C9    C16   T    
C25   H17   S    
C5    C11   S    
C2    N2    A    
C27   H24   S    
C26   H14   S    
C11   C14   S    
C10   C17   T    
C1    C31   S    
C7    C14   S    
C19   H27   S    
C2    C27   S    
C3    O7    A    
C29   H29   S    
C4    O6    A    
Cu2   O3    S    
C25   C34   S    
C32   N2    A    
C22   H11   S    
C12   O4    A    
C28   H19   S    
Cu2   O2    S    
Cu1   O8    S    
C5    C15   S    
C5    H23   S    
C18   C23   A    
C23   C30   A    
C25   H18   S    
C5    C7    S    
C18   H26   S    
C6    C8    S    
C25   C26   S    
C1    O1    A    
C32   C34   A    
C8    H12   S    
C3    C9    S    
Cu2   O7    S    
C26   H16   S    
C6    C14   S    
C21   H3    S    
Cu1   N1    S    
C7    H1    S    
Cu2   O6    S    
C22   H13   S    
C21   H5    S    
C2    C33   A    
C23   H28   S    
Cu1   O4    S    
C8    C15   S    
C13   C15   S    
C24   H8    S    
C22   C24   S    
C4    C10   S    
C19   C29   A    
C20   H7    S    
C33   N1    A    
C32   H30   S    
C15   C17   S    
C12   O2    A    
Cu1   O5    S    
C13   C20   S    
C12   C30   S    
C27   H22   S    
C34   N1    A    
C20   H6    S    
Cu2   N2    S    
C11   C22   S    
C33   H2    S    
C24   H10   S    
C29   C31   A    
C26   H15   S    
C6    C13   S    
C21   H4    S    
C8    C11   S    
C14   C16   S    
C3    O5    A    
C4    O8    A    
C7    C13   S    
C20   C21   S    
Cu1   O1    S    
C27   C28   S    
C18   C31   A    
C19   C30   A    
