data_mof_unit_23824.cif
_audit_creation_date              2012-12-10T19:45:43-0500
_audit_creation_method            fapswitch 2.2
_symmetry_space_group_name_H-M    P1
_symmetry_Int_Tables_number       1
_space_group_crystal_system       triclinic
_cell_length_a                    10.83945
_cell_length_b                    14.679308
_cell_length_c                    14.515369
_cell_angle_alpha                 65.169081
_cell_angle_beta                  103.643916
_cell_angle_gamma                 102.63836
_cell_volume                      2018.08851361

loop_
_atom_site_label
_atom_site_type_symbol
_atom_type_description
_atom_site_fract_x
_atom_site_fract_y
_atom_site_fract_z
_atom_type_partial_charge
C1    C     C_R   0.469646 0.120032 0.311747 0.911042
C2    C     C_R   0.524296 0.879695 0.689258 0.865877
C3    C     C_R   0.870486 0.998612 0.497634 -0.055255
C4    C     C_R   0.129784 0.998233 0.505838 -0.039261
C5    C     C_R   0.907501 0.946472 0.447857 0.040392
C6    C     C_R   0.092958 0.047715 0.558124 0.034499
C7    C     C_R   0.418445 0.189249 0.207236 -0.177975
C8    C     C_R   0.544139 0.810826 0.800527 -0.170140
C9    C     C_R   0.227245 0.246962 0.081837 -0.051066
C10   C     C_R   0.671253 0.770622 0.973355 -0.050951
C11   C     C_R   0.288714 0.169684 0.164448 0.179893
C12   C     C_R   0.646195 0.837452 0.869811 0.211831
C13   C     C_R   0.486634 0.287169 0.164205 -0.133327
C14   C     C_R   0.468470 0.714137 0.835823 -0.111065
C15   C     C_R   0.417898 0.369019 0.095585 0.019855
C16   C     C_R   0.491656 0.646548 0.941206 0.011683
C17   C     C_R   0.290087 0.347511 0.049630 0.003688
C18   C     C_R   0.597496 0.674032 0.008200 0.026458
C19   C     C_R   0.472764 0.472360 0.070763 0.126693
C20   C     C_R   0.418146 0.548804 0.981494 0.088089
C21   C     C_R   0.289707 0.526201 0.940492 -0.142855
C22   C     C_R   0.571755 0.502907 0.138025 -0.141440
C23   C     C_R   0.263037 0.998811 0.503302 0.830006
C24   C     C_R   0.737166 0.000262 0.497936 0.829285
C25   C     C_R   0.227011 0.427768 0.973621 -0.107948
C26   C     C_R   0.628965 0.602909 0.109023 -0.145572
C27   C     C_R   0.722991 0.287831 0.664101 -0.246142
C28   C     C_R   0.282772 0.714427 0.331564 -0.254870
C29   C     C_R   0.688405 0.206823 0.633276 0.098616
C30   C     C_R   0.316965 0.795556 0.362083 0.070611
C31   C     C_R   0.515884 0.283968 0.511479 0.054862
C32   C     C_R   0.480874 0.714228 0.491594 0.088961
C33   C     C_R   0.549212 0.371385 0.536056 -0.048249
C34   C     C_R   0.449350 0.627384 0.465886 -0.032184
C35   C     C_R   0.652653 0.370191 0.617333 0.067611
C36   C     C_R   0.349425 0.630132 0.381804 0.073906
C37   C     C_R   0.482566 0.458261 0.484202 0.001896
C38   C     C_R   0.515452 0.540109 0.518376 0.010852
C39   C     C_R   0.614394 0.532639 0.603113 -0.222768
C40   C     C_R   0.385472 0.466365 0.398288 -0.264338
C41   C     C_R   0.683445 0.450779 0.650541 0.255121
C42   C     C_R   0.319247 0.549643 0.348477 0.256421
C43   C     C_R   0.342518 0.095245 0.773656 -0.119451
C44   C     C_R   0.662385 0.877721 0.241749 -0.083433
C45   C     C_R   0.254775 0.041320 0.719632 0.001695
C46   C     C_R   0.745733 0.938323 0.290591 0.018466
C47   C     C_R   0.185188 0.097093 0.622327 0.048059
C48   C     C_R   0.816625 0.889830 0.389789 0.044908
C49   C     C_R   0.200183 0.203365 0.585615 -0.158392
C50   C     C_R   0.808290 0.783574 0.433089 -0.161312
C51   C     C_R   0.284085 0.254613 0.642492 -0.122778
C52   C     C_R   0.730364 0.725661 0.380588 -0.143344
C53   C     C_R   0.356768 0.200848 0.735368 -0.104642
C54   C     C_R   0.655572 0.772420 0.286130 -0.131156
C55   C     C_R   0.963560 0.048413 0.551997 -0.159235
C56   C     C_R   0.036820 0.946717 0.453387 -0.131995
Cu1   Cu    Cu3+1 0.466270 0.918260 0.475690 0.991366
Cu2   Cu    Cu3+1 0.533730 0.081740 0.524310 0.995671
H1    H     H_    0.423395 0.241066 0.778467 0.166097
H2    H     H_    0.593499 0.727053 0.246395 0.145909
H3    H     H_    0.233741 0.584870 0.886030 0.175219
H4    H     H_    0.602329 0.450494 0.215286 0.143370
H5    H     H_    0.558422 0.720562 0.551225 0.133974
H6    H     H_    0.434540 0.275762 0.455199 0.127857
H7    H     H_    0.264972 0.859205 0.323454 0.184815
H8    H     H_    0.744701 0.145265 0.667483 0.176541
H9    H     H_    0.804858 0.285039 0.724088 0.205808
H10   H     H_    0.204594 0.719054 0.268441 0.201833
H11   H     H_    0.642025 0.590085 0.634530 0.179935
H12   H     H_    0.359375 0.409451 0.366135 0.167460
H13   H     H_    0.398447 0.055735 0.847214 0.193763
H14   H     H_    0.605564 0.911789 0.166913 0.196284
H15   H     H_    0.146367 0.246694 0.512517 0.157320
H16   H     H_    0.864052 0.745521 0.507365 0.162299
H17   H     H_    0.293753 0.336361 0.613934 0.162332
H18   H     H_    0.727326 0.644193 0.413566 0.155309
H19   H     H_    0.935695 0.085993 0.592768 0.169606
H20   H     H_    0.064569 0.907202 0.414544 0.178640
H21   H     H_    0.128879 0.415697 0.937652 0.196772
H22   H     H_    0.702400 0.622053 0.165320 0.164454
N1    N     N_R   0.584450 0.204570 0.560790 -0.185756
N2    N     N_R   0.415550 0.795430 0.439210 -0.192626
O1    O     O_R   0.455540 0.022090 0.338120 -0.559197
O2    O     O_R   0.544460 0.977910 0.661880 -0.553383
O3    O     O_R   0.512510 0.160150 0.379180 -0.557694
O4    O     O_R   0.487490 0.839850 0.620820 -0.575630
O5    O     O_R   0.291160 0.930970 0.479480 -0.568791
O6    O     O_R   0.708840 0.069030 0.520520 -0.569162
O7    O     O_R   0.348130 0.069020 0.520540 -0.602434
O8    O     O_R   0.651870 0.930980 0.479460 -0.600269
C57   C     C_2   0.093108 0.222670 0.035691 0.915188
O9    O     O_2   0.068995 0.165813 0.989904 -0.523296
O10   O     O_R   0.994596 0.263192 0.046554 -0.703731
H23   H     H_    0.907500 0.240649 0.012310 0.362695
C58   C     C_2   0.781165 0.800640 0.042890 0.891882
O11   O     O_2   0.782397 0.875531 0.060150 -0.545464
O12   O     O_R   0.884135 0.744551 0.086566 -0.715878
H24   H     H_    0.953080 0.772662 0.132175 0.349439
Br1   Br    Br    0.818591 0.453546 0.762913 -0.494574
Br2   Br    Br    0.190170 0.549386 0.231817 -0.481902
C59   C     C_2   0.235300 0.928409 0.769396 0.855890
O13   O     O_2   0.145982 0.878507 0.734891 -0.551859
O14   O     O_R   0.317547 0.878730 0.858927 -0.762134
H25   H     H_    0.292511 0.802509 0.887516 0.351328
C60   C     C_2   0.760906 0.050181 0.232996 0.863265
O15   O     O_2   0.851642 0.104606 0.259803 -0.563077
O16   O     O_R   0.673377 0.093231 0.144417 -0.759880
H26   H     H_    0.697729 0.168826 0.107950 0.359775
C61   C     C_2   0.377437 0.679547 0.759059 0.849118
O17   O     O_2   0.396168 0.607672 0.744682 -0.580339
O18   O     O_R   0.271338 0.729878 0.702948 -0.733504
H27   H     H_    0.217289 0.700071 0.652397 0.342677
C62   C     C_2   0.629859 0.300704 0.178377 0.830126
O19   O     O_2   0.684093 0.355031 0.104815 -0.531378
O20   O     O_R   0.702946 0.252350 0.273802 -0.746825
H28   H     H_    0.798483 0.270605 0.272605 0.369685
Br3   Br    Br    0.771304 0.955542 0.820796 -0.466149
Br4   Br    Br    0.185456 0.042082 0.225234 -0.508902

loop_
_geom_bond_atom_site_label_1
_geom_bond_atom_site_label_2
_ccdc_geom_bond_type
C14   C61   S    
O10   H23   S    
C27   C29   A    
C5    C56   A    
C36   C42   A    
C58   O11   D    
C18   C26   A    
C6    C55   A    
C49   H15   S    
C9    C57   S    
O12   H24   S    
C53   H1    S    
C39   C41   A    
C54   H2    S    
C15   C19   A    
C60   O16   S    
C59   O13   D    
C40   H12   S    
C28   H10   S    
C51   H17   S    
C37   C40   A    
Cu2   O2    S    
C50   H16   S    
C38   C39   A    
C55   H19   S    
C57   O10   S    
O20   H28   S    
C46   C60   S    
C56   H20   S    
Cu1   O4    S    
C1    C7    S    
C3    C55   A    
C43   C53   A    
O18   H27   S    
C52   C54   A    
C49   C51   A    
C50   C52   A    
O16   H26   S    
C23   O7    A    
Cu1   O5    S    
C44   H14   S    
C21   H3    S    
C8    C12   A    
C48   C50   A    
C59   O14   S    
C23   O5    A    
C4    C56   A    
C3    C24   S    
C44   C46   A    
C45   C47   A    
C1    O3    A    
C5    C48   S    
C46   C48   A    
C6    C47   S    
C19   C22   A    
C43   H13   S    
C47   C49   A    
Cu1   O1    S    
Cu1   O8    S    
Cu2   N1    S    
C57   O9    D    
C4    C23   S    
C45   C59   S    
C27   C35   A    
C33   C37   A    
C12   Br3   S    
Cu2   O6    S    
C51   C53   A    
C32   C34   A    
C30   N2    A    
C7    C11   A    
C29   N1    A    
C37   C38   A    
C42   Br2   S    
C22   H4    S    
C9    C11   A    
C16   C20   A    
C41   Br1   S    
C2    O2    A    
C39   H11   S    
C24   O6    A    
C10   C12   A    
C4    C6    A    
C13   C15   A    
C14   C16   A    
Cu2   O3    S    
C3    C5    A    
C62   O19   D    
C9    C17   A    
C15   C17   A    
C21   C25   A    
C31   C33   A    
C8    C14   A    
C34   C38   A    
C31   H6    S    
C2    C8    S    
C32   H5    S    
C40   C42   A    
C52   H18   S    
C24   O8    A    
C58   O12   S    
C1    O1    A    
C32   N2    A    
C60   O15   D    
C31   N1    A    
C17   C25   A    
C19   C20   A    
C61   O18   S    
C43   C45   A    
C61   O17   D    
Cu1   Cu2   S    
C10   C58   S    
C10   C18   A    
C28   C30   A    
C33   C35   A    
C2    O4    A    
C34   C36   A    
C35   C41   A    
Cu2   O7    S    
C26   H22   S    
C25   H21   S    
C30   H7    S    
C27   H9    S    
C29   H8    S    
C44   C54   A    
C7    C13   A    
C20   C21   A    
C28   C36   A    
C16   C18   A    
C22   C26   A    
O14   H25   S    
Cu1   N2    S    
C11   Br4   S    
C13   C62   S    
C62   O20   S    
