data_mof_unit_13888.cif
_audit_creation_date              2012-12-10T20:55:42-0500
_audit_creation_method            fapswitch 2.2
_symmetry_space_group_name_H-M    P1
_symmetry_Int_Tables_number       1
_space_group_crystal_system       triclinic
_cell_length_a                    15.870197
_cell_length_b                    15.062759
_cell_length_c                    10.7962
_cell_angle_alpha                 90.160327
_cell_angle_beta                  89.996668
_cell_angle_gamma                 89.947001
_cell_volume                      2580.80909014

loop_
_atom_site_label
_atom_site_type_symbol
_atom_type_description
_atom_site_fract_x
_atom_site_fract_y
_atom_site_fract_z
_atom_type_partial_charge
C1    C     C_1   0.251038 0.500170 0.503110 -0.150064
C2    C     C_1   0.749015 0.499845 0.498965 -0.150272
C3    C     C_R   0.498178 0.499879 0.873512 -0.098110
C4    C     C_R   0.496723 0.499292 0.126724 -0.098443
C5    C     C_R   0.500014 0.905077 0.500146 0.003619
C6    C     C_R   0.499856 0.095053 0.500510 0.027848
C7    C     C_R   0.427903 0.952651 0.459553 -0.084728
C8    C     C_R   0.572005 0.047477 0.541468 -0.088231
C9    C     C_R   0.572110 0.952713 0.540781 -0.116918
C10   C     C_R   0.427785 0.047407 0.459324 -0.078827
C11   C     C_R   0.955746 0.580772 0.481827 -0.044883
C12   C     C_R   0.044375 0.419646 0.524272 -0.047463
C13   C     C_R   0.044342 0.581004 0.484090 -0.039163
C14   C     C_R   0.955780 0.419330 0.521315 -0.040647
C15   C     C_R   0.339041 0.500039 0.500460 0.932073
C16   C     C_R   0.660973 0.499959 0.499856 0.932423
C17   C     C_R   0.498894 0.499832 0.259349 0.909461
C18   C     C_R   0.499673 0.500055 0.740737 0.910231
C19   C     C_R   0.913000 0.499589 0.497686 -0.037817
C20   C     C_R   0.087116 0.500745 0.507668 -0.036080
C21   C     C_1   0.500005 0.806976 0.500062 0.286385
C22   C     C_1   0.499921 0.193058 0.500285 0.331113
C23   C     C_1   0.823654 0.499710 0.498144 -0.113770
C24   C     C_1   0.176430 0.500417 0.505562 -0.114163
C25   C     C_R   0.440087 0.656821 0.106423 -0.091140
C26   C     C_R   0.449266 0.339592 0.890822 -0.084809
C27   C     C_R   0.545174 0.660552 0.896519 -0.126108
C28   C     C_R   0.549843 0.340503 0.106016 -0.047475
C29   C     C_R   0.458801 0.739755 0.049822 -0.080950
C30   C     C_R   0.472939 0.257593 0.945797 -0.132823
C31   C     C_R   0.518651 0.741811 0.951540 -0.080453
C32   C     C_R   0.528015 0.258120 0.049630 -0.116653
C33   C     C_R   0.509641 0.580251 0.940861 0.021888
C34   C     C_R   0.511688 0.419148 0.060050 0.016715
C35   C     C_R   0.480492 0.579138 0.060859 0.032690
C36   C     C_R   0.484690 0.419124 0.938813 0.017765
N1    N     N_1   0.500000 0.270550 0.500000 -0.049811
N2    N     N_1   0.500000 0.729450 0.500000 -0.047545
O1    O     O_R   0.378020 0.573650 0.500040 -0.586976
O2    O     O_R   0.621980 0.426350 0.499960 -0.590525
O3    O     O_R   0.621980 0.573650 0.499960 -0.588670
O4    O     O_R   0.378020 0.426350 0.500040 -0.585210
O5    O     O_R   0.499990 0.573670 0.316780 -0.618010
O6    O     O_R   0.500010 0.426330 0.683220 -0.638852
O7    O     O_R   0.500010 0.573670 0.683220 -0.635683
O8    O     O_R   0.499990 0.426330 0.316780 -0.624072
Zn1   Zn    Zn3+2 0.500000 0.598370 0.500000 1.073420
Zn2   Zn    Zn3+2 0.500000 0.401630 0.500000 1.076468
C37   C     C_2   0.093680 0.662852 0.455872 0.527418
H1    H     H_    0.153319 0.675027 0.502055 0.094458
O9    O     O_2   0.070304 0.715087 0.376680 -0.499732
C38   C     C_2   0.906421 0.337328 0.548437 0.535761
H2    H     H_    0.847245 0.325025 0.501036 0.095594
O10   O     O_2   0.929241 0.285084 0.627964 -0.501017
C39   C     C_2   0.906400 0.664694 0.469239 0.549498
H3    H     H_    0.846904 0.664793 0.419689 0.085860
O11   O     O_2   0.929628 0.733320 0.519028 -0.489204
C40   C     C_2   0.093798 0.335876 0.538139 0.554420
H4    H     H_    0.152980 0.336140 0.588526 0.081168
O12   O     O_2   0.071051 0.267015 0.488509 -0.488279
C41   C     C_2   0.562421 0.172598 0.095303 0.593224
H5    H     H_    0.589952 0.125757 0.030289 0.073762
O13   O     O_2   0.554894 0.151277 0.203720 -0.500421
C42   C     C_2   0.548913 0.827285 0.900779 0.568420
H6    H     H_    0.537204 0.843633 0.804478 0.030610
O14   O     O_2   0.589870 0.878227 0.964990 -0.493180
C43   C     C_2   0.442146 0.171894 0.894023 0.425973
H7    H     H_    0.440661 0.161060 0.794746 0.103933
O15   O     O_2   0.418166 0.112472 0.962149 -0.507412
C44   C     C_2   0.412083 0.821326 0.088227 0.456371
H8    H     H_    0.345957 0.817108 0.112769 0.087568
O16   O     O_2   0.446475 0.893574 0.094962 -0.489741
C45   C     C_2   0.350778 0.096276 0.418442 0.449702
H9    H     H_    0.311869 0.070605 0.344185 0.082962
O17   O     O_2   0.328804 0.165108 0.469034 -0.518106
C46   C     C_2   0.649172 0.903441 0.579547 0.462197
H10   H     H_    0.685401 0.924962 0.659150 0.076055
O18   O     O_2   0.673832 0.838822 0.521352 -0.496200
C47   C     C_2   0.648870 0.096495 0.582517 0.399126
H11   H     H_    0.687233 0.071601 0.657752 0.063845
O19   O     O_2   0.671267 0.164594 0.531050 -0.502157
C48   C     C_2   0.351103 0.903255 0.420126 0.452911
H12   H     H_    0.315764 0.923841 0.339298 0.077657
O20   O     O_2   0.325684 0.839657 0.479182 -0.523561
C49   C     C_2   0.369506 0.647850 0.196585 0.905448
O21   O     O_2   0.358937 0.703183 0.278179 -0.605536
O22   O     O_R   0.316204 0.574159 0.189134 -0.788179
H13   H     H_    0.269975 0.575594 0.253875 0.346560
C50   C     C_2   0.374593 0.346153 0.806690 0.958192
O23   O     O_2   0.358487 0.287703 0.731664 -0.616398
O24   O     O_R   0.322793 0.421223 0.813384 -0.795108
H14   H     H_    0.273867 0.418469 0.753149 0.338070
C51   C     C_2   0.620715 0.656296 0.813784 0.969055
O25   O     O_2   0.637756 0.717177 0.743567 -0.626061
O26   O     O_R   0.672304 0.580945 0.816235 -0.790325
H15   H     H_    0.721450 0.585206 0.756558 0.349560
C52   C     C_2   0.625628 0.349197 0.187674 0.936554
O27   O     O_2   0.645244 0.290751 0.260414 -0.545343
O28   O     O_R   0.674539 0.426288 0.181156 -0.805234
H16   H     H_    0.724294 0.425111 0.240010 0.342501

loop_
_geom_bond_atom_site_label_1
_geom_bond_atom_site_label_2
_ccdc_geom_bond_type
C28   C52   S    
C7    C10   A    
C39   H3    S    
C51   O25   D    
C45   H9    S    
O26   H15   S    
O22   H13   S    
C52   O27   D    
C49   O21   D    
C27   C33   A    
C26   C50   S    
C11   C19   A    
C46   O18   D    
C32   C41   S    
C10   C45   S    
C3    C33   A    
C40   O12   D    
C6    C22   S    
C3    C18   S    
C41   O13   D    
C14   C38   S    
C21   N2    T    
C20   C24   S    
C8    C9    A    
C37   O9    D    
C8    C47   S    
C44   H8    S    
C1    C15   S    
C9    C46   S    
C50   O24   S    
C2    C16   S    
C30   C43   S    
C12   C40   S    
O7    Zn1   S    
C4    C35   A    
C28   C34   A    
C51   O26   S    
C45   O17   D    
C14   C19   A    
C52   O28   S    
C38   O10   D    
O8    Zn2   S    
C49   O22   S    
C25   C29   A    
C4    C34   A    
C27   C31   A    
C43   H7    S    
C28   C32   A    
C17   O8    A    
O24   H14   S    
C47   O19   D    
C6    C8    A    
C40   H4    S    
C22   N1    T    
C48   H12   S    
C43   O15   D    
C42   O14   D    
C19   C23   S    
C17   O5    A    
C5    C9    A    
C18   O6    A    
C5    C7    A    
O28   H16   S    
C12   C20   A    
C25   C49   S    
O3    Zn1   S    
O4    Zn2   S    
C46   H10   S    
N1    Zn2   S    
C15   O1    A    
N2    Zn1   S    
C25   C35   A    
C13   C37   S    
C4    C17   S    
C26   C36   A    
C16   O2    A    
C26   C30   A    
C48   O20   D    
C39   O11   D    
C27   C51   S    
C18   O7    A    
C11   C39   S    
C38   H2    S    
O1    Zn1   S    
C29   C44   S    
O2    Zn2   S    
C13   C20   A    
C31   C42   S    
C15   O4    A    
C12   C14   A    
C6    C10   A    
C42   H6    S    
C29   C31   A    
C30   C32   A    
C11   C13   A    
C3    C36   A    
C33   C35   A    
C34   C36   A    
C41   H5    S    
C47   H11   S    
C7    C48   S    
C5    C21   S    
C1    C24   T    
C37   H1    S    
C2    C23   T    
C44   O16   D    
C50   O23   D    
O5    Zn1   S    
C16   O3    A    
O6    Zn2   S    
