data_mof_unit_37425.cif
_audit_creation_date              2012-12-10T20:11:21-0500
_audit_creation_method            fapswitch 2.2
_symmetry_space_group_name_H-M    P1
_symmetry_Int_Tables_number       1
_space_group_crystal_system       triclinic
_cell_length_a                    15.927596
_cell_length_b                    15.93423
_cell_length_c                    51.397197
_cell_angle_alpha                 90.004487
_cell_angle_beta                  90.11081
_cell_angle_gamma                 89.901729
_cell_volume                      13044.2554669

loop_
_atom_site_label
_atom_site_type_symbol
_atom_type_description
_atom_site_fract_x
_atom_site_fract_y
_atom_site_fract_z
_atom_type_partial_charge
C1    C     C_R   0.939290 0.549197 0.637063 0.173822
C2    C     C_R   0.569901 0.977913 0.864447 0.164868
C3    C     C_1   0.276563 0.223380 0.249999 0.035968
C4    C     C_1   0.223389 0.723462 0.749990 0.023392
C5    C     C_1   0.776572 0.276587 0.249985 0.036768
C6    C     C_1   0.276635 0.223453 0.750021 0.023638
C7    C     C_1   0.723403 0.776595 0.250016 0.032139
C8    C     C_1   0.776609 0.723432 0.250005 0.026076
C9    C     C_1   0.223422 0.276609 0.750025 0.032408
C10   C     C_1   0.723390 0.223464 0.249993 0.031889
C11   C     C_1   0.276560 0.776595 0.749975 0.025884
C12   C     C_1   0.223437 0.276606 0.250014 0.030306
C13   C     C_R   0.946423 0.446679 0.136790 0.178935
C14   C     C_1   0.776571 0.723386 0.749993 0.038954
C15   C     C_1   0.276613 0.776524 0.249953 0.022376
C16   C     C_1   0.723493 0.223350 0.749983 0.024785
C17   C     C_R   0.525981 0.049677 0.945293 0.476399
C18   C     C_R   0.459008 0.914695 0.055328 0.469800
C19   C     C_R   0.922001 0.472986 0.945765 0.503975
C20   C     C_R   0.064883 0.551202 0.054505 0.457575
C21   C     C_R   0.448056 0.922258 0.945096 0.530270
C22   C     C_R   0.537412 0.039027 0.056155 0.457608
C23   C     C_R   0.057579 0.535275 0.944082 0.491858
C24   C     C_R   0.051518 0.448088 0.863504 0.172489
C25   C     C_R   0.929625 0.494194 0.056068 0.474599
C26   C     C_R   0.991507 0.579440 0.445026 0.480628
C27   C     C_R   0.993347 0.430028 0.554949 0.500764
C28   C     C_R   0.432973 0.987906 0.446358 0.501216
C29   C     C_R   0.586623 0.044899 0.554954 0.458428
C30   C     C_R   0.011744 0.431243 0.444887 0.501332
C31   C     C_R   0.010630 0.578552 0.555188 0.499511
C32   C     C_R   0.574999 0.034074 0.444349 0.497685
C33   C     C_R   0.443139 0.013206 0.556532 0.473929
C34   C     C_R   0.451024 0.917752 0.972651 0.036808
C35   C     C_R   0.473276 0.924182 0.138864 0.174882
C36   C     C_R   0.537491 0.043960 0.028451 0.015300
C37   C     C_R   0.059589 0.543875 0.971480 0.033660
C38   C     C_R   0.924703 0.488980 0.028566 0.039580
C39   C     C_R   0.532257 0.048436 0.972853 0.016854
C40   C     C_R   0.453492 0.916422 0.027887 0.031078
C41   C     C_R   0.922565 0.475019 0.973393 0.036645
C42   C     C_R   0.064800 0.550734 0.026811 0.021081
C43   C     C_R   0.009178 0.428476 0.472373 0.038082
C44   C     C_R   0.008275 0.581388 0.527691 0.031863
C45   C     C_R   0.579875 0.039164 0.471849 0.032701
C46   C     C_R   0.434771 0.050459 0.862972 0.181095
C47   C     C_R   0.437396 0.009068 0.529028 0.041430
C48   C     C_R   0.998422 0.582496 0.472482 0.037865
C49   C     C_R   0.997327 0.427775 0.527450 0.038097
C50   C     C_R   0.433388 0.992500 0.473938 0.037312
C51   C     C_R   0.586429 0.044335 0.527271 0.021518
C52   C     C_3   0.429206 0.712742 0.968403 -0.246132
C53   C     C_3   0.714211 0.159825 0.030285 -0.240016
C54   C     C_3   0.160708 0.713839 0.962376 -0.233469
C55   C     C_3   0.716235 0.491330 0.032510 -0.229519
C56   C     C_3   0.573595 0.255891 0.971679 -0.224956
C57   C     C_R   0.073727 0.532681 0.137789 0.168145
C58   C     C_3   0.275251 0.825594 0.033727 -0.209619
C59   C     C_3   0.808485 0.309024 0.972303 -0.235204
C60   C     C_3   0.270061 0.558082 0.029382 -0.234384
C61   C     C_3   0.110009 0.248845 0.470498 -0.240561
C62   C     C_3   0.112971 0.759991 0.528110 -0.240956
C63   C     C_3   0.729412 0.181468 0.466151 -0.233897
C64   C     C_3   0.234799 0.054791 0.532349 -0.239086
C65   C     C_3   0.917099 0.776771 0.470881 -0.251339
C66   C     C_3   0.901909 0.244957 0.528925 -0.242748
C67   C     C_3   0.286853 0.850262 0.474960 -0.224599
C68   C     C_R   0.934725 0.549294 0.862062 0.171405
C69   C     C_3   0.789189 0.014522 0.531026 -0.238858
C70   C     C_R   0.492124 0.982794 0.986588 -0.102429
C71   C     C_R   0.493408 0.981825 0.014271 -0.097553
C72   C     C_R   0.992370 0.511220 0.986261 -0.096756
C73   C     C_R   0.939083 0.456482 0.363308 0.176097
C74   C     C_R   0.994613 0.515552 0.013858 -0.095297
C75   C     C_R   0.003573 0.505291 0.486207 -0.090092
C76   C     C_R   0.003015 0.504827 0.513779 -0.098082
C77   C     C_R   0.508165 0.017861 0.486701 -0.096373
C78   C     C_R   0.511074 0.022234 0.514307 -0.093455
C79   C     C_R   0.412480 0.851383 0.986577 0.140001
C80   C     C_R   0.580275 0.107937 0.014467 0.163440
C81   C     C_R   0.126687 0.584646 0.984304 0.169623
C82   C     C_R   0.853271 0.455623 0.015612 0.142296
C83   C     C_R   0.576625 0.110635 0.987124 0.169484
C84   C     C_R   0.449770 0.949169 0.635996 0.177557
C85   C     C_R   0.410126 0.853226 0.014001 0.138820
C86   C     C_R   0.854855 0.443467 0.988331 0.139276
C87   C     C_R   0.131578 0.584673 0.011654 0.139336
C88   C     C_R   0.010534 0.351444 0.486241 0.136370
C89   C     C_R   0.010770 0.658265 0.513870 0.164927
C90   C     C_R   0.654186 0.064844 0.484788 0.162517
C91   C     C_R   0.361116 0.989177 0.516099 0.143895
C92   C     C_R   0.000367 0.659325 0.486648 0.144445
C93   C     C_R   0.997773 0.351040 0.513428 0.137971
C94   C     C_R   0.360851 0.974471 0.488945 0.136900
C95   C     C_R   0.553663 0.946755 0.363457 0.174208
C96   C     C_R   0.658543 0.064789 0.512165 0.140761
C97   C     C_R   0.932727 0.538856 0.609806 0.250171
C98   C     C_R   0.932153 0.469884 0.390408 0.257940
C99   C     C_R   0.464087 0.939536 0.608856 0.257630
C100  C     C_R   0.544516 0.941155 0.390856 0.249221
C101  C     C_R   0.069094 0.467416 0.609863 0.251870
C102  C     C_R   0.068988 0.540061 0.390046 0.183404
C103  C     C_R   0.594775 0.011861 0.612513 0.237703
C104  C     C_R   0.454186 0.065930 0.389995 0.248790
C105  C     C_R   0.475404 0.073153 0.109770 0.266068
C106  C     C_R   0.061319 0.454463 0.636956 0.177711
C107  C     C_R   0.556283 0.955986 0.890737 0.245103
C108  C     C_R   0.958848 0.434534 0.109747 0.264691
C109  C     C_R   0.039080 0.439467 0.890671 0.247708
C110  C     C_R   0.443151 0.927085 0.113238 0.222981
C111  C     C_R   0.424632 0.036699 0.890259 0.232127
C112  C     C_R   0.085606 0.513995 0.111182 0.230768
C113  C     C_R   0.939408 0.557223 0.889507 0.247807
C114  C     C_R   0.001172 0.503649 0.596131 0.118855
C115  C     C_R   0.000680 0.505575 0.403909 0.125791
C116  C     C_R   0.525362 0.990894 0.596680 0.097423
C117  C     C_R   0.061956 0.549865 0.362756 0.172417
C118  C     C_R   0.500006 0.004934 0.404179 0.119654
C119  C     C_R   0.470387 0.993728 0.097242 0.090363
C120  C     C_R   0.485688 0.988782 0.903980 0.132019
C121  C     C_R   0.015090 0.488364 0.096400 0.096759
C122  C     C_R   0.987958 0.498545 0.903797 0.119531
C123  C     C_R   0.999454 0.499943 0.820181 0.620940
C124  C     C_R   0.000155 0.499907 0.179783 0.618961
C125  C     C_R   0.500605 0.002918 0.820400 0.574444
C126  C     C_R   0.499741 0.001100 0.179892 0.626138
C127  C     C_R   0.499872 0.000048 0.320246 0.615201
C128  C     C_R   0.579107 0.031753 0.638760 0.174546
C129  C     C_R   0.500342 0.999939 0.679786 0.621201
C130  C     C_R   0.000113 0.500375 0.320224 0.603743
C131  C     C_R   0.999942 0.500185 0.679790 0.604491
C132  C     C_R   0.839656 0.660299 0.749996 0.552083
C133  C     C_R   0.160348 0.339698 0.250005 0.529690
C134  C     C_R   0.339656 0.839688 0.749983 0.531981
C135  C     C_R   0.660300 0.160360 0.249994 0.538610
C136  C     C_R   0.160304 0.339695 0.750009 0.547894
C137  C     C_R   0.839707 0.660319 0.250000 0.529818
C138  C     C_R   0.660399 0.160286 0.749988 0.524424
C139  C     C_R   0.444239 0.055711 0.362751 0.174163
C140  C     C_R   0.339677 0.839629 0.249972 0.526721
C141  C     C_R   0.839676 0.339669 0.249993 0.548293
C142  C     C_R   0.160311 0.660347 0.749999 0.528041
C143  C     C_R   0.339649 0.160293 0.250000 0.546758
C144  C     C_R   0.660352 0.839701 0.750004 0.527967
C145  C     C_R   0.160393 0.660295 0.249993 0.531796
C146  C     C_R   0.839642 0.339662 0.749988 0.531686
C147  C     C_R   0.660303 0.839697 0.250009 0.545278
C148  C     C_R   0.339733 0.160344 0.750013 0.540244
C149  C     C_R   0.999985 0.501113 0.650916 -0.080475
C150  C     C_R   0.495201 0.075983 0.136838 0.176542
C151  C     C_R   0.000430 0.502200 0.349122 -0.073715
C152  C     C_R   0.506631 0.998382 0.650963 -0.068686
C153  C     C_R   0.499101 0.000524 0.349210 -0.079778
C154  C     C_R   0.497008 0.999689 0.151193 -0.062248
C155  C     C_R   0.501938 0.010603 0.849595 -0.074768
C156  C     C_R   0.003522 0.498011 0.150912 -0.070322
C157  C     C_R   0.995587 0.499532 0.849004 -0.078981
C158  C     C_1   0.776580 0.276552 0.749970 0.027527
C159  C     C_1   0.223511 0.723337 0.249976 0.026358
C160  C     C_1   0.723445 0.776612 0.750010 0.033021
H1    H     H_    0.316592 0.765974 0.980236 0.245126
H2    H     H_    0.206954 0.741544 0.948737 0.196635
H3    H     H_    0.155646 0.754275 0.979899 0.124785
H4    H     H_    0.098870 0.712062 0.952366 0.214443
H5    H     H_    0.759609 0.370273 0.025437 0.250273
H6    H     H_    0.667082 0.468013 0.045969 0.183425
H7    H     H_    0.687002 0.504202 0.013298 0.112138
H8    H     H_    0.741711 0.550931 0.040459 0.198300
H9    H     H_    0.663187 0.163069 0.960586 0.292924
H10   H     H_    0.610879 0.307545 0.980341 0.136770
H11   H     H_    0.511649 0.253767 0.981620 0.168524
H12   H     H_    0.396316 0.665815 0.956113 0.176247
H13   H     H_    0.563229 0.269545 0.950738 0.207062
H14   H     H_    0.360226 0.733752 0.021403 0.254096
H15   H     H_    0.253117 0.795740 0.051958 0.228211
H16   H     H_    0.231306 0.809990 0.017681 0.102020
H17   H     H_    0.274742 0.894720 0.036591 0.206120
H18   H     H_    0.729725 0.407592 0.982783 0.247933
H19   H     H_    0.760195 0.280483 0.959538 0.176065
H20   H     H_    0.809043 0.275935 0.991304 0.119584
H21   H     H_    0.870505 0.300865 0.962758 0.213971
H22   H     H_    0.197393 0.666831 0.036168 0.300972
H23   H     H_    0.447419 0.682577 0.987064 0.116473
H24   H     H_    0.325024 0.590572 0.038026 0.170675
H25   H     H_    0.290807 0.525037 0.011478 0.142771
H26   H     H_    0.246231 0.511208 0.043475 0.251407
H27   H     H_    0.984026 0.225629 0.478280 0.250597
H28   H     H_    0.114394 0.191723 0.458199 0.174972
H29   H     H_    0.137057 0.234660 0.489942 0.112411
H30   H     H_    0.147488 0.299318 0.461190 0.208150
H31   H     H_    0.986509 0.784078 0.522067 0.269958
H32   H     H_    0.119866 0.816811 0.540434 0.163881
H33   H     H_    0.135876 0.774629 0.508222 0.127969
H34   H     H_    0.486693 0.733249 0.958028 0.221515
H35   H     H_    0.151988 0.709046 0.536655 0.197522
H36   H     H_    0.782040 0.067119 0.476545 0.267658
H37   H     H_    0.784069 0.196463 0.453620 0.176830
H38   H     H_    0.736681 0.214874 0.484995 0.133671
H39   H     H_    0.671488 0.203875 0.456244 0.206185
H40   H     H_    0.250852 0.926682 0.526180 0.243962
H41   H     H_    0.180964 0.043433 0.545571 0.179415
H42   H     H_    0.210168 0.072938 0.512921 0.101099
H43   H     H_    0.272373 0.107595 0.540315 0.196352
H44   H     H_    0.039828 0.746484 0.458640 0.302789
H45   H     H_    0.595372 0.202902 0.042469 0.318539
H46   H     H_    0.923903 0.840864 0.462693 0.160109
H47   H     H_    0.884493 0.781743 0.489890 0.141468
H48   H     H_    0.877563 0.738863 0.457543 0.218880
H49   H     H_    0.028779 0.226116 0.521297 0.249850
H50   H     H_    0.899386 0.189108 0.541794 0.176819
H51   H     H_    0.876492 0.227685 0.509531 0.109573
H52   H     H_    0.861849 0.294837 0.537555 0.207256
H53   H     H_    0.231261 0.965438 0.483048 0.249069
H54   H     H_    0.230254 0.829728 0.464048 0.176757
H55   H     H_    0.285566 0.821641 0.494658 0.117001
H56   H     H_    0.726157 0.106298 0.043611 0.200217
H57   H     H_    0.343334 0.827447 0.464440 0.223670
H58   H     H_    0.738539 0.136314 0.535986 0.301327
H59   H     H_    0.850963 0.037227 0.538114 0.153474
H60   H     H_    0.799949 0.972953 0.514000 0.133724
H61   H     H_    0.758804 0.977734 0.546675 0.255295
H62   H     H_    0.792641 0.670719 0.570632 0.373038
H63   H     H_    0.793849 0.345404 0.431999 0.354839
H64   H     H_    0.319309 0.810358 0.569830 0.360058
H65   H     H_    0.697082 0.828461 0.431162 0.364415
H66   H     H_    0.209223 0.341750 0.569029 0.363271
H67   H     H_    0.743809 0.216982 0.038516 0.144471
H68   H     H_    0.117828 0.689204 0.412880 0.380702
H69   H     H_    0.646553 0.838014 0.589446 0.382694
H70   H     H_    0.302363 0.184240 0.428851 0.362372
H71   H     H_    0.473126 0.273303 0.074100 0.364632
H72   H     H_    0.721005 0.899609 0.937171 0.368639
H73   H     H_    0.824810 0.274459 0.078715 0.358565
H74   H     H_    0.198237 0.335797 0.930875 0.378813
H75   H     H_    0.280661 0.002346 0.090776 0.377801
H76   H     H_    0.274434 0.058541 0.944340 0.368654
H77   H     H_    0.151580 0.349199 0.085299 0.388267
H78   H     H_    0.743749 0.146293 0.011182 0.156448
H79   H     H_    0.768112 0.659068 0.924878 0.376628
H80   H     H_    0.811162 0.740752 0.642851 0.394110
H81   H     H_    0.810869 0.264993 0.359283 0.380069
H82   H     H_    0.236798 0.861003 0.638750 0.380359
H83   H     H_    0.757377 0.838947 0.357505 0.378368
H84   H     H_    0.188008 0.261710 0.641674 0.379141
H85   H     H_    0.193665 0.738550 0.355521 0.388946
H86   H     H_    0.722568 0.070538 0.692623 0.355428
H87   H     H_    0.238351 0.158375 0.355534 0.379041
H88   H     H_    0.552847 0.299180 0.143187 0.375595
H89   H     H_    0.247988 0.628362 0.976812 0.263604
H90   H     H_    0.800938 0.987004 0.868569 0.386047
H91   H     H_    0.733575 0.359969 0.140724 0.380893
H92   H     H_    0.263777 0.357119 0.858638 0.396391
H93   H     H_    0.387937 0.771025 0.184471 0.361570
H94   H     H_    0.257686 0.132309 0.825166 0.379260
H95   H     H_    0.221052 0.577589 0.190186 0.355612
H96   H     H_    0.725410 0.642483 0.852299 0.385029
N1    N     N_R   0.485466 0.986993 0.932186 -0.348172
N2    N     N_2   0.624956 0.173730 0.027165 -0.483911
N3    N     N_2   0.187525 0.630201 0.969684 -0.456132
N4    N     N_2   0.782032 0.428927 0.030185 -0.447908
N5    N     N_2   0.619293 0.177758 0.974570 -0.492294
N6    N     N_2   0.358652 0.795063 0.027708 -0.463881
N7    N     N_2   0.789521 0.397080 0.975969 -0.465485
N8    N     N_2   0.205453 0.618697 0.023116 -0.537258
N9    N     N_2   0.022939 0.274046 0.472811 -0.458525
N10   N     N_2   0.025615 0.735313 0.527250 -0.434323
N11   N     N_2   0.725597 0.091749 0.470316 -0.443290
N12   N     N_R   0.486028 0.983555 0.069039 -0.367622
N13   N     N_2   0.285430 0.979413 0.530574 -0.446043
N14   N     N_2   0.999344 0.739087 0.474075 -0.515792
N15   N     N_2   0.987979 0.273132 0.526744 -0.456140
N16   N     N_2   0.287579 0.940937 0.476800 -0.467181
N17   N     N_2   0.737322 0.085325 0.523684 -0.530738
N18   N     N_R   0.989159 0.501828 0.931929 -0.356147
N19   N     N_R   0.005018 0.508142 0.068379 -0.364933
N20   N     N_R   0.001627 0.505466 0.432010 -0.350346
N21   N     N_R   0.001547 0.504148 0.568031 -0.360948
N22   N     N_R   0.502760 0.008682 0.432351 -0.357656
N23   N     N_R   0.519785 0.013675 0.568806 -0.365946
N24   N     N_2   0.374138 0.783460 0.973056 -0.469867
O1    O     O_3   0.000000 0.500000 0.750000 -0.494348
O2    O     O_R   0.000000 0.430630 0.192350 -0.481828
O3    O     O_2   0.950300 0.266827 0.114610 -0.203976
O4    O     O_3   0.832013 0.331193 0.086255 -0.404550
O5    O     O_2   0.027479 0.329074 0.930505 -0.297704
O6    O     O_2   0.098192 0.279581 0.891469 -0.156208
O7    O     O_3   0.176875 0.385371 0.921286 -0.429702
O8    O     O_2   0.331958 0.801518 0.105163 -0.108569
O9    O     O_2   0.288604 0.915171 0.133927 -0.206867
O10   O     O_3   0.291347 0.944629 0.084431 -0.519752
O11   O     O_2   0.360187 0.166064 0.916891 -0.231806
O12   O     O_2   0.260912 0.085178 0.890408 -0.146477
O13   O     O_R   0.430630 0.000000 0.807650 -0.487082
O14   O     O_3   0.310378 0.021523 0.933591 -0.512397
O15   O     O_2   0.246460 0.534958 0.094779 -0.152339
O16   O     O_2   0.219397 0.421260 0.125306 -0.200518
O17   O     O_3   0.171915 0.402024 0.077376 -0.507182
O18   O     O_2   0.938673 0.668480 0.929509 -0.315074
O19   O     O_2   0.877926 0.716325 0.888686 -0.165373
O20   O     O_3   0.793433 0.609339 0.916371 -0.426850
O21   O     O_2   0.800647 0.587934 0.664337 -0.205793
O22   O     O_2   0.928375 0.666104 0.675106 -0.295697
O23   O     O_3   0.850589 0.705170 0.632827 -0.401623
O24   O     O_R   0.569370 0.000000 0.192350 -0.479573
O25   O     O_2   0.800436 0.415630 0.336228 -0.205427
O26   O     O_2   0.928029 0.335638 0.326464 -0.297760
O27   O     O_3   0.850086 0.301618 0.369018 -0.413349
O28   O     O_2   0.381678 0.820197 0.661976 -0.208675
O29   O     O_2   0.328349 0.960176 0.672593 -0.299827
O30   O     O_3   0.280338 0.893492 0.629426 -0.409122
O31   O     O_2   0.605182 0.810434 0.337164 -0.207040
O32   O     O_2   0.668821 0.944279 0.324727 -0.302899
O33   O     O_3   0.718715 0.875772 0.367383 -0.415241
O34   O     O_2   0.199145 0.412959 0.664420 -0.207978
O35   O     O_R   0.500000 0.930630 0.307650 -0.479279
O36   O     O_2   0.070866 0.334381 0.674068 -0.292749
O37   O     O_3   0.149584 0.298749 0.631740 -0.411749
O38   O     O_2   0.199921 0.584274 0.334664 -0.196857
O39   O     O_2   0.073479 0.665677 0.324456 -0.295462
O40   O     O_3   0.155065 0.703762 0.366059 -0.477381
O41   O     O_2   0.725868 0.118385 0.639572 -0.161662
O42   O     O_2   0.613319 0.167088 0.667862 -0.245645
O43   O     O_3   0.692850 0.030864 0.680987 -0.508959
O44   O     O_2   0.389693 0.187598 0.334794 -0.208803
O45   O     O_2   0.328837 0.050937 0.324011 -0.303742
O46   O     O_R   0.500000 0.069370 0.692350 -0.481512
O47   O     O_3   0.278014 0.123806 0.365849 -0.415057
O48   O     O_2   0.435391 0.202128 0.165855 -0.236409
O49   O     O_2   0.581311 0.161455 0.173724 -0.282239
O50   O     O_3   0.549153 0.247441 0.132565 -0.409141
O51   O     O_2   0.694968 0.911051 0.835973 -0.226878
O52   O     O_2   0.684509 0.064792 0.836688 -0.232654
O53   O     O_3   0.745354 0.992258 0.877030 -0.408640
O54   O     O_2   0.879318 0.317722 0.163152 -0.205192
O55   O     O_2   0.827883 0.457996 0.174324 -0.299579
O56   O     O_3   0.776746 0.392614 0.131284 -0.412064
O57   O     O_R   0.069370 0.500000 0.307650 -0.475982
O58   O     O_2   0.114396 0.316257 0.837323 -0.214728
O59   O     O_2   0.169883 0.454386 0.825708 -0.303891
O60   O     O_3   0.220615 0.388184 0.868619 -0.400887
O61   O     O_2   0.469967 0.755232 0.137403 -0.172757
O62   O     O_2   0.546512 0.820587 0.173428 -0.296420
O63   O     O_3   0.383529 0.824253 0.174605 -0.453284
O64   O     O_2   0.354803 0.201887 0.863778 -0.183504
O65   O     O_2   0.424304 0.163739 0.823541 -0.291483
O66   O     O_3   0.285760 0.086769 0.835026 -0.445377
O67   O     O_2   0.217573 0.625310 0.137202 -0.131838
O68   O     O_R   0.930630 0.500000 0.692350 -0.478642
O69   O     O_2   0.105980 0.669630 0.166407 -0.240582
O70   O     O_3   0.191832 0.536679 0.178844 -0.509325
O71   O     O_2   0.877252 0.680407 0.834348 -0.209809
O72   O     O_2   0.826889 0.541646 0.821238 -0.305094
O73   O     O_3   0.763976 0.606827 0.862658 -0.408307
O74   O     O_R   0.500000 0.069370 0.307650 -0.482855
O75   O     O_R   0.500000 0.930630 0.692350 -0.479224
O76   O     O_R   0.930630 0.500000 0.307650 -0.480354
O77   O     O_3   0.000000 0.500000 0.250000 -0.493818
O78   O     O_R   0.069370 0.500000 0.692350 -0.480162
O79   O     O_R   0.902350 0.666510 0.764820 -0.505569
O80   O     O_R   0.097650 0.333490 0.235180 -0.522518
O81   O     O_R   0.333490 0.902350 0.764820 -0.530676
O82   O     O_R   0.666510 0.097650 0.235180 -0.512608
O83   O     O_R   0.097650 0.333490 0.764820 -0.512005
O84   O     O_R   0.902350 0.666510 0.235180 -0.523602
O85   O     O_R   0.666510 0.097650 0.764820 -0.512312
O86   O     O_R   0.333490 0.902350 0.235180 -0.510731
O87   O     O_R   0.902350 0.333490 0.235180 -0.508987
O88   O     O_3   0.500000 0.000000 0.750000 -0.491131
O89   O     O_R   0.097650 0.666510 0.764820 -0.527645
O90   O     O_R   0.333490 0.097650 0.235180 -0.521358
O91   O     O_R   0.666510 0.902350 0.764820 -0.513449
O92   O     O_R   0.097650 0.666510 0.235180 -0.515471
O93   O     O_R   0.902350 0.333490 0.764820 -0.525058
O94   O     O_R   0.666510 0.902350 0.235180 -0.523288
O95   O     O_R   0.333490 0.097650 0.764820 -0.512622
O96   O     O_R   0.402350 0.166510 0.264820 -0.502459
O97   O     O_R   0.597650 0.833490 0.735180 -0.524714
O98   O     O_R   0.833490 0.402350 0.264820 -0.504019
O99   O     O_3   0.500000 0.000000 0.250000 -0.493537
O100  O     O_R   0.166510 0.597650 0.735180 -0.521824
O101  O     O_R   0.597650 0.833490 0.264820 -0.504289
O102  O     O_R   0.402350 0.166510 0.735180 -0.520338
O103  O     O_R   0.166510 0.597650 0.264820 -0.502082
O104  O     O_R   0.833490 0.402350 0.735180 -0.521238
O105  O     O_R   0.402350 0.833490 0.735180 -0.507247
O106  O     O_R   0.597650 0.166510 0.264820 -0.525263
O107  O     O_R   0.833490 0.597650 0.735180 -0.503988
O108  O     O_R   0.166510 0.402350 0.264820 -0.524370
O109  O     O_R   0.597650 0.166510 0.735180 -0.511088
O110  O     O_R   0.000000 0.430630 0.807650 -0.481756
O111  O     O_R   0.402350 0.833490 0.264820 -0.525360
O112  O     O_R   0.166510 0.402350 0.735180 -0.503682
O113  O     O_R   0.833490 0.597650 0.264820 -0.521768
O114  O     O_2   0.559439 0.112986 0.931397 -0.450499
O115  O     O_2   0.444421 0.841944 0.067720 -0.382249
O116  O     O_2   0.855203 0.442769 0.932629 -0.388763
O117  O     O_2   0.119984 0.599598 0.067308 -0.440232
O118  O     O_2   0.406554 0.863888 0.931096 -0.387138
O119  O     O_2   0.591691 0.085481 0.070122 -0.449099
O120  O     O_2   0.123242 0.560149 0.929451 -0.397323
O121  O     O_R   1.000000 0.569370 0.192350 -0.481152
O122  O     O_2   0.859024 0.489632 0.070335 -0.397636
O123  O     O_2   0.973148 0.648809 0.431164 -0.494396
O124  O     O_2   0.981805 0.359088 0.568789 -0.387130
O125  O     O_2   0.363551 0.963357 0.433391 -0.389277
O126  O     O_2   0.649991 0.081953 0.567703 -0.434927
O127  O     O_2   0.023183 0.360638 0.430849 -0.392442
O128  O     O_2   0.021650 0.649196 0.569237 -0.386265
O129  O     O_2   0.641492 0.054664 0.429461 -0.392996
O130  O     O_2   0.372898 0.019758 0.570942 -0.400859
O131  O     O_2   0.824949 0.503812 0.570657 -0.283404
O132  O     O_R   0.569370 0.000000 0.807650 -0.467343
O133  O     O_2   0.763821 0.559899 0.610458 -0.170803
O134  O     O_3   0.845678 0.661970 0.580361 -0.427600
O135  O     O_2   0.823965 0.510204 0.428820 -0.272422
O136  O     O_2   0.763184 0.449125 0.389647 -0.164503
O137  O     O_3   0.844882 0.350872 0.421155 -0.448145
O138  O     O_2   0.485200 0.830426 0.569295 -0.290081
O139  O     O_2   0.430903 0.773807 0.610030 -0.182193
O140  O     O_3   0.329846 0.860219 0.580866 -0.413217
O141  O     O_2   0.527904 0.834004 0.431298 -0.281727
O142  O     O_2   0.590752 0.777197 0.391900 -0.160826
O143  O     O_R   0.430630 0.000000 0.192350 -0.486396
O144  O     O_3   0.680512 0.877562 0.420496 -0.442464
O145  O     O_2   0.178503 0.506742 0.571722 -0.286258
O146  O     O_2   0.238051 0.446603 0.611250 -0.169927
O147  O     O_3   0.157828 0.347564 0.579701 -0.437878
O148  O     O_2   0.180248 0.495082 0.426918 -0.239878
O149  O     O_2   0.238190 0.563978 0.388819 -0.131110
O150  O     O_3   0.158790 0.654984 0.422742 -0.475529
O151  O     O_2   0.760589 0.012114 0.600185 -0.148503
O152  O     O_2   0.712485 0.905258 0.630577 -0.235963
O153  O     O_3   0.675302 0.887149 0.581755 -0.510413
O154  O     O_R   0.000000 0.569370 0.807650 -0.483085
O155  O     O_2   0.471274 0.180780 0.428457 -0.291734
O156  O     O_2   0.406257 0.229457 0.388316 -0.162320
O157  O     O_3   0.318764 0.133652 0.418864 -0.439480
O158  O     O_2   0.378530 0.132927 0.070763 -0.298857
O159  O     O_2   0.372908 0.207543 0.112177 -0.173777
O160  O     O_3   0.504178 0.227913 0.083132 -0.442928
O161  O     O_2   0.577346 0.823448 0.923042 -0.299866
O162  O     O_2   0.680033 0.837962 0.888564 -0.171165
O163  O     O_3   0.687473 0.941938 0.927579 -0.472520
O164  O     O_2   0.987217 0.321027 0.071731 -0.290649
S1    S     S_3+6 0.838419 0.564468 0.592665 0.120273
S2    S     S_3+6 0.626091 0.886036 0.907363 0.094027
S3    S     S_3+6 0.933404 0.335667 0.095307 0.110186
S4    S     S_3+6 0.084452 0.354665 0.908642 0.122547
S5    S     S_3+6 0.336742 0.894608 0.109598 0.133313
S6    S     S_3+6 0.337041 0.079622 0.907635 0.120819
S7    S     S_3+6 0.184206 0.468765 0.102460 0.120747
S8    S     S_3+6 0.888358 0.641549 0.906217 0.113320
S9    S     S_3+6 0.878378 0.627676 0.653318 0.110440
S10   S     S_3+6 0.878059 0.376677 0.347766 0.105558
S11   S     S_3+6 0.359026 0.904627 0.650944 0.104684
S12   S     S_3+6 0.837658 0.446690 0.407620 0.120459
S13   S     S_3+6 0.637255 0.892991 0.347221 0.102767
S14   S     S_3+6 0.121559 0.374477 0.652791 0.109268
S15   S     S_3+6 0.123875 0.626431 0.346044 0.087563
S16   S     S_3+6 0.654798 0.090437 0.656640 0.105242
S17   S     S_3+6 0.359493 0.105732 0.345862 0.101254
S18   S     S_3+6 0.515195 0.173045 0.153133 0.095111
S19   S     S_3+6 0.675228 0.986160 0.852597 0.123885
S20   S     S_3+6 0.856726 0.402548 0.152410 0.105546
S21   S     S_3+6 0.139928 0.400500 0.847829 0.106156
S22   S     S_3+6 0.470540 0.827607 0.156157 0.096102
S23   S     S_3+6 0.428478 0.848027 0.592011 0.115031
S24   S     S_3+6 0.375353 0.129517 0.846161 0.111894
S25   S     S_3+6 0.149193 0.594513 0.154824 0.115622
S26   S     S_3+6 0.850110 0.595769 0.844104 0.103867
S27   S     S_3+6 0.584732 0.853860 0.408824 0.122007
S28   S     S_3+6 0.164252 0.443746 0.593021 0.116662
S29   S     S_3+6 0.164576 0.562458 0.407035 0.131172
S30   S     S_3+6 0.689118 0.954381 0.606637 0.113207
S31   S     S_3+6 0.413840 0.156084 0.406533 0.118310
S32   S     S_3+6 0.429746 0.161589 0.093699 0.108970
Zn1   Zn    Zn3+2 0.900880 0.500000 0.727850 1.066540
Zn2   Zn    Zn3+2 0.599120 1.000000 0.772150 1.055325
Zn3   Zn    Zn3+2 0.000000 0.400880 0.227850 1.059818
Zn4   Zn    Zn3+2 0.000000 0.599120 0.772150 1.060133
Zn5   Zn    Zn3+2 0.599120 0.000000 0.227850 1.057748
Zn6   Zn    Zn3+2 0.400880 1.000000 0.772150 1.033938
Zn7   Zn    Zn3+2 0.000000 0.599120 0.227850 1.048046
Zn8   Zn    Zn3+2 0.000000 0.400880 0.772150 1.058821
Zn9   Zn    Zn3+2 0.099120 0.500000 0.272150 1.058470
Zn10  Zn    Zn3+2 0.500000 0.900880 0.727850 1.051930
Zn11  Zn    Zn3+2 0.500000 0.099120 0.272150 1.064478
Zn12  Zn    Zn3+2 0.099120 0.500000 0.727850 1.061818
Zn13  Zn    Zn3+2 0.900880 0.500000 0.272150 1.062426
Zn14  Zn    Zn3+2 0.500000 0.099120 0.727850 1.054262
Zn15  Zn    Zn3+2 0.500000 0.900880 0.272150 1.061148
Zn16  Zn    Zn3+2 0.400880 0.000000 0.227850 1.060625

loop_
_geom_bond_atom_site_label_1
_geom_bond_atom_site_label_2
_ccdc_geom_bond_type
C60   H24   S    
C104  S31   S    
C40   C71   A    
C32   C45   A    
C35   C154  A    
O153  S30   S    
C73   S10   S    
C13   S20   S    
O136  S12   D    
C65   H48   S    
C14   C132  S    
C46   C155  A    
O112  Zn12  S    
O68   Zn1   S    
C57   S25   S    
H79   O20   S    
C132  O107  A    
C122  N18   S    
C4    C142  S    
C113  S8    S    
H27   N9    S    
O55   S20   D    
O1    Zn4   S    
C89   N10   S    
C17   C39   A    
C18   C40   A    
C130  O57   A    
C20   O117  S    
O141  S27   D    
C113  C122  A    
C145  O92   A    
O157  S31   S    
H75   O10   S    
C53   N2    S    
C144  C160  S    
C108  C121  A    
C36   C71   A    
C129  O75   A    
C140  O86   A    
O9    S5    D    
C137  O84   A    
C61   H29   S    
O154  Zn4   S    
O76   Zn13  S    
C73   C98   A    
C55   H8    S    
C80   C83   A    
O86   Zn16  S    
O25   S10   D    
C43   C75   A    
C26   O123  S    
C81   N3    S    
O88   Zn6   S    
O69   S25   D    
C3    C143  S    
C143  O96   A    
C129  C152  S    
H62   O134  S    
C36   C80   A    
C99   C116  A    
C118  N22   S    
H72   O163  S    
O90   Zn16  S    
C2    S19   S    
O92   Zn7   S    
C23   C37   A    
H70   O157  S    
C61   H28   S    
C63   H37   S    
C147  O94   A    
C95   C153  A    
C75   C76   A    
O89   Zn4   S    
C41   C86   A    
O27   S10   S    
O79   Zn4   S    
H14   N6    S    
O83   Zn8   S    
H9    N5    S    
O5    S4    D    
O107  Zn1   S    
O87   Zn3   S    
O81   Zn6   S    
O18   S8    D    
C45   C90   A    
H87   O47   S    
C67   N16   S    
C126  C154  S    
O10   S5    S    
H81   O27   S    
C53   H56   S    
C134  O105  A    
C56   H11   S    
O77   Zn13  S    
C33   C47   A    
C30   C43   A    
C11   C134  S    
H69   O153  S    
C101  S28   S    
O113  Zn13  S    
C50   C77   A    
C107  C120  A    
C79   C85   A    
O75   Zn10  S    
C69   N17   S    
O50   S18   S    
O145  S28   D    
C145  O103  A    
O70   S25   S    
O97   Zn10  S    
H95   O70   S    
O88   Zn2   S    
C16   C138  S    
O62   S22   D    
C19   O116  S    
H1    N24   S    
C20   C42   A    
C63   H38   S    
C17   O114  S    
C124  O2    A    
C29   N23   A    
C22   C36   A    
C90   N11   S    
C51   C78   A    
C53   H67   S    
C91   C94   A    
C21   N1    A    
C103  C116  A    
C69   H61   S    
O38   S15   D    
C135  O82   A    
C144  O91   A    
O2    Zn3   S    
C33   O130  S    
O77   Zn9   S    
C55   H6    S    
C49   C93   A    
O85   Zn2   S    
H71   O160  S    
C140  O111  A    
H44   N14   S    
C127  O35   A    
O49   S18   D    
O158  S32   D    
O159  S32   D    
C69   H60   S    
C129  O46   A    
O61   S22   D    
C52   H12   S    
C6    C9    T    
O161  S2    D    
C141  O87   A    
O144  S27   S    
C59   N7    S    
C59   H20   S    
C55   N4    S    
C145  C159  S    
C23   O120  S    
O140  S23   S    
H74   O7    S    
O72   S26   D    
H53   N16   S    
O46   Zn14  S    
C44   C76   A    
H76   O14   S    
O43   S16   S    
C128  C152  A    
C79   N24   S    
C25   C38   A    
O1    Zn1   S    
C66   N15   S    
C54   H3    S    
C66   H50   S    
O149  S29   D    
O80   Zn3   S    
O52   S19   D    
C98   S12   S    
O58   S21   D    
O77   Zn3   S    
O57   Zn9   S    
C80   N2    S    
O3    S3    D    
C13   C108  A    
O96   Zn11  S    
H91   O56   S    
O65   S24   D    
C7    C147  S    
H45   N2    S    
O94   Zn5   S    
C18   O115  S    
C57   C156  A    
H36   N11   S    
C32   O129  S    
C10   C135  S    
C95   C100  A    
O134  S1    S    
O28   S11   D    
O139  S23   D    
C24   C157  A    
C50   C94   A    
O48   S18   D    
C123  C157  S    
C146  O104  A    
C117  S15   S    
O15   S7    D    
O7    S4    S    
O19   S8    D    
O162  S2    D    
H84   O37   S    
C13   C156  A    
H86   O43   S    
H85   O40   S    
C34   C79   A    
C92   N14   S    
C56   N5    S    
C93   N15   S    
C94   N16   S    
C27   N21   A    
C117  C151  A    
O150  S29   S    
O59   S21   D    
C65   N14   S    
O100  Zn12  S    
C102  C117  A    
O147  S28   S    
O13   Zn6   S    
H58   N17   S    
O73   S26   S    
H83   O33   S    
O63   S22   S    
C83   N5    S    
C142  O100  A    
C17   N1    A    
C38   C74   A    
C101  C106  A    
O135  S12   D    
C102  S29   S    
O155  S31   D    
C29   O126  S    
O40   S15   S    
C105  C119  A    
H96   O73   S    
C110  C119  A    
C90   C96   A    
O99   Zn5   S    
O1    Zn8   S    
C112  C121  A    
O67   S25   D    
C62   N10   S    
H93   O63   S    
C98   C115  A    
O106  Zn11  S    
C119  N12   S    
H31   N10   S    
O133  S1    D    
O148  S29   D    
C54   N3    S    
O99   Zn16  S    
C136  O83   A    
O47   S17   S    
C126  O24   A    
C126  O143  A    
O64   S24   D    
O44   S17   D    
C67   H54   S    
C45   C77   A    
C42   C87   A    
H92   O60   S    
C47   C78   A    
C97   C114  A    
C133  O108  A    
C58   N6    S    
C44   C89   A    
C27   C49   A    
C127  O74   A    
C64   H41   S    
C30   N20   A    
C60   H25   S    
C31   O128  S    
C106  S14   S    
C60   N8    S    
O91   Zn2   S    
C58   H15   S    
C55   H7    S    
C85   N6    S    
C105  S32   S    
C37   C81   A    
O26   S10   D    
C112  S7    S    
C77   C78   A    
C105  C150  A    
O121  Zn7   S    
O39   S15   D    
O164  S3    D    
C43   C88   A    
C29   C51   A    
C88   N9    S    
C19   N18   A    
C139  C153  A    
C120  N1    S    
O31   S13   D    
O103  Zn9   S    
C59   H21   S    
C102  C115  A    
O131  S1    D    
C114  N21   S    
O51   S19   D    
C115  N20   S    
C148  O95   A    
H64   O140  S    
H88   O50   S    
C24   S21   S    
C1    C149  A    
C70   C71   A    
O6    S4    D    
C124  O121  A    
C34   C70   A    
C26   C48   A    
C68   C113  A    
O42   S16   D    
C46   C111  A    
C38   C82   A    
O78   Zn12  S    
C101  C114  A    
H90   O53   S    
C30   O127  S    
C62   H35   S    
C46   S24   S    
H66   O147  S    
H77   O17   S    
C104  C118  A    
H40   N13   S    
C42   C74   A    
O20   S8    S    
C111  S6    S    
C132  O79   A    
C7    C8    T    
C72   C74   A    
O60   S21   S    
C27   O124  S    
O32   S13   D    
C91   N13   S    
H82   O30   S    
C16   C158  T    
O105  Zn10  S    
O30   S11   S    
C8    C137  S    
C137  O113  A    
C40   C85   A    
C22   O119  S    
C15   C159  T    
O101  Zn15  S    
H65   O144  S    
C67   H57   S    
O82   Zn5   S    
C130  O76   A    
C4    C11   T    
C148  O102  A    
C81   C87   A    
C35   C110  A    
C138  O85   A    
C146  C158  S    
O93   Zn8   S    
O36   S14   D    
O56   S20   S    
C64   H43   S    
C65   H47   S    
C61   H30   S    
C100  C118  A    
C68   C157  A    
C86   N7    S    
C32   N22   A    
C15   C140  S    
O137  S12   S    
C69   H59   S    
C84   C99   A    
C47   C91   A    
O35   Zn15  S    
C24   C109  A    
O8    S5    D    
C144  O97   A    
C138  O109  A    
C108  S3    S    
C21   C34   A    
C104  C139  A    
C56   H13   S    
O77   Zn7   S    
C59   H19   S    
C20   N19   A    
C39   C83   A    
C28   O125  S    
C25   N19   A    
C82   C86   A    
C26   N20   A    
C146  O93   A    
C123  O154  A    
O88   Zn14  S    
C131  O78   A    
O109  Zn14  S    
H63   O137  S    
C84   S11   S    
O12   S6    D    
C64   N13   S    
C123  O110  A    
O34   S14   D    
O17   S7    S    
C37   C72   A    
O33   S13   S    
C130  C151  S    
O23   S9    S    
C62   H33   S    
C54   H4    S    
C66   H51   S    
C19   C41   A    
O16   S7    D    
C18   N12   A    
O1    Zn12  S    
C2    C155  A    
C142  O89   A    
C67   H55   S    
C52   H23   S    
O108  Zn9   S    
C127  C153  S    
C110  S5    S    
C100  S27   S    
C141  O98   A    
C134  O81   A    
H18   N7    S    
O53   S19   S    
C23   N18   A    
C109  C122  A    
C57   C112  A    
O146  S28   D    
O138  S23   D    
O21   S9    D    
C125  O132  A    
C2    C107  A    
O88   Zn10  S    
O132  Zn2   S    
O163  S2    S    
C3    C12   T    
O11   S6    D    
C28   C50   A    
C1    S9    S    
C95   S13   S    
O142  S27   D    
C52   N24   S    
C106  C149  A    
O152  S30   D    
C73   C151  A    
C96   N17   S    
C48   C75   A    
H89   N3    S    
C31   N21   A    
C107  S2    S    
H68   O150  S    
O143  Zn16  S    
C133  O80   A    
C31   C44   A    
C103  S30   S    
O29   S11   D    
C52   H34   S    
C33   N23   A    
C1    C97   A    
O22   S9    D    
C62   H32   S    
C65   H46   S    
O14   S6    S    
C14   C160  T    
C111  C120  A    
O110  Zn8   S    
C53   H78   S    
C121  N19   S    
C22   N12   A    
O37   S14   S    
C6    C148  S    
C5    C141  S    
O160  S32   S    
H22   N8    S    
O98   Zn13  S    
C49   C76   A    
C99   S23   S    
C54   H2    S    
C89   C92   A    
C103  C128  A    
C61   N9    S    
C41   C72   A    
O99   Zn15  S    
C84   C152  A    
C56   H10   S    
C35   S22   S    
C21   O118  S    
C12   C133  S    
C124  C156  S    
C82   N4    S    
C48   C92   A    
O151  S30   D    
O111  Zn15  S    
C109  S4    S    
O4    S3    S    
C128  S16   S    
C64   H42   S    
C88   C93   A    
C60   H26   S    
C139  S17   S    
C147  O101  A    
C116  N23   S    
C58   H16   S    
C131  O68   A    
O156  S31   D    
O104  Zn1   S    
C125  O13   A    
C28   N22   A    
C25   O122  S    
O84   Zn7   S    
C136  O112  A    
C68   S26   S    
H73   O4    S    
C51   C96   A    
O45   S17   D    
H5    N4    S    
C97   S1    S    
C143  O90   A    
C5    C10   T    
O66   S24   S    
O24   Zn5   S    
O41   S16   D    
C63   N11   S    
C39   C70   A    
C63   H39   S    
C58   H17   S    
O102  Zn14  S    
O54   S20   D    
C131  C149  S    
O74   Zn11  S    
C9    C136  S    
H94   O66   S    
H49   N15   S    
H80   O23   S    
O99   Zn11  S    
C150  S18   S    
C150  C154  A    
O71   S26   D    
C135  O106  A    
C66   H52   S    
C87   N8    S    
C125  C155  S    
O95   Zn6   S    
