data_mof_unit_62324.cif
_audit_creation_date              2013-03-05T15:40:07-0500
_audit_creation_method            fapswitch 2.2
_symmetry_space_group_name_H-M    P1
_symmetry_Int_Tables_number       1
_space_group_crystal_system       triclinic
_cell_length_a                    18.841936
_cell_length_b                    19.000966
_cell_length_c                    18.490144
_cell_angle_alpha                 109.254733
_cell_angle_beta                  108.747303
_cell_angle_gamma                 109.715321
_cell_volume                      5138.93303427

loop_
_atom_site_label
_atom_site_type_symbol
_atom_site_description
_atom_site_fract_x
_atom_site_fract_y
_atom_site_fract_z
_atom_type_partial_charge
O1    O     O_R   0.460610 0.409240 0.550770 -0.582516
O2    O     O_R   0.358470 0.409870 0.449260 -0.626721
C1    C     C_R   0.381393 0.383189 0.502848 1.006779
O3    O     O_R   0.551070 0.590720 0.641790 -0.618618
O4    O     O_R   0.448930 0.591350 0.540280 -0.622765
C2    C     C_R   0.496758 0.615809 0.620439 0.924701
Zn1   Zn    Zn3+2 0.568200 0.499580 0.567780 1.015147
Zn2   Zn    Zn3+2 0.431800 0.500420 0.432220 0.990419
O5    O     O_R   0.641530 0.590130 0.550740 -0.619245
O6    O     O_R   0.539390 0.590760 0.449230 -0.629199
O7    O     O_R   0.551070 0.408650 0.459720 -0.623571
O8    O     O_R   0.448930 0.409280 0.358210 -0.621086
C3    C     C_R   0.618611 0.617286 0.497508 0.968600
C4    C     C_R   0.496880 0.377887 0.379476 0.924432
H1    H     H_    0.472364 0.741298 0.611086 0.164179
C5    C     C_R   0.506976 0.611355 0.785428 0.283392
C6    C     C_R   0.538765 0.625033 0.871531 -0.305448
H2    H     H_    0.536446 0.572518 0.883683 0.194360
C7    C     C_R   0.566464 0.703825 0.941576 0.472434
C8    C     C_R   0.555488 0.766459 0.924196 -0.241868
H3    H     H_    0.571899 0.824753 0.978725 0.161092
C9    C     C_R   0.525320 0.754690 0.838294 -0.012319
C10   C     C_R   0.509569 0.680529 0.769824 -0.018797
C11   C     C_R   0.494138 0.678303 0.688193 -0.062011
C12   C     C_R   0.484099 0.742603 0.673010 -0.196707
H4    H     H_    0.477911 0.857066 0.723553 0.151549
C13   C     C_R   0.489620 0.809635 0.737376 -0.203005
C14   C     C_R   0.508952 0.814941 0.818679 -0.033917
C15   C     C_2   0.172874 0.252873 0.491576 0.204400
C16   C     C_2   0.170985 0.177521 0.478517 -0.007829
C17   C     C_2   0.237691 0.315025 0.484100 -0.112210
C18   C     C_2   0.318007 0.327427 0.514901 -0.197153
H5    H     H_    0.219266 0.350973 0.454101 0.188832
H6    H     H_    0.338603 0.298130 0.552876 0.176827
C19   C     C_2   0.488612 0.171794 0.250090 -0.140416
C20   C     C_2   0.507351 0.183536 0.189692 -0.339350
H7    H     H_    0.469515 0.110493 0.248796 0.175100
H8    H     H_    0.536000 0.247247 0.196886 0.156939
C21   C     C_2   0.500183 0.244505 0.322934 -0.128772
C22   C     C_2   0.486592 0.305212 0.310227 -0.325138
H9    H     H_    0.517136 0.246699 0.385928 0.174816
H10   H     H_    0.459830 0.297851 0.244936 0.159260
C23   C     C_2   0.822330 0.743480 0.498366 0.522283
C24   C     C_2   0.825364 0.818991 0.514265 -0.421295
H11   H     H_    0.786449 0.837473 0.540325 0.129953
C25   C     C_2   0.760662 0.684772 0.512205 -0.278520
C26   C     C_2   0.681860 0.675812 0.487523 -0.411023
H12   H     H_    0.778790 0.646804 0.539098 0.182891
H13   H     H_    0.661061 0.707818 0.453179 0.158266
O9    O     O_R   0.460650 0.048500 0.906910 -0.621657
O10   O     O_R   0.358520 0.946380 0.906940 -0.610871
C27   C     C_R   0.381530 0.996007 0.876202 0.935671
O11   O     O_R   0.551120 0.956920 0.905770 -0.624399
O12   O     O_R   0.449000 0.854790 0.905800 -0.609397
C28   C     C_R   0.502229 0.878506 0.878884 0.862288
Zn3   Zn    Zn3+2 0.568250 0.065080 0.996810 0.972518
Zn4   Zn    Zn3+2 0.431870 0.928710 0.996840 0.993801
O13   O     O_R   0.641600 0.047410 0.086710 -0.613463
O14   O     O_R   0.539480 0.945290 0.086740 -0.621235
O15   O     O_R   0.551130 0.138990 0.087850 -0.625536
O16   O     O_R   0.449000 0.036870 0.087880 -0.611111
C29   C     C_R   0.618512 0.997505 0.117149 0.918600
C30   C     C_R   0.501472 0.116292 0.118575 0.933312
O17   O     O_R   0.909540 0.051950 0.461490 -0.594382
O18   O     O_R   0.909530 0.949160 0.358700 -0.640549
C31   C     C_R   0.883115 0.002057 0.380802 0.952422
O19   O     O_R   0.090460 0.141840 0.551380 -0.589106
O20   O     O_R   0.090460 0.039050 0.448590 -0.575925
C32   C     C_R   0.115711 0.117826 0.495311 0.916157
Zn5   Zn    Zn3+2 1.000000 0.068630 0.568630 1.027640
Zn6   Zn    Zn3+2 0.000000 0.931370 0.431370 1.006507
O21   O     O_R   0.090470 0.050840 0.641300 -0.626237
O22   O     O_R   0.090460 0.948050 0.538510 -0.602840
O23   O     O_R   0.909540 0.960950 0.551410 -0.633681
O24   O     O_R   0.909540 0.858160 0.448620 -0.595496
C33   C     C_R   0.116821 0.997840 0.619139 0.942382
C34   C     C_R   0.883690 0.881837 0.503635 0.956168
C35   C     C_2   0.180054 0.922335 0.674698 -0.135815
C36   C     C_2   0.176040 0.994088 0.687850 -0.319455
H14   H     H_    0.136073 0.863174 0.612417 0.179470
H15   H     H_    0.212986 0.050243 0.752797 0.159680
C37   C     C_2   0.241853 0.922022 0.746472 -0.153148
C38   C     C_2   0.318472 0.992846 0.804281 -0.332979
H16   H     H_    0.225785 0.863042 0.749826 0.175007
H17   H     H_    0.338248 0.048597 0.795149 0.164607
C39   C     C_2   0.814312 0.074442 0.325394 -0.095966
C40   C     C_2   0.824457 0.005775 0.311611 -0.337637
H18   H     H_    0.852143 0.131735 0.389440 0.209029
H19   H     H_    0.793273 0.952409 0.245695 0.154204
C41   C     C_2   0.753613 0.073944 0.252090 -0.156802
C42   C     C_2   0.681226 0.000596 0.189047 -0.336497
H20   H     H_    0.766289 0.134101 0.252013 0.177553
H21   H     H_    0.663383 0.942596 0.194457 0.163862
O25   O     O_3   0.884107 0.727867 0.481776 -0.628196
C43   C     C_3   0.847282 0.642988 0.413899 0.090997
H22   H     H_    0.868045 0.647258 0.364914 0.163531
H23   H     H_    0.775219 0.606868 0.377120 0.126912
C44   C     C_3   0.881632 0.593157 0.450975 -0.347681
H24   H     H_    0.953170 0.626737 0.481454 0.236007
H25   H     H_    0.864415 0.590546 0.502442 0.219477
C45   C     C_3   0.844490 0.501705 0.379366 -0.928883
H26   H     H_    0.773076 0.466284 0.349409 0.262086
H27   H     H_    0.871073 0.467533 0.408208 0.277318
H28   H     H_    0.862075 0.502537 0.327662 0.264491
N1    N     N_R   0.456705 0.524588 0.715122 0.207124
O26   O     O_R   0.477195 0.467352 0.722243 -0.403997
O27   O     O_R   0.379489 0.499102 0.656440 -0.415859
O28   O     O_3   0.591188 0.715362 0.025397 -0.627805
C46   C     C_3   0.673947 0.723805 0.061084 0.066338
H29   H     H_    0.721897 0.780468 0.064366 0.140423
H30   H     H_    0.673535 0.664916 0.021201 0.144275
C47   C     C_3   0.701162 0.737041 0.153938 -0.324125
H31   H     H_    0.702556 0.795898 0.195029 0.218563
H32   H     H_    0.653224 0.681384 0.151602 0.231927
C48   C     C_3   0.790073 0.745757 0.195919 -0.923783
H33   H     H_    0.789396 0.686510 0.157105 0.253085
H34   H     H_    0.808017 0.755786 0.263315 0.276967
H35   H     H_    0.839288 0.801498 0.199679 0.274892
N2    N     N_R   0.111097 0.273189 0.509090 0.218443
O29   O     O_R   0.029346 0.216311 0.462725 -0.416919
O30   O     O_R   0.134061 0.352715 0.557843 -0.340584
N3    N     N_R   0.215699 0.147816 0.436332 0.193759
O31   O     O_R   0.254815 0.109457 0.463555 -0.374172
O32   O     O_R   0.207378 0.148561 0.363950 -0.378455

loop_
_geom_bond_atom_site_label_1
_geom_bond_atom_site_label_2
_geom_bond_distance
_ccdc_geom_bond_type
O13   C29   1.279148 A    
C45   H26   1.111023 S    
C43   H22   1.111224 S    
C33   C36   1.437494 S    
O21   C33   1.274568 A    
C47   H32   1.111949 S    
C43   C44   1.530264 S    
C26   H13   1.087303 S    
Zn1   O7    2.003476 S    
C15   N2    1.439370 S    
H4    C13   1.084456 S    
O15   C30   1.270914 A    
C24   C34   1.442408 S    
C19   H7    1.086304 S    
C46   H30   1.114527 S    
O4    C2    1.276499 A    
O7    C4    1.279513 A    
C35   H14   1.086642 S    
Zn4   O14   2.007650 S    
C48   H33   1.110914 S    
C23   O25   1.392664 S    
O28   C46   1.411631 S    
O16   C30   1.282468 A    
O5    C3    1.278110 A    
C37   H16   1.086470 S    
O1    Zn1   2.010300 S    
O12   C28   1.272970 A    
C16   N3    1.445556 S    
O20   C32   1.271067 A    
C48   H34   1.110232 S    
O23   C34   1.277075 A    
Zn5   O23   2.015278 S    
O9    C27   1.272325 A    
C10   C11   1.425499 A    
C17   H5    1.086655 S    
O10   Zn4   1.997593 S    
O17   Zn5   1.995264 S    
C20   C30   1.441082 S    
C7    O28   1.382055 S    
N2    O30   1.301134 A    
C45   H27   1.110390 S    
C9    C14   1.406219 A    
O25   C43   1.417003 S    
O3    Zn1   2.018377 S    
C47   H31   1.111569 S    
C14   C28   1.421677 S    
O11   C28   1.267572 A    
C25   H12   1.085393 S    
O10   C27   1.279143 A    
C11   C12   1.398308 A    
C21   H9    1.086412 S    
C39   C41   1.460506 S    
C46   C47   1.528453 S    
C21   C22   1.338171 D    
C3    C26   1.440016 S    
C35   C36   1.336553 D    
C5    C6    1.403593 A    
O18   Zn6   2.010358 S    
O9    Zn3   2.007520 S    
Zn3   O15   2.001363 S    
O19   C32   1.288763 A    
C19   C20   1.336490 D    
O17   C31   1.282078 A    
C27   C38   1.437792 S    
C19   C21   1.466683 S    
C23   C24   1.343109 D    
C15   C16   1.357039 D    
C42   H21   1.087172 S    
N1    O27   1.300740 A    
C35   C37   1.460712 S    
C41   H20   1.086591 S    
C17   C18   1.336748 D    
Zn2   O8    2.018375 S    
C48   H35   1.110796 S    
C2    C11   1.442252 S    
C29   C42   1.434915 S    
C6    H2    1.082979 S    
O24   C34   1.280175 A    
C5    N1    1.430566 S    
O3    C2    1.274332 A    
C38   H17   1.087034 S    
C8    C9    1.412658 A    
C37   C38   1.336516 D    
C5    C10   1.424463 A    
C44   H25   1.109972 S    
C40   H19   1.086969 S    
O22   C33   1.281061 A    
N3    O32   1.301959 A    
C31   C40   1.437589 S    
C16   C32   1.452862 S    
C24   H11   1.087370 S    
Zn6   O22   1.995266 S    
O11   Zn3   2.020637 S    
Zn1   O5    2.000502 S    
C25   C26   1.335843 D    
O14   C29   1.270843 A    
C39   C40   1.335702 D    
O2    Zn2   2.000501 S    
O8    C4    1.271471 A    
O6    C3    1.272074 A    
O4    Zn2   2.003474 S    
N2    O29   1.300983 A    
C43   H23   1.116714 S    
Zn4   O16   2.020638 S    
C12   C13   1.371407 A    
C44   C45   1.526059 S    
N1    O26   1.301625 A    
C36   H15   1.087025 S    
O19   Zn5   1.996065 S    
C7    C8    1.392092 A    
C20   H8    1.086884 S    
O2    C1    1.276433 A    
C15   C17   1.465729 S    
C46   H29   1.115567 S    
Zn6   O24   1.996071 S    
C41   C42   1.336212 D    
O20   Zn6   2.015275 S    
C22   H10   1.086735 S    
C6    C7    1.396659 A    
Zn3   O13   1.997594 S    
C39   H18   1.085909 S    
O18   C31   1.273680 A    
C1    C18   1.439346 S    
C23   C25   1.471336 S    
H1    C12   1.084132 S    
C4    C22   1.441396 S    
C8    H3    1.082134 S    
Zn2   O6    2.010298 S    
C44   H24   1.111702 S    
C13   C14   1.387824 A    
C9    C10   1.405789 A    
Zn5   O21   2.010356 S    
C45   H28   1.110870 S    
O1    C1    1.272846 A    
N3    O31   1.301442 A    
C47   C48   1.525972 S    
C18   H6    1.087159 S    
O12   Zn4   2.001579 S    
