data_mof_unit_52183.cif
_audit_creation_date              2012-12-10T16:57:51-0500
_audit_creation_method            fapswitch 2.2
_symmetry_space_group_name_H-M    P1
_symmetry_Int_Tables_number       1
_space_group_crystal_system       triclinic
_cell_length_a                    10.656451
_cell_length_b                    10.914696
_cell_length_c                    9.72488
_cell_angle_alpha                 90.35424
_cell_angle_beta                  91.560754
_cell_angle_gamma                 90.392424
_cell_volume                      1130.6503839

loop_
_atom_site_label
_atom_site_type_symbol
_atom_type_description
_atom_site_fract_x
_atom_site_fract_y
_atom_site_fract_z
_atom_type_partial_charge
C1    C     C_R   0.497875 0.265456 0.499694 0.852446
C2    C     C_3   0.955866 0.567576 0.394085 -0.194951
C3    C     C_3   0.034214 0.449256 0.378951 -0.173841
C4    C     C_3   0.123262 0.496829 0.494462 0.007555
C5    C     C_2   0.494709 0.932294 0.387213 -0.163107
C6    C     C_2   0.506929 0.866826 0.502966 -0.336648
C7    C     C_2   0.500521 0.066380 0.386665 -0.144484
C8    C     C_2   0.489632 0.133454 0.501339 -0.303306
C9    C     C_2   0.432150 0.425284 0.920662 0.084479
C10   C     C_2   0.418220 0.439650 0.074578 -0.038969
C11   C     C_R   0.259651 0.497260 0.498101 0.789907
C12   C     C_R   0.501366 0.734610 0.500421 0.832875
C13   C     C_R   0.740669 0.504129 0.501861 0.777144
C14   C     C_3   0.047000 0.433588 0.605348 -0.228964
C15   C     C_3   0.955263 0.387607 0.490294 0.033547
C16   C     C_3   0.877947 0.504971 0.505273 -0.058415
C17   C     C_3   0.969574 0.551959 0.618529 0.045440
C18   C     C_3   0.048260 0.614950 0.508172 -0.180937
Cu1   Cu    Cu3+1 0.500030 0.500020 0.638630 0.972503
Cu2   Cu    Cu3+1 0.499970 0.499980 0.361370 0.943086
H1    H     H_    0.472270 0.092822 0.600268 0.140903
H2    H     H_    0.383831 0.348951 0.870116 0.068260
H3    H     H_    0.339568 0.394077 0.121529 0.120989
H4    H     H_    0.582564 0.522758 0.111496 0.231970
H5    H     H_    0.087561 0.375631 0.688535 0.126477
H6    H     H_    0.089733 0.708538 0.514138 0.135052
H7    H     H_    0.915336 0.624676 0.310285 0.134277
H8    H     H_    0.065036 0.409319 0.280342 0.119238
H9    H     H_    0.482599 0.886710 0.288074 0.176464
H10   H     H_    0.524648 0.908751 0.602781 0.146915
H11   H     H_    0.512974 0.110455 0.288067 0.163322
N1    N     N_2   0.498620 0.498660 0.846910 0.012375
N2    N     N_2   0.498590 0.498630 0.153040 -0.263880
O1    O     O_R   0.500020 0.321960 0.617040 -0.604390
O2    O     O_R   0.499980 0.321920 0.382900 -0.578914
O3    O     O_R   0.316870 0.499990 0.617050 -0.572932
O4    O     O_R   0.316830 0.499950 0.382910 -0.584368
O5    O     O_R   0.500020 0.678080 0.617100 -0.557296
O6    O     O_R   0.499980 0.678040 0.382960 -0.569370
O7    O     O_R   0.683170 0.500050 0.617090 -0.603524
O8    O     O_R   0.683130 0.500010 0.382950 -0.584011
C19   C     C_R   0.902592 0.259266 0.486707 0.100684
C20   C     C_R   0.916362 0.183381 0.370942 -0.140123
C21   C     C_R   0.870442 0.063058 0.371040 -0.137167
C22   C     C_R   0.810873 0.017647 0.486491 -0.092285
C23   C     C_R   0.795907 0.092812 0.601635 -0.137907
C24   C     C_R   0.841265 0.213356 0.601765 -0.154091
H12   H     H_    0.962779 0.216474 0.280759 0.110763
H13   H     H_    0.881424 0.004832 0.281719 0.115543
H14   H     H_    0.775753 0.924432 0.486277 0.117440
H15   H     H_    0.748938 0.057715 0.690642 0.115246
H16   H     H_    0.829553 0.270619 0.691813 0.126547
O9    O     O_3   0.517642 0.610442 0.903727 -0.490315
C25   C     C_3   0.645207 0.640191 0.890198 -0.124813
H17   H     H_    0.662088 0.682611 0.789613 0.189507
H18   H     H_    0.707644 0.559714 0.905997 0.129255
H19   H     H_    0.671281 0.708959 0.970544 0.129543
C26   C     C_R   0.947411 0.619729 0.750587 0.125024
C27   C     C_R   0.981180 0.567507 0.877823 -0.147280
C28   C     C_R   0.977389 0.637342 0.998457 -0.143370
C29   C     C_R   0.939370 0.759539 0.993450 -0.125138
C30   C     C_R   0.904598 0.811974 0.867417 -0.157119
C31   C     C_R   0.908390 0.742346 0.746384 -0.184928
H20   H     H_    0.012904 0.473781 0.884189 0.110377
H21   H     H_    0.005951 0.596873 0.095336 0.130998
H22   H     H_    0.936872 0.813496 0.087082 0.116892
H23   H     H_    0.875232 0.906628 0.863409 0.127183
H24   H     H_    0.883586 0.784600 0.649137 0.116617

loop_
_geom_bond_atom_site_label_1
_geom_bond_atom_site_label_2
_ccdc_geom_bond_type
C21   H13   S    
C28   H21   S    
C20   C21   A    
C11   O4    A    
C24   H16   S    
Cu1   O5    S    
C10   H3    S    
C2    C18   S    
C1    C8    S    
C2    C16   S    
C20   H12   S    
C25   H17   S    
C15   C19   S    
C5    H9    S    
Cu1   Cu2   S    
C18   H6    S    
C17   C26   S    
C19   C24   A    
C4    C18   S    
C12   O6    A    
C13   O8    A    
C17   C18   S    
C7    C8    D    
O9    C25   S    
C4    C11   S    
C6    C12   S    
Cu2   O4    S    
C14   C17   S    
C27   H20   S    
C2    H7    S    
C22   H14   S    
Cu2   O8    S    
Cu2   N2    S    
C29   H22   S    
C9    C10   S    
C11   O3    A    
C6    H10   S    
C1    O1    A    
C8    H1    S    
C10   N2    D    
C2    C3    S    
Cu1   O3    S    
C14   H5    S    
C4    C14   S    
C29   C30   A    
C16   C17   S    
C25   H18   S    
C9    H2    S    
C7    H11   S    
Cu1   O7    S    
Cu1   N1    S    
C15   C16   S    
C12   O5    A    
C22   C23   A    
N1    O9    S    
C27   C28   A    
C3    C15   S    
C21   C22   A    
C1    O2    A    
C5    C7    S    
C19   C20   A    
C13   C16   S    
C26   C31   A    
C5    C6    D    
Cu2   O6    S    
C14   C15   S    
C3    H8    S    
C13   O7    A    
C31   H24   S    
C9    N1    D    
C26   C27   A    
C23   C24   A    
Cu2   O2    S    
C23   H15   S    
Cu1   O1    S    
C30   H23   S    
C30   C31   A    
C3    C4    S    
H4    N2    S    
C28   C29   A    
C25   H19   S    
