data_mof_unit_37361.cif
_audit_creation_date              2012-12-10T17:09:55-0500
_audit_creation_method            fapswitch 2.2
_symmetry_space_group_name_H-M    P1
_symmetry_Int_Tables_number       1
_space_group_crystal_system       triclinic
_cell_length_a                    10.862597
_cell_length_b                    13.087369
_cell_length_c                    11.68686
_cell_angle_alpha                 99.599613
_cell_angle_beta                  95.088415
_cell_angle_gamma                 91.969879
_cell_volume                      1629.67024051

loop_
_atom_site_label
_atom_site_type_symbol
_atom_type_description
_atom_site_fract_x
_atom_site_fract_y
_atom_site_fract_z
_atom_type_partial_charge
C1    C     C_R   0.495907 0.299450 0.478701 0.860156
C2    C     C_R   0.071880 0.527444 0.607703 0.074545
C3    C     C_R   0.127085 0.507621 0.501202 -0.115950
C4    C     C_R   0.053828 0.468588 0.397249 -0.232906
C5    C     C_R   0.926549 0.450128 0.396204 -0.000168
C6    C     C_R   0.871187 0.472590 0.502273 -0.155121
C7    C     C_R   0.518346 0.814014 0.530863 -0.087474
C8    C     C_R   0.487483 0.186157 0.466403 -0.209006
C9    C     C_R   0.401033 0.017664 0.364176 -0.087430
C10   C     C_R   0.404987 0.126766 0.377963 -0.061612
C11   C     C_R   0.562204 0.137408 0.543578 -0.027422
C12   C     C_R   0.262070 0.505960 0.500250 0.847288
C13   C     C_R   0.544946 0.029961 0.540067 0.063689
C14   C     C_R   0.465648 0.969164 0.449306 0.084158
C15   C     C_R   0.453719 0.861345 0.445847 -0.253758
C16   C     C_R   0.598584 0.875035 0.619540 -0.011491
C17   C     C_R   0.609869 0.981666 0.623462 -0.194779
C18   C     C_R   0.384039 0.399370 0.021932 -0.259471
C19   C     C_R   0.393838 0.410483 0.143451 0.105497
C20   C     C_R   0.549826 0.543466 0.159207 0.053679
C21   C     C_R   0.541041 0.537822 0.035946 0.027146
C22   C     C_R   0.458808 0.462751 0.966051 -0.003437
C23   C     C_R   0.505566 0.700847 0.520933 0.783838
C24   C     C_R   0.452965 0.452992 0.842469 0.161700
C25   C     C_R   0.602408 0.593039 0.858262 0.022752
C26   C     C_R   0.613005 0.604058 0.981388 -0.102117
C27   C     C_R   0.736925 0.488338 0.500109 0.795585
C28   C     C_R   0.137294 0.576469 0.714176 -0.181592
C29   C     C_R   0.095497 0.564347 0.821382 0.063746
C30   C     C_R   0.982889 0.509627 0.821026 -0.201865
C31   C     C_R   0.907470 0.478612 0.717348 -0.180271
C32   C     C_R   0.947994 0.493445 0.609191 0.081073
Cu1   Cu    Cu3+1 0.509250 0.507730 0.615930 0.987968
Cu2   Cu    Cu3+1 0.490750 0.492270 0.384070 0.957339
H1    H     H_    0.096569 0.448312 0.316717 0.161727
H2    H     H_    0.674232 0.026098 0.690981 0.168362
H3    H     H_    0.657724 0.643615 0.816770 0.163986
H4    H     H_    0.316876 0.341828 0.973070 0.168371
H5    H     H_    0.334872 0.362756 0.184972 0.156031
H6    H     H_    0.615185 0.597301 0.215954 0.149521
H7    H     H_    0.221866 0.622625 0.714881 0.176452
H8    H     H_    0.952622 0.491084 0.900811 0.157466
H9    H     H_    0.821394 0.436918 0.723134 0.183570
H10   H     H_    0.393055 0.813501 0.377601 0.158561
N1    N     N_R   0.523180 0.519350 0.790130 -0.230463
N2    N     N_R   0.476820 0.480650 0.209890 -0.197693
O1    O     O_R   0.506570 0.354460 0.582000 -0.559531
O2    O     O_R   0.490940 0.341410 0.386200 -0.588734
O3    O     O_R   0.327470 0.506530 0.597920 -0.563617
O4    O     O_R   0.311840 0.493480 0.402120 -0.591556
O5    O     O_R   0.509060 0.658590 0.613800 -0.583026
O6    O     O_R   0.493430 0.645540 0.418000 -0.593445
O7    O     O_R   0.688160 0.506520 0.597880 -0.595850
O8    O     O_R   0.672530 0.493470 0.402080 -0.578749
C33   C     C_2   0.318147 0.178611 0.303040 0.858837
O9    O     O_2   0.319544 0.161866 0.197052 -0.610064
O10   O     O_R   0.234501 0.246448 0.354743 -0.766672
H11   H     H_    0.177979 0.274714 0.295024 0.319717
C34   C     C_2   0.666024 0.197333 0.620062 0.832050
O11   O     O_2   0.659693 0.219953 0.725115 -0.578421
O12   O     O_R   0.771884 0.225571 0.570822 -0.811049
H12   H     H_    0.839417 0.260518 0.631419 0.329834
C35   C     C_2   0.375630 0.365633 0.772247 0.876055
O13   O     O_2   0.415482 0.278685 0.758822 -0.574053
O14   O     O_R   0.252798 0.379212 0.734649 -0.759179
H13   H     H_    0.208635 0.312740 0.690898 0.336982
C36   C     C_R   0.696518 0.685689 0.054162 0.087437
C37   C     C_R   0.822590 0.669139 0.074383 -0.144633
C38   C     C_R   0.896580 0.734172 0.162863 -0.160320
C39   C     C_R   0.845532 0.817536 0.230409 -0.137357
C40   C     C_R   0.720209 0.835562 0.209760 -0.147851
C41   C     C_R   0.645848 0.769531 0.122208 -0.172987
H14   H     H_    0.862077 0.603503 0.025326 0.136961
H15   H     H_    0.993152 0.719112 0.180187 0.160835
H16   H     H_    0.902837 0.867540 0.299312 0.133258
H17   H     H_    0.680259 0.898791 0.263794 0.140186
H18   H     H_    0.547542 0.779298 0.111177 0.151772
C42   C     C_2   0.172363 0.603154 0.932599 0.806189
O15   O     O_2   0.272133 0.649314 0.932201 -0.625298
O16   O     O_R   0.131771 0.585856 0.038339 -0.807444
H19   H     H_    0.192785 0.615255 0.107750 0.331310
C43   C     C_R   0.855944 0.397253 0.285760 0.134309
C44   C     C_R   0.778204 0.308784 0.285390 -0.094011
C45   C     C_R   0.708206 0.261056 0.183143 -0.127563
C46   C     C_R   0.716544 0.299969 0.079768 -0.086284
C47   C     C_R   0.795683 0.386044 0.078355 -0.127702
C48   C     C_R   0.865675 0.434365 0.180647 -0.165064
H20   H     H_    0.770509 0.277622 0.364645 0.159928
H21   H     H_    0.647166 0.194129 0.184250 0.141696
H22   H     H_    0.661734 0.263458 0.000721 0.174086
H23   H     H_    0.801419 0.415713 0.997984 0.130671
H24   H     H_    0.926004 0.501391 0.178487 0.150064
C49   C     C_R   0.687407 0.831467 0.699215 0.119187
C50   C     C_R   0.781080 0.770843 0.653041 -0.123439
C51   C     C_R   0.881338 0.748662 0.726342 -0.137998
C52   C     C_R   0.888305 0.785063 0.846091 -0.125513
C53   C     C_R   0.795706 0.845798 0.892662 -0.133453
C54   C     C_R   0.694969 0.868369 0.819878 -0.166748
H25   H     H_    0.779933 0.745574 0.559804 0.113601
H26   H     H_    0.955673 0.706578 0.689368 0.139255
H27   H     H_    0.966082 0.767373 0.902508 0.128577
H28   H     H_    0.803105 0.876973 0.984808 0.160423
H29   H     H_    0.625568 0.918051 0.856625 0.137589
C55   C     C_R   0.337019 0.957350 0.255381 0.119898
C56   C     C_R   0.208293 0.937841 0.243729 -0.142753
C57   C     C_R   0.146373 0.900684 0.133641 -0.152495
C58   C     C_R   0.212560 0.880231 0.035818 -0.036622
C59   C     C_R   0.340680 0.898488 0.047253 -0.067853
C60   C     C_R   0.402342 0.938646 0.156263 -0.129172
H30   H     H_    0.155694 0.956533 0.318320 0.130278
H31   H     H_    0.046780 0.891020 0.123148 0.136278
H32   H     H_    0.164593 0.852345 0.950675 0.121696
H33   H     H_    0.391729 0.884604 0.971136 0.133355
H34   H     H_    0.500185 0.959760 0.162677 0.114011

loop_
_geom_bond_atom_site_label_1
_geom_bond_atom_site_label_2
_ccdc_geom_bond_type
C6    C32   A    
C21   C26   A    
C35   O14   S    
C49   C50   A    
C1    C8    S    
Cu1   N1    S    
C58   H32   S    
C51   C52   A    
C56   H30   S    
C12   O3    A    
C23   O6    A    
C27   O8    A    
C46   C47   A    
C16   C49   S    
C41   H18   S    
C31   H9    S    
C5    C6    A    
C24   N1    A    
C28   C29   A    
C15   H10   S    
C18   C19   A    
C47   H23   S    
C8    C11   A    
C30   C31   A    
C20   H6    S    
C42   O16   S    
C57   C58   A    
Cu1   O3    S    
C43   C48   A    
C28   H7    S    
C59   C60   A    
C2    C32   A    
C36   C41   A    
C3    C12   S    
C25   H3    S    
C37   C38   A    
C29   C42   S    
C6    C27   S    
C16   C17   A    
C58   C59   A    
C39   C40   A    
Cu2   N2    S    
C17   H2    S    
C9    C10   A    
C53   H28   S    
C7    C15   A    
C44   H20   S    
C4    H1    S    
C34   O11   D    
C18   C22   A    
C21   C22   A    
C50   C51   A    
C11   C34   S    
C55   C56   A    
C53   C54   A    
C57   H31   S    
Cu1   O7    S    
C19   N2    A    
C34   O12   S    
C36   C37   A    
C52   H27   S    
C45   C46   A    
C51   H26   S    
C1    O1    A    
C37   H14   S    
C59   H33   S    
C9    C14   A    
C29   C30   A    
C23   O5    A    
C44   C45   A    
C52   C53   A    
C33   O9    D    
Cu1   Cu2   S    
C38   H15   S    
C10   C33   S    
C19   H5    S    
C60   H34   S    
C7    C16   A    
Cu2   O8    S    
C24   C35   S    
C33   O10   S    
Cu1   O1    S    
C22   C24   A    
Cu2   O2    S    
C45   H21   S    
C26   C36   S    
C3    C4    A    
C25   N1    A    
C40   H17   S    
C48   H24   S    
C47   C48   A    
C42   O15   D    
C31   C32   A    
O16   H19   S    
Cu2   O4    S    
C12   O4    A    
C46   H22   S    
C27   O7    A    
C1    O2    A    
Cu1   O5    S    
C56   C57   A    
Cu2   O6    S    
C13   C17   A    
C2    C3    A    
C25   C26   A    
C40   C41   A    
C5    C43   S    
C11   C13   A    
O10   H11   S    
C55   C60   A    
C50   H25   S    
C9    C55   S    
C7    C23   S    
O14   H13   S    
C18   H4    S    
O12   H12   S    
C38   C39   A    
C35   O13   D    
C4    C5    A    
C20   C21   A    
C8    C10   A    
C43   C44   A    
C39   H16   S    
C14   C15   A    
C30   H8    S    
C2    C28   A    
C13   C14   A    
C49   C54   A    
C20   N2    A    
C54   H29   S    
