data_mof_unit_62313.cif
_audit_creation_date              2012-12-10T16:54:35-0500
_audit_creation_method            fapswitch 2.2
_symmetry_space_group_name_H-M    P1
_symmetry_Int_Tables_number       1
_space_group_crystal_system       triclinic
_cell_length_a                    18.900792
_cell_length_b                    18.959869
_cell_length_c                    18.714914
_cell_angle_alpha                 109.488551
_cell_angle_beta                  109.387836
_cell_angle_gamma                 109.976566
_cell_volume                      5134.45569016

loop_
_atom_site_label
_atom_site_type_symbol
_atom_type_description
_atom_site_fract_x
_atom_site_fract_y
_atom_site_fract_z
_atom_type_partial_charge
C1    C     C_R   0.377140 0.381100 0.496995 0.922237
C2    C     C_2   0.184158 0.520964 0.198776 -0.179039
C3    C     C_2   0.230592 0.481973 0.313176 0.040129
C4    C     C_R   0.619713 0.500743 0.620797 0.872855
C5    C     C_2   0.300106 0.481035 0.308588 -0.225915
C6    C     C_2   0.736503 0.748296 0.414056 -0.211650
C7    C     C_2   0.818002 0.797149 0.482157 -0.291185
C8    C     C_2   0.670705 0.677307 0.412559 -0.065915
C9    C     C_2   0.668983 0.689767 0.487925 -0.214431
C10   C     C_R   0.990359 0.381291 0.871315 0.962187
C11   C     C_R   0.874628 0.503448 0.877667 0.869826
C12   C     C_3   0.807905 0.504926 0.811376 -0.151023
C13   C     C_R   0.994897 0.618948 0.114217 0.936992
C14   C     C_R   0.115362 0.503908 0.118333 0.846528
C15   C     C_R   0.997453 0.116615 0.618996 1.009340
C16   C     C_R   0.615069 0.619677 0.496072 0.963599
C17   C     C_R   0.118718 0.113116 0.494691 0.956394
C18   C     C_R   0.002526 0.883313 0.381420 0.894440
C19   C     C_R   0.881472 0.875981 0.494629 0.987991
C20   C     C_2   0.917974 0.167901 0.683251 -0.106581
C21   C     C_2   0.994467 0.174745 0.690438 -0.205443
C22   C     C_2   0.918945 0.233273 0.753551 -0.208692
C23   C     C_3   0.851971 0.578621 0.791292 -0.295670
C24   C     C_2   0.978488 0.317241 0.793221 -0.305623
C25   C     C_2   0.076026 0.817945 0.323760 -0.135531
C26   C     C_2   0.005071 0.823928 0.311911 -0.310157
C27   C     C_2   0.074100 0.756957 0.249340 -0.139687
C28   C     C_R   0.375238 0.494331 0.378816 1.026650
C29   C     C_2   0.999747 0.682341 0.187091 -0.318325
C30   C     C_3   0.681935 0.412173 0.654750 -0.250917
C31   C     C_3   0.753174 0.413454 0.726775 -0.189099
C32   C     C_3   0.781796 0.575057 0.712398 -0.226799
C33   C     C_3   0.681785 0.531375 0.776513 -0.262323
C34   C     C_3   0.745987 0.521848 0.844462 -0.294427
C35   C     C_3   0.688862 0.504492 0.689933 -0.157112
C36   C     C_2   0.795547 0.667160 0.736505 0.963444
C37   C     C_2   0.913065 0.669394 0.873786 0.976024
C38   C     C_2   0.229074 0.222920 0.327672 0.963523
C39   C     C_2   0.288955 0.350383 0.568467 0.974778
C40   C     C_2   0.273239 0.595608 0.237942 0.428105
C41   C     C_2   0.212412 0.481047 0.384335 0.467224
C42   C     C_2   0.592223 0.335204 0.615689 0.479567
C43   C     C_2   0.606994 0.597132 0.325673 0.452049
C44   C     C_2   0.712837 0.779233 0.564343 0.938486
C45   C     C_2   0.165979 0.179105 0.415505 -0.132611
C46   C     C_2   0.830213 0.094370 0.609844 0.487451
C47   C     C_2   0.078306 0.232755 0.776468 0.399087
C48   C     C_2   0.807189 0.383888 0.694196 0.403265
C49   C     C_2   0.793872 0.548456 0.631341 0.884421
C50   C     C_2   0.590298 0.495624 0.764255 0.938575
C51   C     C_2   0.700923 0.455712 0.866652 0.499637
C52   C     C_2   0.185238 0.163647 0.482069 -0.313889
C53   C     C_2   0.235935 0.243286 0.414387 -0.089742
C54   C     C_2   0.299917 0.319105 0.490247 -0.249569
C55   C     C_2   0.163991 0.475943 0.238696 -0.277978
H1    H     H_    0.693165 0.398940 0.598191 0.169886
H2    H     H_    0.020857 0.339244 0.768298 0.170064
H3    H     H_    0.136139 0.859910 0.386714 0.180030
H4    H     H_    0.721825 0.364958 0.743377 0.207534
H5    H     H_    0.948537 0.789342 0.246750 0.169163
H6    H     H_    0.134140 0.771490 0.247661 0.180630
H7    H     H_    0.942434 0.662865 0.194128 0.169440
H8    H     H_    0.896705 0.563917 0.771857 0.200887
H9    H     H_    0.707145 0.602021 0.808548 0.244339
H10   H     H_    0.758238 0.755171 0.770978 0.376185
H11   H     H_    0.927983 0.771668 0.970870 0.360222
H12   H     H_    0.786354 0.584433 0.907567 0.217943
H13   H     H_    0.243403 0.265981 0.245439 0.344183
H14   H     H_    0.209647 0.364543 0.615215 0.353734
H15   H     H_    0.294854 0.611680 0.195626 0.091578
H16   H     H_    0.163770 0.496519 0.390603 0.066635
H17   H     H_    0.534464 0.340346 0.593266 0.105728
H18   H     H_    0.625453 0.581199 0.275974 0.072594
H19   H     H_    0.784170 0.858090 0.695673 0.349853
H20   H     H_    0.774722 0.103836 0.595831 0.107080
H21   H     H_    0.078156 0.252289 0.837902 0.088395
H22   H     H_    0.849582 0.422119 0.678161 0.129572
H23   H     H_    0.099085 0.147130 0.363330 0.188665
H24   H     H_    0.859829 0.514771 0.574024 0.360750
H25   H     H_    0.502011 0.523834 0.783456 0.383852
H26   H     H_    0.654110 0.388284 0.816386 0.116211
H27   H     H_    0.252727 0.189966 0.529616 0.167953
H28   H     H_    0.096383 0.430256 0.213973 0.172793
H29   H     H_    0.300893 0.467471 0.247705 0.134938
H30   H     H_    0.717188 0.761646 0.360784 0.185747
H31   H     H_    0.838662 0.778523 0.530937 0.171301
H32   H     H_    0.871690 0.211732 0.773627 0.196530
O1    O     O_R   0.410160 0.358490 0.449530 -0.623659
O2    O     O_R   0.947260 0.090430 0.537750 -0.593358
O3    O     O_R   0.142120 0.090460 0.551650 -0.609053
O4    O     O_R   0.408940 0.460590 0.550490 -0.578917
O5    O     O_R   0.038780 0.090460 0.448320 -0.616451
O6    O     O_R   0.052740 0.909570 0.462250 -0.620820
O7    O     O_R   0.949410 0.909570 0.358910 -0.633053
O8    O     O_R   0.961220 0.909540 0.551680 -0.626434
O9    O     O_R   0.857880 0.909540 0.448350 -0.582829
O10   O     O_R   0.592130 0.448950 0.541040 -0.626982
O11   O     O_R   0.590910 0.551050 0.642000 -0.560590
O12   O     O_R   0.046300 0.460610 0.904690 -0.617313
O13   O     O_R   0.591060 0.539410 0.449510 -0.553222
O14   O     O_R   0.589840 0.641510 0.550470 -0.608104
O15   O     O_R   0.409090 0.448950 0.358000 -0.595355
O16   O     O_R   0.407870 0.551050 0.458960 -0.588715
O17   O     O_R   0.944170 0.358540 0.904780 -0.611824
O18   O     O_2   0.860731 0.721430 0.744746 -0.567054
O19   O     O_R   0.737582 0.691600 0.751121 -0.758539
O20   O     O_2   0.991118 0.706159 0.899294 -0.565388
O21   O     O_R   0.880605 0.712093 0.918345 -0.824464
O22   O     O_2   0.198771 0.147615 0.272649 -0.606825
O23   O     O_R   0.851630 0.449030 0.902680 -0.606055
O24   O     O_R   0.252542 0.288540 0.306972 -0.791016
O25   O     O_2   0.350789 0.385939 0.642200 -0.606067
O26   O     O_R   0.208658 0.340806 0.557450 -0.762113
O27   O     O_2   0.321230 0.642225 0.317310 -0.538536
O28   O     O_2   0.247704 0.459622 0.433672 -0.548473
O29   O     O_2   0.582577 0.263840 0.601271 -0.531008
O30   O     O_2   0.532390 0.551540 0.306602 -0.561424
O31   O     O_2   0.707983 0.837528 0.552544 -0.556632
O32   O     O_R   0.757643 0.795498 0.649519 -0.781021
O33   O     O_2   0.817777 0.022017 0.568162 -0.529672
O34   O     O_R   0.953760 0.551100 0.902590 -0.614760
O35   O     O_2   0.148358 0.258885 0.779141 -0.531839
O36   O     O_2   0.802994 0.315500 0.685119 -0.555796
O37   O     O_2   0.748020 0.547871 0.566883 -0.605347
O38   O     O_R   0.859355 0.529864 0.631126 -0.824389
O39   O     O_2   0.541489 0.417854 0.731202 -0.638965
O40   O     O_R   0.562848 0.553834 0.792997 -0.746596
O41   O     O_2   0.716194 0.478197 0.941853 -0.548510
O42   O     O_R   0.942140 0.539520 0.083620 -0.603466
O43   O     O_R   0.044270 0.641590 0.083530 -0.606509
O44   O     O_R   0.034680 0.449030 0.085720 -0.613424
O45   O     O_R   0.136800 0.551100 0.085630 -0.638250
O46   O     O_R   0.050590 0.090430 0.641090 -0.589268
Zn1   Zn    Zn3+2 0.500810 0.431830 0.432590 1.071768
Zn2   Zn    Zn3+2 0.499190 0.568170 0.567410 1.119239
Zn3   Zn    Zn3+2 0.926030 0.431910 0.994210 1.026415
Zn4   Zn    Zn3+2 0.062410 0.568220 0.994100 1.038579
Zn5   Zn    Zn3+2 0.069000 1.000000 0.569000 1.041502
Zn6   Zn    Zn3+2 0.931000 1.000000 0.431000 1.030703

loop_
_geom_bond_atom_site_label_1
_geom_bond_atom_site_label_2
_ccdc_geom_bond_type
C43   H18   S    
C4    O11   A    
C27   C29   D    
O23   Zn3   S    
C18   C26   S    
C8    C43   S    
C48   O36   D    
C14   O45   A    
C53   C54   D    
H19   O32   S    
C12   C23   S    
H14   O26   S    
C34   C51   S    
C6    H30   S    
C40   H15   S    
C30   C35   S    
C51   O41   D    
C32   C36   S    
C13   C29   S    
C9    C16   S    
C41   O28   D    
C47   H21   S    
C37   O20   D    
C2    C55   D    
C30   C31   S    
C39   C54   S    
O34   Zn4   S    
C33   C50   S    
O42   Zn3   S    
C31   H4    S    
O16   Zn2   S    
O6    Zn5   S    
C27   H6    S    
C3    C55   S    
C40   O27   D    
C24   H2    S    
C39   O26   S    
C13   O43   A    
C45   H23   S    
C50   O39   D    
C51   H26   S    
C41   H16   S    
C1    O1    A    
C23   H8    S    
H24   O38   S    
C4    C35   S    
C45   C53   S    
O46   Zn5   S    
C1    O4    A    
C4    O10   A    
C11   O23   A    
O7    Zn6   S    
C11   O34   A    
C17   O5    A    
O10   Zn1   S    
O9    Zn6   S    
C17   C52   S    
C46   H20   S    
O3    Zn5   S    
O13   Zn1   S    
C14   O44   A    
O14   Zn2   S    
C36   O19   S    
C32   C35   S    
C37   O21   S    
O44   Zn3   S    
C5    H29   S    
C16   O13   A    
C47   O35   D    
C6    C8    S    
O8    Zn5   S    
C44   O32   S    
C10   C24   S    
O45   Zn4   S    
C23   C37   S    
C49   O37   D    
C30   H1    S    
O11   Zn2   S    
H13   O24   S    
C48   H22   S    
C1    C54   S    
O15   Zn1   S    
C28   O15   A    
C15   O2    A    
C5    C28   S    
C44   O31   D    
C42   H17   S    
C33   C34   S    
C8    C9    D    
C46   O33   D    
C22   H32   S    
C38   O22   D    
C52   H27   S    
C43   O30   D    
C42   O29   D    
C39   O25   D    
C20   C22   S    
C7    C19   S    
C31   C48   S    
C12   C31   S    
C18   O7    A    
C22   C24   D    
C25   H3    S    
C55   H28   S    
H10   O19   S    
C19   O8    A    
O2    Zn6   S    
C29   H7    S    
C3    C41   S    
C9    C44   S    
O17   Zn3   S    
C12   C34   S    
C36   O18   D    
O12   Zn4   S    
C17   O3    A    
H11   O21   S    
C3    C5    D    
C34   H12   S    
C11   C12   S    
C6    C7    D    
C15   O46   A    
H25   O40   S    
C25   C27   S    
C49   O38   S    
C45   C52   D    
C23   C32   S    
C10   O17   A    
C25   C26   D    
O1    Zn1   S    
O5    Zn6   S    
C28   O16   A    
C38   C53   S    
C33   H9    S    
C33   C35   S    
C10   O12   A    
C2    C14   S    
C32   C49   S    
C7    H31   S    
C2    C40   S    
C16   O14   A    
C15   C21   S    
O4    Zn2   S    
C20   C21   D    
C18   O6    A    
C13   O42   A    
C30   C42   S    
C50   O40   S    
C38   O24   S    
O43   Zn4   S    
C26   H5    S    
C20   C46   S    
C19   O9    A    
C21   C47   S    
