data_mof_unit_49197.cif
_audit_creation_date              2012-10-26T19:43:50-0400
_audit_creation_method            fapswitch 2.2
_symmetry_space_group_name_H-M    P1
_symmetry_Int_Tables_number       1
_space_group_crystal_system       triclinic
_cell_length_a                    12.385941
_cell_length_b                    13.194938
_cell_length_c                    13.852397
_cell_angle_alpha                 105.486029
_cell_angle_beta                  73.049816
_cell_angle_gamma                 116.970939
_cell_volume                      1905.76609432

loop_
_atom_site_label
_atom_site_type_symbol
_atom_type_description
_atom_site_fract_x
_atom_site_fract_y
_atom_site_fract_z
_atom_type_partial_charge
C1    C     C_R   0.144766 0.714340 0.510937 0.577434
C2    C     C_R   0.568553 0.012037 0.503865 0.034142
C3    C     C_R   0.613975 0.936583 0.428432 0.029339
C4    C     C_R   0.983649 0.504381 0.686593 0.536175
C5    C     C_R   0.532346 0.837212 0.379088 -0.092790
C6    C     C_R   0.407605 0.814707 0.400709 0.107677
C7    C     C_R   0.652339 0.126562 0.526680 -0.109123
C8    C     C_R   0.822909 0.082363 0.418524 -0.119376
C9    C     C_R   0.227718 0.838287 0.526290 -0.008827
C10   C     C_R   0.646874 0.686471 0.652180 0.048953
C11   C     C_R   0.250420 0.347840 0.365768 0.382596
C12   C     C_1   0.972970 0.507078 0.792412 -0.025995
C13   C     C_R   0.334595 0.298947 0.351351 0.092246
C14   C     C_R   0.430264 0.351586 0.406089 0.240045
C15   C     C_R   0.445938 0.457499 0.473175 -0.025782
C16   C     C_R   0.856180 0.286203 0.488880 0.543091
C17   C     C_R   0.347091 0.494078 0.495542 0.088075
C18   C     C_R   0.550169 0.524451 0.523968 -0.022447
C19   C     C_R   0.548206 0.620703 0.599909 -0.002723
C20   C     C_R   0.446840 0.649081 0.623939 -0.145632
C21   C     C_R   0.349093 0.587059 0.573874 -0.083397
C22   C     C_R   0.659033 0.503660 0.500516 0.009001
C23   C     C_R   0.741385 0.969420 0.392304 -0.120898
C24   C     C_R   0.741057 0.648993 0.635961 0.429687
C25   C     C_R   0.015160 0.494017 0.313331 0.566458
C26   C     C_1   0.024251 0.490209 0.207576 0.028922
C27   C     C_2   0.035169 0.486674 0.014085 -0.086918
C28   C     C_2   0.955179 0.511176 0.987389 0.114428
C29   C     C_1   0.964188 0.509182 0.881468 -0.025118
C30   C     C_1   0.030351 0.488025 0.119023 0.007263
C31   C     C_3   0.783130 0.668872 0.790978 -0.047128
C32   C     C_3   0.211666 0.330521 0.210142 -0.075307
C33   C     C_3   0.452154 0.224782 0.473105 -0.095302
C34   C     C_R   0.777017 0.162945 0.480059 -0.007118
C35   C     C_3   0.026850 0.931084 0.558162 -0.052738
C36   C     C_3   0.475177 0.063417 0.764118 -0.093811
C37   C     C_R   0.182333 0.915557 0.597836 0.207405
C38   C     C_R   0.262381 0.011410 0.651877 -0.091817
C39   C     C_R   0.387934 0.036022 0.631361 0.197571
C40   C     C_R   0.439176 0.975274 0.542840 -0.019869
C41   C     C_R   0.357188 0.874895 0.489509 -0.048418
Cu1   Cu    Cu3+1 0.899780 0.525060 0.522890 1.031570
Cu2   Cu    Cu3+1 0.100220 0.474940 0.477110 1.000975
H1    H     H_    0.439948 0.719035 0.683721 0.149845
H2    H     H_    0.861130 0.694432 0.829003 0.161306
H3    H     H_    0.730822 0.573732 0.786083 0.117392
H4    H     H_    0.722863 0.711817 0.840659 0.146966
H5    H     H_    0.269011 0.283767 0.162490 0.142280
H6    H     H_    0.268155 0.424995 0.213499 0.144223
H7    H     H_    0.135562 0.307522 0.170739 0.140621
H8    H     H_    0.492018 0.160129 0.450194 0.168286
H9    H     H_    0.476913 0.277518 0.546984 0.130864
H10   H     H_    0.349912 0.175966 0.482905 0.123183
H11   H     H_    0.045313 0.887810 0.478114 0.133799
H12   H     H_    0.676456 0.442772 0.436017 0.212967
H13   H     H_    0.077209 0.026280 0.562809 0.102877
H14   H     H_    0.926531 0.910753 0.579791 0.182230
H15   H     H_    0.529267 0.011773 0.720253 0.153450
H16   H     H_    0.385300 0.008018 0.807436 0.137741
H17   H     H_    0.528772 0.129945 0.820570 0.168195
H18   H     H_    0.275117 0.614068 0.601249 0.181583
H19   H     H_    0.106021 0.465510 0.956355 0.111825
H20   H     H_    0.920060 0.108608 0.383701 0.173392
H21   H     H_    0.567837 0.786594 0.313410 0.144413
H22   H     H_    0.776964 0.910811 0.337001 0.133192
H23   H     H_    0.620739 0.191766 0.571892 0.181549
H24   H     H_    0.225364 0.063456 0.714733 0.162233
I1    I     I_    0.813709 0.553383 0.094778 -0.351040
I2    I     I_    0.317396 0.720990 0.275531 -0.351131
I3    I     I_    0.665043 0.848763 0.747386 -0.426875
I4    I     I_    0.309152 0.136178 0.256194 -0.311849
N1    N     N_R   0.748810 0.563010 0.557590 -0.260580
N2    N     N_R   0.250540 0.437620 0.443020 -0.245148
O1    O     O_R   0.025040 0.682470 0.528790 -0.413751
O2    O     O_3   0.159328 0.297946 0.308430 -0.526941
O3    O     O_3   0.502994 0.293987 0.395708 -0.559666
O4    O     O_3   0.057578 0.890490 0.626342 -0.501568
O5    O     O_3   0.457502 0.119090 0.699859 -0.597934
O6    O     O_R   0.194310 0.640150 0.490130 -0.520387
O7    O     O_R   0.903380 0.524130 0.659910 -0.475475
O8    O     O_R   0.072660 0.481800 0.621240 -0.524395
O9    O     O_R   0.805690 0.359850 0.509870 -0.518684
O10   O     O_R   0.974960 0.317530 0.471210 -0.457618
O11   O     O_R   0.927340 0.518200 0.378760 -0.496199
O12   O     O_R   0.096620 0.475870 0.340090 -0.459649
O13   O     O_3   0.831794 0.704378 0.693813 -0.478042

loop_
_geom_bond_atom_site_label_1
_geom_bond_atom_site_label_2
_ccdc_geom_bond_type
Cu2   N2    S    
C6    I2    S    
Cu1   O7    S    
C12   C29   T    
C15   C18   A    
Cu2   O10   S    
C3    C23   A    
C2    C7    A    
Cu1   O9    S    
C36   H16   S    
C32   O2    S    
C33   H9    S    
C1    O1    A    
C28   C29   S    
C28   I1    S    
C4    O7    A    
C36   H15   S    
C38   C39   A    
Cu2   O6    S    
C8    C23   A    
C18   C19   A    
C22   N1    A    
C16   C34   S    
C4    O8    A    
C19   C20   A    
C6    C41   A    
C25   O11   A    
C4    C12   S    
C21   H18   S    
C31   O13   S    
C31   H4    S    
C13   C14   A    
C35   H11   S    
C17   N2    A    
C32   H5    S    
C25   O12   A    
C20   H1    S    
C33   H10   S    
Cu1   O1    S    
Cu2   O12   S    
C39   O5    S    
Cu1   O11   S    
C11   N2    A    
C39   C40   A    
C13   I4    S    
C10   C24   A    
C25   C26   S    
C37   O4    S    
C35   O4    S    
C16   O10   A    
C17   C21   A    
C5    H21   S    
C14   O3    S    
C37   C38   A    
C27   H19   S    
C33   O3    S    
C10   C19   A    
C9    C37   A    
C1    C9    S    
C8    C34   A    
C38   H24   S    
C32   H7    S    
C10   I3    S    
C40   C41   A    
C26   C30   T    
C1    O6    A    
C7    C34   A    
Cu1   Cu2   S    
C24   N1    A    
C15   C17   A    
C35   H13   S    
C18   C22   A    
C3    C5    A    
C22   H12   S    
C33   H8    S    
C9    C41   A    
C35   H14   S    
C23   H22   S    
C2    C3    A    
C36   O5    S    
C7    H23   S    
C11   C13   A    
C5    C6    A    
Cu2   O8    S    
C32   H6    S    
C8    H20   S    
C2    C40   A    
C20   C21   A    
C31   H3    S    
C16   O9    A    
C31   H2    S    
C27   C28   D    
C36   H17   S    
C14   C15   A    
C11   O2    S    
Cu1   N1    S    
C24   O13   S    
C27   C30   S    
