data_mof_unit_28323.cif
_audit_creation_date              2012-12-10T16:44:41-0500
_audit_creation_method            fapswitch 2.2
_symmetry_space_group_name_H-M    P1
_symmetry_Int_Tables_number       1
_space_group_crystal_system       triclinic
_cell_length_a                    14.949898
_cell_length_b                    8.716631
_cell_length_c                    7.442603
_cell_angle_alpha                 102.275608
_cell_angle_beta                  94.25557
_cell_angle_gamma                 92.39024
_cell_volume                      943.432570722

loop_
_atom_site_label
_atom_site_type_symbol
_atom_type_description
_atom_site_fract_x
_atom_site_fract_y
_atom_site_fract_z
_atom_type_partial_charge
C1    C     C_R   0.499604 0.201049 0.455146 0.865393
C2    C     C_R   0.500396 0.798951 0.544853 0.865395
C3    C     C_R   0.032332 0.217646 0.343715 0.238022
C4    C     C_R   0.967668 0.782353 0.656285 0.238022
C5    C     C_2   0.513107 0.038117 0.435142 0.018054
C6    C     C_2   0.486893 0.961883 0.564858 0.018054
C7    C     C_R   0.329056 0.498085 0.502245 0.787416
C8    C     C_R   0.670944 0.501915 0.497754 0.787416
C9    C     C_R   0.819455 0.639238 0.580322 -0.256285
C10   C     C_R   0.180545 0.360761 0.419677 -0.256285
C11   C     C_R   0.767139 0.504259 0.492368 -0.038133
C12   C     C_R   0.232861 0.495740 0.507632 -0.038133
C13   C     C_R   0.806227 0.370152 0.403363 -0.223039
C14   C     C_R   0.193772 0.629847 0.596638 -0.223039
C15   C     C_R   0.899314 0.366470 0.409679 0.069396
C16   C     C_R   0.100686 0.633529 0.590322 0.069397
C17   C     C_R   0.953226 0.502471 0.497127 0.020771
C18   C     C_R   0.046774 0.497528 0.502873 0.020771
C19   C     C_R   0.913243 0.643130 0.578003 0.046303
C20   C     C_R   0.086757 0.356869 0.421997 0.046303
C21   C     C_R   0.938411 0.226923 0.333931 -0.234141
C22   C     C_R   0.061589 0.773076 0.666070 -0.234141
Cu1   Cu    Cu3+1 0.510010 0.517380 0.684380 0.952774
Cu2   Cu    Cu3+1 0.489990 0.482620 0.315620 0.952774
H1    H     H_    0.785758 0.739368 0.650718 0.135724
H2    H     H_    0.214242 0.260632 0.349281 0.135723
H3    H     H_    0.763955 0.266969 0.335454 0.136932
H4    H     H_    0.236044 0.733030 0.664548 0.136931
H5    H     H_    0.894416 0.124648 0.272420 0.158139
H6    H     H_    0.105584 0.875350 0.727582 0.158139
H7    H     H_    0.427604 0.383046 0.949779 0.229179
H8    H     H_    0.572396 0.616954 0.050221 0.229179
N1    N     N_2   0.474890 0.456420 0.038520 -0.218034
N2    N     N_2   0.525110 0.543580 0.961480 -0.218034
O1    O     O_R   0.506510 0.286130 0.619770 -0.603879
O2    O     O_R   0.493490 0.713870 0.380230 -0.603879
O3    O     O_R   0.489600 0.256770 0.308360 -0.570954
O4    O     O_R   0.510400 0.743230 0.691640 -0.570954
O5    O     O_R   0.378710 0.514640 0.655720 -0.584372
O6    O     O_R   0.621290 0.485360 0.344280 -0.584373
O7    O     O_R   0.361800 0.485290 0.344300 -0.577577
O8    O     O_R   0.638200 0.514710 0.655700 -0.577576
N3    N     N_2   0.072740 0.070491 0.283272 -0.440785
H9    H     H_    0.129236 0.055197 0.364243 0.245774
C23   C     C_3   0.016765 0.925963 0.223612 -0.695928
H10   H     H_    0.059767 0.825799 0.181590 0.236975
H11   H     H_    0.970009 0.931383 0.102739 0.256877
H12   H     H_    0.978117 0.903489 0.337815 0.235111
N4    N     N_2   0.927260 0.929508 0.716727 -0.440785
H13   H     H_    0.870764 0.944802 0.635756 0.245774
C24   C     C_3   0.983235 0.074036 0.776387 -0.695928
H14   H     H_    0.940234 0.174200 0.818409 0.236975
H15   H     H_    0.021883 0.096510 0.662185 0.235111
H16   H     H_    0.029990 0.068616 0.897261 0.256877
N5    N     N_2   0.562777 0.968775 0.284599 -0.424871
H17   H     H_    0.528611 0.884348 0.181616 0.283413
C25   C     C_3   0.655888 0.942421 0.330488 -0.714449
H18   H     H_    0.689123 0.047146 0.428005 0.219006
H19   H     H_    0.661057 0.838445 0.393715 0.216520
H20   H     H_    0.691761 0.920840 0.202941 0.230668
N6    N     N_2   0.437223 0.031225 0.715401 -0.424872
H21   H     H_    0.471389 0.115652 0.818384 0.283413
C26   C     C_3   0.344112 0.057579 0.669512 -0.714438
H22   H     H_    0.308240 0.079174 0.797061 0.230665
H23   H     H_    0.310874 0.952849 0.572007 0.219006
H24   H     H_    0.338943 0.161547 0.606270 0.216516

loop_
_geom_bond_atom_site_label_1
_geom_bond_atom_site_label_2
_ccdc_geom_bond_type
C15   C21   A    
N5    H17   S    
C26   H23   S    
C22   H6    S    
Cu1   O4    S    
C4    C22   A    
C5    N5    S    
C2    O4    A    
C18   C20   A    
Cu2   N1    S    
C1    O3    A    
C4    N4    S    
N3    H9    S    
C24   H16   S    
C14   H4    S    
C10   H2    S    
N4    C24   S    
C13   C15   A    
Cu2   O3    S    
C25   H20   S    
C26   H24   S    
C9    H1    S    
C3    C20   A    
N5    C25   S    
C2    C6    S    
C23   H10   S    
Cu2   O7    S    
N3    C23   S    
C3    N3    S    
C25   H18   S    
Cu2   O2    S    
Cu1   O8    S    
C10   C12   A    
C8    C11   S    
C1    C5    S    
C9    C11   A    
C6    N6    S    
C17   C19   A    
C8    O8    A    
C17   C18   A    
Cu1   O1    S    
C23   H11   S    
C5    C6    D    
C14   C16   A    
C7    C12   S    
C3    C21   A    
C25   H19   S    
N6    H21   S    
C9    C19   A    
Cu1   Cu2   S    
C26   H22   S    
C12   C14   A    
C11   C13   A    
N1    N2    D    
C1    O1    A    
C16   C18   A    
N4    H13   S    
H7    N1    S    
C2    O2    A    
C8    O6    A    
C15   C17   A    
C7    O5    A    
C13   H3    S    
Cu1   N2    S    
C16   C22   A    
C23   H12   S    
Cu2   O6    S    
C4    C19   A    
C21   H5    S    
Cu1   O5    S    
N6    C26   S    
C24   H14   S    
C7    O7    A    
C10   C20   A    
C24   H15   S    
H8    N2    S    
