data_mof_unit_25573.cif
_audit_creation_date              2012-12-10T16:49:24-0500
_audit_creation_method            fapswitch 2.2
_symmetry_space_group_name_H-M    P1
_symmetry_Int_Tables_number       1
_space_group_crystal_system       triclinic
_cell_length_a                    19.291347
_cell_length_b                    8.745724
_cell_length_c                    7.433403
_cell_angle_alpha                 102.61935
_cell_angle_beta                  94.422646
_cell_angle_gamma                 92.554486
_cell_volume                      1217.76602813

loop_
_atom_site_label
_atom_site_type_symbol
_atom_type_description
_atom_site_fract_x
_atom_site_fract_y
_atom_site_fract_z
_atom_type_partial_charge
C1    C     C_R   0.499141 0.200498 0.454616 0.830508
C2    C     C_R   0.500912 0.799184 0.545790 0.880275
C3    C     C_2   0.508313 0.036175 0.433674 0.018374
C4    C     C_2   0.492778 0.963216 0.569828 0.033649
C5    C     C_R   0.367754 0.502838 0.502267 0.802156
C6    C     C_R   0.632234 0.497149 0.497721 0.803759
C7    C     C_R   0.257972 0.430482 0.621976 -0.271739
C8    C     C_R   0.741998 0.569902 0.378398 -0.271911
C9    C     C_R   0.185866 0.430489 0.623503 -0.163012
C10   C     C_R   0.814092 0.569697 0.376677 -0.163874
C11   C     C_R   0.146962 0.510906 0.510462 0.022965
C12   C     C_R   0.852961 0.488679 0.489107 0.022793
C13   C     C_R   0.181608 0.594001 0.398767 -0.215979
C14   C     C_R   0.818289 0.405146 0.600333 -0.215613
C15   C     C_R   0.253899 0.592610 0.394288 0.233165
C16   C     C_R   0.746007 0.406684 0.604966 0.234854
C17   C     C_R   0.292281 0.509349 0.506300 -0.048446
C18   C     C_R   0.707679 0.490560 0.493602 -0.051846
C19   C     C_R   0.929451 0.493291 0.493272 0.425551
C20   C     C_R   0.070470 0.506198 0.506219 0.425547
Cu1   Cu    Cu3+1 0.507710 0.517380 0.684380 0.953876
Cu2   Cu    Cu3+1 0.492290 0.482620 0.315620 0.954405
N1    N     N_R   0.032688 0.579979 0.392869 -0.236928
N2    N     N_R   0.967232 0.419498 0.606612 -0.236952
N3    N     N_R   0.963549 0.573852 0.386680 -0.238315
N4    N     N_R   0.036371 0.425630 0.612806 -0.238318
N5    N     N_2   0.480680 0.456420 0.038530 -0.219157
N6    N     N_2   0.519320 0.543580 0.961470 -0.208262
O1    O     O_R   0.505010 0.286130 0.619770 -0.587174
O2    O     O_R   0.494990 0.713870 0.380230 -0.554799
O3    O     O_R   0.491990 0.256780 0.308370 -0.596155
O4    O     O_R   0.508010 0.743220 0.691630 -0.577115
O5    O     O_R   0.406650 0.514660 0.655750 -0.596766
O6    O     O_R   0.593350 0.485340 0.344250 -0.599141
O7    O     O_R   0.393640 0.485310 0.344340 -0.559219
O8    O     O_R   0.606360 0.514690 0.655660 -0.561411
H1    H     H_    0.286911 0.366058 0.708498 0.146115
H2    H     H_    0.713068 0.634894 0.292494 0.148505
H3    H     H_    0.160665 0.366320 0.712165 0.162785
H4    H     H_    0.839316 0.634242 0.288424 0.162945
H5    H     H_    0.152735 0.659061 0.312914 0.160296
H6    H     H_    0.847133 0.339614 0.685672 0.160229
N7    N     N_2   0.288106 0.681269 0.284023 -0.433494
H7    H     H_    0.274485 0.796227 0.307494 0.240787
C21   C     C_3   0.282357 0.608388 0.088619 -0.615448
H8    H     H_    0.227473 0.603975 0.029047 0.212304
H9    H     H_    0.300434 0.487365 0.065707 0.234253
H10   H     H_    0.315388 0.677866 0.015562 0.236126
N8    N     N_2   0.711740 0.317530 0.714619 -0.434078
H11   H     H_    0.725244 0.202472 0.690375 0.241269
C22   C     C_3   0.717523 0.389601 0.910266 -0.624244
H12   H     H_    0.772399 0.393633 0.969762 0.214579
H13   H     H_    0.684441 0.319778 0.982818 0.230091
H14   H     H_    0.699521 0.510709 0.933955 0.235583
N9    N     N_2   0.539468 0.956941 0.273286 -0.414985
H15   H     H_    0.522428 0.988957 0.152580 0.280086
C23   C     C_3   0.614634 0.957679 0.298161 -0.710837
H16   H     H_    0.634284 0.887613 0.171201 0.220021
H17   H     H_    0.631051 0.904350 0.416061 0.217776
H18   H     H_    0.638044 0.079866 0.324133 0.224457
N10   N     N_2   0.462421 0.036864 0.733788 -0.433952
H19   H     H_    0.492471 0.123249 0.827503 0.278037
C24   C     C_3   0.388495 0.057702 0.712779 -0.691251
H20   H     H_    0.369585 0.100735 0.851081 0.220474
H21   H     H_    0.359690 0.943917 0.646686 0.231514
H22   H     H_    0.377650 0.144648 0.627162 0.211567
H23   H     H_    0.443634 0.383388 0.949525 0.222108
H24   H     H_    0.555992 0.617594 0.050717 0.236637

loop_
_geom_bond_atom_site_label_1
_geom_bond_atom_site_label_2
_ccdc_geom_bond_type
Cu1   O1    S    
C7    C17   A    
C2    C4    S    
N7    H7    S    
C24   H21   S    
C15   C17   A    
Cu1   O4    S    
N7    C21   S    
C20   N1    A    
C2    O2    A    
C8    C10   A    
C14   H6    S    
C22   H14   S    
C16   C18   A    
N9    H15   S    
C13   C15   A    
C19   N2    A    
C7    H1    S    
C24   H22   S    
C15   N7    S    
Cu1   O8    S    
Cu2   O2    S    
Cu1   Cu2   S    
C5    C17   S    
Cu2   O7    S    
C9    C11   A    
C23   H16   S    
C20   N4    A    
C8    H2    S    
C19   N3    A    
C10   C12   A    
C12   C19   S    
C13   H5    S    
N6    H24   S    
Cu1   N6    S    
C6    O8    A    
C7    C9    A    
Cu2   N5    S    
N9    C23   S    
N10   H19   S    
Cu2   O6    S    
C6    C18   S    
C14   C16   A    
C11   C20   S    
C23   H17   S    
C11   C13   A    
N5    H23   S    
Cu2   O3    S    
C1    O1    A    
C10   H4    S    
C22   H12   S    
C5    O7    A    
C12   C14   A    
C1    O3    A    
N1    N3    A    
Cu1   O5    S    
C16   N8    S    
C2    O4    A    
N8    H11   S    
C21   H9    S    
N5    N6    D    
N10   C24   S    
N8    C22   S    
C23   H18   S    
C21   H10   S    
C22   H13   S    
C21   H8    S    
C3    N9    S    
C4    N10   S    
C9    H3    S    
C8    C18   A    
C3    C4    D    
C6    O6    A    
N2    N4    A    
C24   H20   S    
C1    C3    S    
C5    O5    A    
