data_mof_unit_63903.cif
_audit_creation_date              2012-12-10T16:51:48-0500
_audit_creation_method            fapswitch 2.2
_symmetry_space_group_name_H-M    P1
_symmetry_Int_Tables_number       1
_space_group_crystal_system       triclinic
_cell_length_a                    30.146303
_cell_length_b                    30.491982
_cell_length_c                    21.903722
_cell_angle_alpha                 89.999987
_cell_angle_beta                  134.928486
_cell_angle_gamma                 90.000016
_cell_volume                      14254.8951191

loop_
_atom_site_label
_atom_site_type_symbol
_atom_type_description
_atom_site_fract_x
_atom_site_fract_y
_atom_site_fract_z
_atom_type_partial_charge
C1    C     C_R   0.688219 0.809814 0.881498 0.977291
C2    C     C_R   0.522302 0.669532 0.998434 -0.205305
C3    C     C_R   0.662104 0.249452 0.997843 0.944189
C4    C     C_R   0.407162 0.789445 0.999324 -0.224195
C5    C     C_R   0.592838 0.789445 0.000676 -0.224195
C6    C     C_R   0.907162 0.289445 0.999324 -0.224195
C7    C     C_R   0.092838 0.289445 0.000676 -0.224195
C8    C     C_R   0.385760 0.749575 0.002056 -0.044780
C9    C     C_R   0.614240 0.749575 0.997944 -0.044780
C10   C     C_R   0.885760 0.249575 0.002056 -0.044780
C11   C     C_R   0.114240 0.249575 0.997944 -0.044779
C12   C     C_R   0.409860 0.709653 0.004724 -0.241458
C13   C     C_R   0.977698 0.169532 0.001565 -0.205305
C14   C     C_R   0.590140 0.709653 0.995276 -0.241458
C15   C     C_R   0.909860 0.209653 0.004723 -0.241459
C16   C     C_R   0.090140 0.209653 0.995276 -0.241460
C17   C     C_R   0.454891 0.709293 0.002528 0.121400
C18   C     C_R   0.545108 0.709293 0.997472 0.121400
C19   C     C_R   0.954891 0.209293 0.002528 0.121400
C20   C     C_R   0.045108 0.209293 0.997472 0.121400
C21   C     C_R   0.477133 0.749516 0.000644 0.059385
C22   C     C_R   0.522867 0.749516 0.999356 0.059385
C23   C     C_R   0.977133 0.249517 0.000644 0.059385
C24   C     C_R   0.022302 0.169532 0.998434 -0.205306
C25   C     C_R   0.022867 0.249517 0.999356 0.059385
C26   C     C_2   0.030044 0.748240 0.832045 0.402717
C27   C     C_2   0.969956 0.748241 0.167955 0.402720
C28   C     C_2   0.530044 0.248239 0.832045 0.402716
C29   C     C_2   0.469956 0.248242 0.167955 0.402720
C30   C     C_2   0.845136 0.608391 0.290201 0.421516
C31   C     C_2   0.154865 0.608390 0.709802 0.421516
C32   C     C_2   0.345139 0.108393 0.290206 0.421514
C33   C     C_2   0.654865 0.108390 0.709801 0.421515
C34   C     C_2   0.548137 0.804943 0.729377 0.420131
C35   C     C_R   0.523280 0.829520 0.000347 -0.206204
C36   C     C_2   0.451863 0.804943 0.270624 0.420132
C37   C     C_2   0.048137 0.304943 0.729378 0.420130
C38   C     C_2   0.951863 0.304943 0.270622 0.420131
C39   C     C_R   0.476720 0.829520 0.999653 -0.206204
C40   C     C_R   0.023280 0.329520 0.000347 -0.206204
C41   C     C_R   0.976720 0.329520 0.999653 -0.206204
C42   C     C_2   0.558095 0.877609 0.685588 -0.250941
C43   C     C_2   0.441905 0.877608 0.314413 -0.250939
C44   C     C_2   0.058095 0.377609 0.685588 -0.250941
C45   C     C_R   0.311781 0.809814 0.118502 0.977290
C46   C     C_2   0.941905 0.377609 0.314412 -0.250939
C47   C     C_2   0.588643 0.902103 0.674154 -0.344845
C48   C     C_2   0.411357 0.902102 0.325846 -0.344846
C49   C     C_2   0.088643 0.402102 0.674154 -0.344845
C50   C     C_2   0.911357 0.402102 0.325846 -0.344845
C51   C     C_2   0.589032 0.841074 0.746930 0.022587
C52   C     C_2   0.410968 0.841074 0.253071 0.022587
C53   C     C_2   0.089032 0.341074 0.746930 0.022587
C54   C     C_2   0.910968 0.341074 0.253070 0.022587
C55   C     C_2   0.651092 0.844114 0.818221 -0.352110
C56   C     C_R   0.188219 0.309814 0.881498 0.977291
C57   C     C_2   0.348908 0.844114 0.181779 -0.352110
C58   C     C_2   0.151092 0.344114 0.818221 -0.352110
C59   C     C_2   0.848908 0.344114 0.181779 -0.352109
C60   C     C_R   0.130960 0.749241 0.073494 -0.297316
C61   C     C_R   0.869040 0.749240 0.926506 -0.297316
C62   C     C_R   0.630960 0.249241 0.073494 -0.297316
C63   C     C_R   0.369040 0.249240 0.926506 -0.297316
C64   C     C_R   0.112720 0.749168 0.994771 -0.089650
C65   C     C_R   0.887280 0.749168 0.005229 -0.089650
C66   C     C_R   0.612720 0.249168 0.994771 -0.089649
C67   C     C_R   0.811781 0.309814 0.118502 0.977291
C68   C     C_R   0.387280 0.249168 0.005229 -0.089651
C69   C     C_R   0.048854 0.750150 0.915682 -0.063089
C70   C     C_R   0.951145 0.750150 0.084318 -0.063089
C71   C     C_R   0.548854 0.250149 0.915682 -0.063088
C72   C     C_R   0.451145 0.250151 0.084317 -0.063089
C73   C     C_R   0.662800 0.749777 0.999398 0.937875
C74   C     C_R   0.337200 0.749777 0.000602 0.937875
C75   C     C_R   0.162800 0.249777 0.999398 0.937875
C76   C     C_R   0.837200 0.249777 0.000602 0.937876
C77   C     C_R   0.003124 0.751393 0.917564 0.032245
C78   C     C_R   0.453585 0.789756 0.999924 0.114933
C79   C     C_R   0.996876 0.751394 0.082436 0.032245
C80   C     C_R   0.503124 0.251393 0.917564 0.032245
C81   C     C_R   0.496876 0.251395 0.082436 0.032245
C82   C     C_R   0.022407 0.751541 0.998343 0.066908
C83   C     C_R   0.977593 0.751541 0.001656 0.066908
C84   C     C_R   0.522407 0.251541 0.998343 0.066908
C85   C     C_R   0.477593 0.251541 0.001656 0.066908
C86   C     C_R   0.086475 0.750620 0.075980 0.126870
C87   C     C_R   0.913525 0.750620 0.924019 0.126869
C88   C     C_R   0.586475 0.250621 0.075980 0.126870
C89   C     C_R   0.546415 0.789756 0.000075 0.114933
C90   C     C_R   0.413525 0.250619 0.924019 0.126870
C91   C     C_R   0.938647 0.750905 0.841155 -0.219735
C92   C     C_R   0.061353 0.750906 0.158845 -0.219735
C93   C     C_R   0.438647 0.250904 0.841155 -0.219735
C94   C     C_R   0.561353 0.250907 0.158845 -0.219735
C95   C     C_R   0.894468 0.750589 0.844564 -0.195627
C96   C     C_R   0.105532 0.750590 0.155436 -0.195628
C97   C     C_R   0.394468 0.250588 0.844564 -0.195627
C98   C     C_R   0.605532 0.250591 0.155436 -0.195627
C99   C     C_2   0.940412 0.627533 0.321834 -0.196343
C100  C     C_R   0.953585 0.289756 0.999924 0.114933
C101  C     C_2   0.059588 0.627533 0.678166 -0.196343
C102  C     C_2   0.440412 0.127533 0.321833 -0.196343
C103  C     C_2   0.559588 0.127533 0.678166 -0.196342
C104  C     C_2   0.909376 0.599331 0.328124 -0.183934
C105  C     C_2   0.090624 0.599330 0.671876 -0.183934
C106  C     C_2   0.409377 0.099331 0.328126 -0.183934
C107  C     C_2   0.590624 0.099330 0.671876 -0.183933
C108  C     C_2   0.907731 0.663888 0.260222 -0.025722
C109  C     C_2   0.092269 0.663888 0.739777 -0.025723
C110  C     C_2   0.407731 0.163887 0.260221 -0.025722
C111  C     C_R   0.046415 0.289756 0.000075 0.114933
C112  C     C_2   0.592269 0.163888 0.739777 -0.025722
C113  C     C_2   0.852431 0.655887 0.180191 -0.254678
C114  C     C_2   0.147568 0.655887 0.819809 -0.254675
C115  C     C_2   0.352431 0.155887 0.180191 -0.254684
C116  C     C_2   0.647568 0.155887 0.819809 -0.254674
C117  C     C_R   0.059038 0.560898 0.616596 0.849162
C118  C     C_R   0.940962 0.560898 0.383404 0.849161
C119  C     C_R   0.559038 0.060898 0.616596 0.849162
C120  C     C_R   0.440962 0.060898 0.383404 0.849160
C121  C     C_R   0.812701 0.690204 0.118229 0.983273
C122  C     C_R   0.477698 0.669532 0.001566 -0.205305
C123  C     C_R   0.187298 0.690204 0.881771 0.983275
C124  C     C_R   0.312701 0.190204 0.118229 0.983270
C125  C     C_R   0.687298 0.190204 0.881771 0.983275
C126  C     C_R   0.558628 0.939236 0.616484 0.943254
C127  C     C_R   0.441372 0.939236 0.383515 0.943254
C128  C     C_R   0.058628 0.439236 0.616484 0.943254
C129  C     C_R   0.941372 0.439236 0.383515 0.943253
C130  C     C_R   0.837896 0.749452 0.002157 0.944188
C131  C     C_R   0.162104 0.749452 0.997843 0.944188
C132  C     C_R   0.337895 0.249452 0.002157 0.944188
H1    H     H_    0.388218 0.820107 0.997981 0.151135
H2    H     H_    0.071854 0.696499 0.719237 0.191289
H3    H     H_    0.428148 0.196498 0.280761 0.191294
H4    H     H_    0.571854 0.196499 0.719237 0.191289
H5    H     H_    0.460769 0.638503 0.002710 0.149729
H6    H     H_    0.539230 0.638503 0.997290 0.149730
H7    H     H_    0.960769 0.138503 0.002710 0.149730
H8    H     H_    0.039230 0.138503 0.997290 0.149729
H9    H     H_    0.540975 0.860551 0.000680 0.151058
H10   H     H_    0.459024 0.860551 0.999320 0.151059
H11   H     H_    0.040975 0.360551 0.000680 0.151058
H12   H     H_    0.611782 0.820107 0.002019 0.151135
H13   H     H_    0.959024 0.360551 0.999320 0.151058
H14   H     H_    0.635538 0.893611 0.704501 0.154177
H15   H     H_    0.364461 0.893611 0.295498 0.154177
H16   H     H_    0.135538 0.393611 0.704501 0.154177
H17   H     H_    0.864462 0.393611 0.295499 0.154177
H18   H     H_    0.993719 0.769760 0.779384 0.052645
H19   H     H_    0.006281 0.769762 0.220616 0.052645
H20   H     H_    0.493719 0.269759 0.779383 0.052646
H21   H     H_    0.506280 0.269763 0.220615 0.052645
H22   H     H_    0.921399 0.749994 0.778031 0.140418
H23   H     H_    0.888218 0.320107 0.997981 0.151135
H24   H     H_    0.078601 0.749995 0.221969 0.140418
H25   H     H_    0.421399 0.249992 0.778031 0.140418
H26   H     H_    0.578601 0.249997 0.221969 0.140417
H27   H     H_    0.990034 0.623270 0.360774 0.172778
H28   H     H_    0.009966 0.623271 0.639224 0.172777
H29   H     H_    0.490034 0.123269 0.360770 0.172779
H30   H     H_    0.509966 0.123271 0.639224 0.172777
H31   H     H_    0.814129 0.581232 0.270728 0.061565
H32   H     H_    0.185872 0.581230 0.729275 0.061565
H33   H     H_    0.314131 0.081236 0.270736 0.061568
H34   H     H_    0.111782 0.320107 0.002019 0.151135
H35   H     H_    0.685871 0.081231 0.729274 0.061565
H36   H     H_    0.835736 0.622344 0.159110 0.126695
H37   H     H_    0.164263 0.622344 0.840890 0.126696
H38   H     H_    0.335735 0.122344 0.159110 0.126695
H39   H     H_    0.664263 0.122344 0.840890 0.126695
H40   H     H_    0.392284 0.679033 0.006164 0.148145
H41   H     H_    0.607716 0.679033 0.993836 0.148144
H42   H     H_    0.892284 0.179033 0.006164 0.148145
H43   H     H_    0.107716 0.179033 0.993836 0.148144
H44   H     H_    0.509158 0.884055 0.648521 0.172974
H45   H     H_    0.845171 0.749840 0.784749 0.146757
H46   H     H_    0.490842 0.884054 0.351480 0.172973
H47   H     H_    0.009158 0.384055 0.648521 0.172974
H48   H     H_    0.990842 0.384055 0.351479 0.172973
H49   H     H_    0.502885 0.799775 0.663955 0.050143
H50   H     H_    0.497114 0.799774 0.336047 0.050142
H51   H     H_    0.002885 0.299775 0.663956 0.050143
H52   H     H_    0.997116 0.299775 0.336045 0.050142
H53   H     H_    0.675887 0.874626 0.833796 0.138284
H54   H     H_    0.324113 0.874626 0.166204 0.138285
H55   H     H_    0.175888 0.374626 0.833796 0.138284
H56   H     H_    0.154829 0.749842 0.215251 0.146757
H57   H     H_    0.824112 0.374626 0.166204 0.138283
H58   H     H_    0.180371 0.748838 0.133338 0.156436
H59   H     H_    0.819629 0.748838 0.866662 0.156436
H60   H     H_    0.680371 0.248839 0.133338 0.156435
H61   H     H_    0.319629 0.248837 0.866662 0.156437
H62   H     H_    0.345171 0.249839 0.784748 0.146757
H63   H     H_    0.654829 0.249843 0.215251 0.146757
H64   H     H_    0.928146 0.696499 0.280762 0.191291
O1    O     O_R   0.679230 0.769690 0.858450 -0.586301
O2    O     O_R   0.492070 0.954750 0.409550 -0.614254
O3    O     O_R   0.007930 0.454750 0.590450 -0.614255
O4    O     O_R   0.992070 0.454750 0.409550 -0.614255
O5    O     O_R   0.582530 0.954770 0.590430 -0.629579
O6    O     O_R   0.417470 0.954770 0.409570 -0.629580
O7    O     O_R   0.082530 0.454770 0.590430 -0.629579
O8    O     O_R   0.917470 0.454770 0.409570 -0.629579
O9    O     O_R   0.730270 0.820760 0.960570 -0.639939
O10   O     O_R   0.269730 0.820760 0.039430 -0.639939
O11   O     O_R   0.230270 0.320760 0.960570 -0.639939
O12   O     O_R   0.320770 0.769690 0.141550 -0.586302
O13   O     O_R   0.769730 0.320760 0.039430 -0.639939
O14   O     O_R   0.658400 0.724440 0.948940 -0.593327
O15   O     O_R   0.341600 0.724440 0.051060 -0.593327
O16   O     O_R   0.158400 0.224440 0.948940 -0.593327
O17   O     O_R   0.841600 0.224440 0.051060 -0.593327
O18   O     O_R   0.709450 0.775510 0.051050 -0.631662
O19   O     O_R   0.290550 0.775510 0.948950 -0.631662
O20   O     O_R   0.209450 0.275510 0.051050 -0.631661
O21   O     O_R   0.790550 0.275510 0.948950 -0.631662
O22   O     O_R   0.769710 0.679220 0.039380 -0.643847
O23   O     O_R   0.179230 0.269690 0.858450 -0.586301
O24   O     O_R   0.230290 0.679220 0.960620 -0.643847
O25   O     O_R   0.269710 0.179220 0.039380 -0.643847
O26   O     O_R   0.730290 0.179220 0.960620 -0.643847
O27   O     O_R   0.820750 0.730290 0.141500 -0.595806
O28   O     O_R   0.179250 0.730290 0.858500 -0.595807
O29   O     O_R   0.320750 0.230290 0.141500 -0.595803
O30   O     O_R   0.679250 0.230290 0.858500 -0.595807
O31   O     O_R   0.790530 0.724470 0.948890 -0.634414
O32   O     O_R   0.209470 0.724470 0.051110 -0.634414
O33   O     O_R   0.290530 0.224470 0.948890 -0.634414
O34   O     O_R   0.820770 0.269690 0.141550 -0.586302
O35   O     O_R   0.709470 0.224470 0.051110 -0.634414
O36   O     O_R   0.841580 0.775540 0.051010 -0.617971
O37   O     O_R   0.158420 0.775540 0.948990 -0.617971
O38   O     O_R   0.341580 0.275540 0.051010 -0.617971
O39   O     O_R   0.658420 0.275540 0.948990 -0.617972
O40   O     O_R   0.007900 0.545210 0.590430 -0.605619
O41   O     O_R   0.992100 0.545210 0.409570 -0.605618
O42   O     O_R   0.507900 0.045210 0.590430 -0.605619
O43   O     O_R   0.492100 0.045210 0.409570 -0.605618
O44   O     O_2   0.054155 0.721838 0.820846 -0.597469
O45   O     O_R   0.082500 0.545230 0.590410 -0.629189
O46   O     O_2   0.945845 0.721838 0.179154 -0.597470
O47   O     O_2   0.554156 0.221837 0.820847 -0.597470
O48   O     O_2   0.445846 0.221839 0.179155 -0.597471
O49   O     O_2   0.827847 0.645664 0.284989 -0.554950
O50   O     O_2   0.172155 0.645663 0.715014 -0.554951
O51   O     O_2   0.327852 0.145667 0.284996 -0.554948
O52   O     O_2   0.672154 0.145663 0.715013 -0.554950
O53   O     O_2   0.562440 0.782330 0.787095 -0.564738
O54   O     O_2   0.437560 0.782330 0.212905 -0.564737
O55   O     O_2   0.062440 0.282330 0.787096 -0.564738
O56   O     O_R   0.917500 0.545230 0.409590 -0.629190
O57   O     O_2   0.937559 0.282330 0.212903 -0.564738
O58   O     O_R   0.582500 0.045230 0.590410 -0.629189
O59   O     O_R   0.417500 0.045230 0.409590 -0.629191
O60   O     O_R   0.507930 0.954750 0.590450 -0.614255
Zn1   Zn    Zn3+2 0.715910 0.715890 0.931790 0.997467
Zn2   Zn    Zn3+2 0.549820 0.999980 0.500010 0.961206
Zn3   Zn    Zn3+2 0.950180 0.499980 0.499990 0.961205
Zn4   Zn    Zn3+2 0.049820 0.499980 0.500010 0.961206
Zn5   Zn    Zn3+2 0.284090 0.715890 0.068210 0.997467
Zn6   Zn    Zn3+2 0.215910 0.215890 0.931790 0.997467
Zn7   Zn    Zn3+2 0.784090 0.215890 0.068210 0.997468
Zn8   Zn    Zn3+2 0.784070 0.784090 0.068160 0.988362
Zn9   Zn    Zn3+2 0.215930 0.784090 0.931840 0.988361
Zn10  Zn    Zn3+2 0.284070 0.284090 0.068160 0.988363
Zn11  Zn    Zn3+2 0.715930 0.284090 0.931840 0.988361
Zn12  Zn    Zn3+2 0.450180 0.999980 0.499990 0.961204

loop_
_geom_bond_atom_site_label_1
_geom_bond_atom_site_label_2
_ccdc_geom_bond_type
C44   C49   D    
C108  C113  D    
C114  H37   S    
C83   C87   A    
C123  O24   A    
C48   H15   S    
C43   H46   S    
C45   O10   A    
C30   O49   D    
C99   H27   S    
C74   O19   A    
C2    C18   A    
C121  O22   A    
C96   H56   S    
O43   Zn2   S    
C69   C77   A    
O24   Zn5   S    
C33   C107  S    
O2    Zn2   S    
O32   Zn5   S    
C80   C84   A    
C132  O33   A    
C113  H36   S    
C65   C130  S    
C40   H11   S    
C82   C86   A    
C12   H40   S    
C125  O26   A    
C24   H8    S    
O14   Zn1   S    
C15   C19   A    
C99   C108  S    
O16   Zn6   S    
C34   C51   S    
C34   H49   S    
C13   H7    S    
O18   Zn8   S    
C16   C20   A    
O45   Zn4   S    
C112  H4    S    
C14   H41   S    
C10   C15   A    
O8    Zn3   S    
C43   C52   S    
O38   Zn10  S    
C20   C25   A    
C94   C98   A    
C101  C109  S    
C65   C70   A    
C37   H51   S    
O10   Zn9   S    
C75   O20   A    
C92   C96   A    
C38   H52   S    
C33   O52   D    
C68   C132  S    
C14   C18   A    
O5    Zn2   S    
C71   C80   A    
C61   C87   A    
C3    O39   A    
C31   H32   S    
C129  O8    A    
C10   C76   S    
C131  O32   A    
C95   H45   S    
O3    Zn3   S    
C20   C24   A    
C101  H28   S    
C7    C111  A    
O21   Zn11  S    
C87   C95   A    
C21   C78   A    
C36   O54   D    
C63   H61   S    
C31   O50   D    
O26   Zn7   S    
C28   O47   D    
C108  H64   S    
C1    O9    A    
C43   C48   D    
C90   C97   A    
C51   C55   D    
C72   C81   A    
C36   C52   S    
C4    C8    A    
C42   C51   S    
C29   C72   S    
C37   C53   S    
C23   C25   A    
C23   C100  A    
O60   Zn12  S    
C47   H14   S    
C27   O46   D    
C94   H26   S    
C32   C106  S    
C21   C22   A    
C101  C105  D    
C31   C105  S    
C105  C117  S    
C110  H3    S    
C33   H35   S    
O23   Zn6   S    
C9    C73   S    
C30   H31   S    
O19   Zn9   S    
C115  H38   S    
C44   C53   S    
C44   H47   S    
C107  C119  S    
O27   Zn8   S    
C81   C85   A    
O4    Zn4   S    
C40   C111  A    
C104  C118  S    
C54   C59   D    
C2    C122  A    
C126  O5    A    
O39   Zn11  S    
C76   O17   A    
C37   O55   D    
C75   O16   A    
O15   Zn5   S    
C13   C19   A    
C32   O51   D    
C2    H6    S    
C39   C78   A    
C46   H48   S    
C73   O14   A    
C26   H18   S    
C84   C85   A    
C67   O34   A    
C91   H22   S    
O1    Zn1   S    
O25   Zn6   S    
C3    O35   A    
O28   Zn9   S    
C62   C66   A    
C19   C23   A    
C5    H12   S    
C62   H60   S    
C117  O40   A    
O33   Zn6   S    
C62   C88   A    
C39   H10   S    
C131  O37   A    
O12   Zn5   S    
C49   H16   S    
C103  C112  S    
C128  O7    A    
C6    C100  A    
C97   H62   S    
C12   C17   A    
C35   C39   A    
C9    C14   A    
O30   Zn11  S    
C4    C78   A    
C119  O58   A    
C50   C129  S    
C61   C65   A    
C99   C104  D    
C11   C16   A    
C59   C67   S    
C7    C11   A    
C66   C71   A    
C38   C54   S    
C64   C131  S    
C130  O36   A    
C76   O21   A    
C8    C12   A    
C45   C57   S    
C46   C54   S    
O41   Zn4   S    
C8    C74   S    
C84   C88   A    
C121  O27   A    
C41   C100  A    
C41   H13   S    
C92   H24   S    
C64   C69   A    
C22   C89   A    
C93   H25   S    
O20   Zn10  S    
C79   C92   A    
O34   Zn7   S    
C27   C70   S    
C86   C96   A    
C109  C114  D    
C35   H9    S    
C53   C58   D    
C114  C123  S    
C35   C89   A    
C16   H43   S    
C40   C41   A    
C7    H34   S    
O17   Zn7   S    
C130  O31   A    
C28   H20   S    
C45   O12   A    
C116  C125  S    
C73   O18   A    
C59   H57   S    
C28   C71   S    
C36   H50   S    
C125  O30   A    
C127  O2    A    
C93   C97   A    
O29   Zn10  S    
C112  C116  D    
O7    Zn4   S    
C118  O41   A    
C47   C126  S    
C29   H21   S    
C116  H39   S    
O13   Zn11  S    
C49   C128  S    
O35   Zn7   S    
C63   C68   A    
C77   C91   A    
C103  H30   S    
C60   C86   A    
C115  C124  S    
O36   Zn8   S    
C15   H42   S    
C27   H19   S    
C58   H55   S    
C18   C22   A    
O22   Zn1   S    
C1    O1    A    
C6    H23   S    
C122  H5    S    
C5    C9    A    
O11   Zn10  S    
C6    C10   A    
C126  O60   A    
C85   C90   A    
C119  O42   A    
O9    Zn8   S    
C68   C72   A    
C123  O28   A    
C46   C50   D    
C74   O15   A    
C60   C64   A    
C103  C107  D    
O42   Zn12  S    
C1    C55   S    
C128  O3    A    
C88   C98   A    
C42   H44   S    
C11   C75   S    
C48   C127  S    
C79   C83   A    
C81   C94   A    
O40   Zn3   S    
C50   H17   S    
C70   C79   A    
C56   O11   A    
C132  O38   A    
C77   C82   A    
C102  H29   S    
C63   C90   A    
C29   O48   D    
C56   C58   S    
C98   H63   S    
C67   O13   A    
C34   O53   D    
C106  C120  S    
C42   C47   D    
C55   H53   S    
C127  O6    A    
C17   C21   A    
C109  H2    S    
C120  O59   A    
C129  O4    A    
C102  C110  S    
C52   C57   D    
C25   C111  A    
C120  O43   A    
O37   Zn9   S    
O31   Zn1   S    
C3    C66   S    
C26   O44   D    
C17   C122  A    
C38   O57   D    
C113  C121  S    
C124  O25   A    
C13   C24   A    
C91   C95   A    
C60   H58   S    
C82   C83   A    
O59   Zn12  S    
C102  C106  D    
C30   C104  S    
C61   H59   S    
C26   C69   S    
O58   Zn2   S    
C57   H54   S    
C118  O56   A    
C124  O29   A    
C80   C93   A    
C32   H33   S    
O6    Zn12  S    
C110  C115  D    
C56   O23   A    
C5    C89   A    
O56   Zn3   S    
C4    H1    S    
C117  O45   A    
