data_mof_unit_33900.cif
_audit_creation_date              2012-12-10T19:47:25-0500
_audit_creation_method            fapswitch 2.2
_symmetry_space_group_name_H-M    P1
_symmetry_Int_Tables_number       1
_space_group_crystal_system       triclinic
_cell_length_a                    11.011904
_cell_length_b                    11.053672
_cell_length_c                    12.903928
_cell_angle_alpha                 91.154897
_cell_angle_beta                  87.545114
_cell_angle_gamma                 92.449559
_cell_volume                      1567.55196247

loop_
_atom_site_label
_atom_site_type_symbol
_atom_type_description
_atom_site_fract_x
_atom_site_fract_y
_atom_site_fract_z
_atom_type_partial_charge
C1    C     C_R   0.262201 0.496695 0.504202 0.803802
C2    C     C_R   0.738234 0.499788 0.496198 0.824249
C3    C     C_R   0.490526 0.870910 0.496611 -0.087585
C4    C     C_R   0.494661 0.127519 0.504498 -0.074430
C5    C     C_R   0.468548 0.936711 0.406740 0.153078
C6    C     C_R   0.510651 0.060870 0.595145 0.154998
C7    C     C_R   0.106874 0.459139 0.856163 0.417711
C8    C     C_R   0.865997 0.539619 0.155634 0.460503
C9    C     C_R   0.120184 0.459089 0.747334 -0.463121
C10   C     C_R   0.878867 0.534711 0.262368 -0.410304
C11   C     C_R   0.102971 0.564091 0.692705 -0.128130
C12   C     C_R   0.900432 0.426873 0.310056 -0.107396
C13   C     C_R   0.089455 0.675403 0.745747 0.294675
C14   C     C_R   0.913338 0.319559 0.251023 0.310574
C15   C     C_R   0.083495 0.677384 0.854042 0.376304
C16   C     C_R   0.895931 0.322599 0.143497 0.349899
C17   C     C_R   0.095073 0.570774 0.908674 0.588187
C18   C     C_R   0.871901 0.431872 0.096982 0.609069
C19   C     C_R   0.932250 0.549970 0.579467 -0.214761
C20   C     C_R   0.069388 0.437950 0.423663 -0.168343
C21   C     C_R   0.873169 0.498980 0.493689 -0.137177
C22   C     C_R   0.128066 0.490241 0.508834 -0.115215
C23   C     C_R   0.498893 0.262016 0.502023 0.812624
C24   C     C_R   0.496353 0.737429 0.498325 0.809213
C25   C     C_R   0.943690 0.441933 0.414918 0.174113
C26   C     C_R   0.057801 0.544223 0.588612 0.146393
C27   C     C_2   0.454255 0.485697 0.036478 0.465250
C28   C     C_2   0.538078 0.534183 0.964552 0.454050
C29   C     C_1   0.520903 0.522789 0.851033 0.117023
C30   C     C_1   0.476510 0.486420 0.149412 0.093788
C31   C     C_R   0.680591 0.209667 0.813855 0.307785
C32   C     C_R   0.288663 0.789595 0.191449 0.318323
C33   C     C_R   0.655923 0.152272 0.718621 0.472446
C34   C     C_R   0.319080 0.835575 0.289587 0.463761
C35   C     C_R   0.536583 0.116898 0.696421 -0.103985
C36   C     C_R   0.437996 0.879284 0.306418 -0.100132
C37   C     C_R   0.443255 0.128217 0.772507 -0.437853
C38   C     C_R   0.525363 0.879130 0.224436 -0.442049
C39   C     C_R   0.468249 0.177958 0.870966 0.408581
C40   C     C_R   0.495802 0.832309 0.125953 0.389135
C41   C     C_R   0.587653 0.220856 0.890827 0.299121
C42   C     C_R   0.377422 0.784250 0.110417 0.296947
C43   C     C_R   0.508824 0.934919 0.589908 -0.236734
C44   C     C_R   0.472228 0.063250 0.411696 -0.233962
Cu1   Cu    Cu3+1 0.492140 0.492110 0.395880 0.983142
Cu2   Cu    Cu3+1 0.507860 0.507890 0.604120 0.972347
H1    H     H_    0.879465 0.590229 0.643106 0.165737
H2    H     H_    0.123064 0.400773 0.359281 0.154408
H3    H     H_    0.350954 0.101661 0.753607 0.180353
H4    H     H_    0.617177 0.912245 0.238643 0.194904
H5    H     H_    0.524389 0.886912 0.660310 0.164750
H6    H     H_    0.456036 0.111574 0.341617 0.157652
H7    H     H_    0.126631 0.375467 0.702851 0.186352
H8    H     H_    0.882348 0.616410 0.309642 0.201877
N1    N     N_1   0.480320 0.480250 0.239400 -0.199142
N2    N     N_1   0.519680 0.519750 0.760600 -0.203432
O1    O     O_R   0.313000 0.493330 0.412070 -0.575543
O2    O     O_R   0.687000 0.506670 0.587930 -0.607169
O3    O     O_R   0.326280 0.506660 0.587930 -0.571346
O4    O     O_R   0.673720 0.493340 0.412070 -0.568879
O5    O     O_R   0.493370 0.312980 0.412070 -0.592903
O6    O     O_R   0.506630 0.687020 0.587930 -0.595362
O7    O     O_R   0.506650 0.326310 0.587930 -0.573769
O8    O     O_R   0.493350 0.673690 0.412070 -0.566325
O9    O     O_3   0.610112 0.294975 0.975917 -0.534220
C45   C     C_3   0.615081 0.225934 0.065605 -0.215502
H9    H     H_    0.694351 0.168305 0.059020 0.219058
H10   H     H_    0.529266 0.172551 0.082824 0.146704
H11   H     H_    0.629409 0.288212 0.132734 0.160113
O10   O     O_3   0.351084 0.716437 0.022254 -0.528106
C46   C     C_3   0.344283 0.791684 0.936325 -0.241687
H12   H     H_    0.429246 0.846009 0.919542 0.160441
H13   H     H_    0.265871 0.850460 0.947180 0.202576
H14   H     H_    0.329731 0.733509 0.866641 0.157999
O11   O     O_3   0.067208 0.779378 0.693215 -0.527015
C47   C     C_3   0.178631 0.826457 0.649681 -0.150532
H15   H     H_    0.218379 0.763052 0.590689 0.172238
H16   H     H_    0.244938 0.848854 0.710709 0.112368
H17   H     H_    0.161756 0.911711 0.609771 0.200622
O12   O     O_3   0.937727 0.213754 0.300852 -0.532718
C48   C     C_3   0.046409 0.165271 0.259236 -0.230448
H18   H     H_    0.117616 0.235958 0.237737 0.099194
H19   H     H_    0.027481 0.105540 0.191322 0.200536
H20   H     H_    0.084385 0.108581 0.318942 0.187721
F1    F     F_    0.058568 0.781717 0.906106 -0.649829
F2    F     F_    0.906173 0.221469 0.083117 -0.645792
O13   O     O_3   0.645691 0.590412 0.999438 -0.558278
C49   C     C_3   0.715520 0.648991 0.917803 -0.016926
H21   H     H_    0.660049 0.710212 0.873477 0.112498
H22   H     H_    0.758661 0.581778 0.864987 0.130757
H23   H     H_    0.789235 0.707943 0.948469 0.234390
O14   O     O_3   0.344124 0.434164 0.002049 -0.549550
C50   C     C_3   0.269190 0.386078 0.085556 -0.071889
H24   H     H_    0.234825 0.459923 0.137285 0.182916
H25   H     H_    0.317347 0.318939 0.130102 0.100322
H26   H     H_    0.190207 0.333936 0.057547 0.228611
O15   O     O_3   0.794438 0.260873 0.831687 -0.480353
C51   C     C_3   0.817389 0.358553 0.763847 -0.108856
H27   H     H_    0.734924 0.409461 0.750447 0.139814
H28   H     H_    0.859610 0.326763 0.689117 0.183558
H29   H     H_    0.881746 0.424167 0.799358 0.185820
O16   O     O_3   0.170564 0.752359 0.172572 -0.471782
C52   C     C_3   0.105078 0.856226 0.153776 -0.106902
H30   H     H_    0.160279 0.930206 0.114370 0.062744
H31   H     H_    0.063828 0.891111 0.227856 0.152350
H32   H     H_    0.031709 0.830731 0.100900 0.257170
F3    F     F_    0.747278 0.134995 0.646412 -0.646576
F4    F     F_    0.232492 0.839107 0.367651 -0.673995
O17   O     O_3   0.375027 0.204385 0.941764 -0.516833
C53   C     C_3   0.312146 0.097455 0.974704 -0.392722
H33   H     H_    0.241203 0.121769 0.034049 0.180979
H34   H     H_    0.372980 0.036528 0.012798 0.136423
H35   H     H_    0.264964 0.050483 0.910180 0.166619
O18   O     O_3   0.584399 0.817314 0.048407 -0.546342
C54   C     C_3   0.636370 0.930140 0.017712 -0.390389
H36   H     H_    0.687174 0.974686 0.081098 0.172980
H37   H     H_    0.567099 0.989146 0.989289 0.140309
H38   H     H_    0.702693 0.915616 0.952059 0.203739
F5    F     F_    0.088685 0.575113 0.013625 -0.580254
F6    F     F_    0.857653 0.433741 0.993587 -0.579912
O19   O     O_3   0.084921 0.354904 0.914125 -0.511019
C55   C     C_3   0.096605 0.244995 0.857840 -0.108505
H39   H     H_    0.026690 0.232867 0.798809 0.182513
H40   H     H_    0.080369 0.169358 0.912424 0.206510
H41   H     H_    0.189520 0.238546 0.821799 0.156301
O20   O     O_3   0.866565 0.648361 0.104055 -0.501550
C56   C     C_3   0.810219 0.740698 0.163326 -0.216329
H42   H     H_    0.802604 0.818256 0.112492 0.198502
H43   H     H_    0.867771 0.776784 0.226115 0.130351
H44   H     H_    0.718187 0.710410 0.193991 0.200992

loop_
_geom_bond_atom_site_label_1
_geom_bond_atom_site_label_2
_ccdc_geom_bond_type
C45   H10   S    
O13   C49   S    
Cu1   O4    S    
O20   C56   S    
Cu2   O3    S    
C33   F3    S    
C47   H17   S    
O18   C54   S    
C39   C41   A    
Cu1   Cu2   S    
Cu1   O1    S    
C50   H24   S    
C2    C21   S    
Cu2   O6    S    
C28   C29   S    
C35   C37   A    
C47   H16   S    
C1    O3    A    
C2    O4    A    
C45   H11   S    
C20   C25   A    
C54   H36   S    
C5    C36   S    
C42   O10   S    
C6    C35   S    
C15   C17   A    
C19   C26   A    
C53   H33   S    
C40   O18   S    
C13   O11   S    
C54   H37   S    
C48   H18   S    
C31   C33   A    
O10   C46   S    
C14   C16   A    
C14   O12   S    
C15   F1    S    
C44   H6    S    
C23   O7    A    
C45   H9    S    
C1    C22   S    
C50   H25   S    
Cu2   O2    S    
C27   C30   S    
C16   F2    S    
C3    C24   S    
C7    O19   S    
C48   H19   S    
O15   C51   S    
C47   H15   S    
C4    C6    A    
C46   H13   S    
C4    C23   S    
C41   O9    S    
C4    C44   A    
C11   C26   S    
C7    C17   A    
C8    C18   A    
C32   C34   A    
O11   C47   S    
C56   H43   S    
C1    O1    A    
C37   H3    S    
C40   C42   A    
C49   H23   S    
C39   O17   S    
C54   H38   S    
C3    C43   A    
C28   O13   S    
C27   O14   S    
C52   H31   S    
C9    C11   A    
C53   H35   S    
O19   C55   S    
C20   H2    S    
C10   C12   A    
C8    O20   S    
C5    C44   A    
C49   H22   S    
C51   H27   S    
C50   H26   S    
C51   H28   S    
C6    C43   A    
C13   C15   A    
C32   O16   S    
C9    H7    S    
C55   H40   S    
C56   H42   S    
C18   F6    S    
C52   H30   S    
C48   H20   S    
C7    C9    A    
C21   C25   A    
C24   O6    A    
C31   C41   A    
C19   C21   A    
C8    C10   A    
C20   C22   A    
O12   C48   S    
C3    C5    A    
C46   H14   S    
C2    O2    A    
C38   H4    S    
C29   N2    T    
C51   H29   S    
C30   N1    T    
C12   C25   S    
Cu1   O8    S    
Cu2   O7    S    
C34   F4    S    
C55   H41   S    
C36   C38   A    
C12   C14   A    
C56   H44   S    
C46   H12   S    
C37   C39   A    
O17   C53   S    
C38   C40   A    
C11   C13   A    
C43   H5    S    
Cu1   O5    S    
O14   C50   S    
C33   C35   A    
C24   O8    A    
C52   H32   S    
C34   C36   A    
C31   O15   S    
O16   C52   S    
C10   H8    S    
C53   H34   S    
C17   F5    S    
C23   O5    A    
C49   H21   S    
Cu1   N1    S    
C16   C18   A    
O9    C45   S    
C22   C26   A    
C19   H1    S    
Cu2   N2    S    
C27   C28   D    
C32   C42   A    
C55   H39   S    
