data_mof_unit_26758.cif
_audit_creation_date              2012-12-11T16:26:11-0500
_audit_creation_method            fapswitch 2.2
_symmetry_space_group_name_H-M    P1
_symmetry_Int_Tables_number       1
_space_group_crystal_system       triclinic
_cell_length_a                    14.007471
_cell_length_b                    14.00733
_cell_length_c                    31.997888
_cell_angle_alpha                 90.000014
_cell_angle_beta                  89.999609
_cell_angle_gamma                 119.972728
_cell_volume                      5438.59001737

loop_
_atom_site_label
_atom_site_type_symbol
_atom_type_description
_atom_site_fract_x
_atom_site_fract_y
_atom_site_fract_z
_atom_type_partial_charge
C1    C     C_R   0.567423 0.444186 0.810272 0.570169
C2    C     C_R   0.444186 0.567422 0.189728 0.570172
C3    C     C_2   0.930508 0.337600 0.340409 0.596922
C4    C     C_2   0.391749 0.056375 0.156054 0.594936
C5    C     C_2   0.661516 0.592053 0.341012 0.594722
C6    C     C_2   0.337512 0.930623 0.659567 0.596933
C7    C     C_2   0.056382 0.391769 0.843946 0.594907
C8    C     C_2   0.591935 0.661484 0.659003 0.594713
C9    C     C_2   0.337573 0.930574 0.840425 0.596909
C10   C     C_2   0.056364 0.391737 0.656053 0.594908
C11   C     C_2   0.592506 0.661669 0.841060 0.594711
C12   C     C_R   0.432455 0.876560 0.310398 0.576949
C13   C     C_R   0.123001 0.555770 0.189790 0.569890
C14   C     C_1   0.998910 0.507318 0.019438 -0.013790
C15   C     C_1   0.500853 0.986433 0.482271 -0.013337
C16   C     C_1   0.492296 0.498716 0.018576 -0.013657
C17   C     C_1   0.998944 0.507370 0.480566 -0.013795
C18   C     C_1   0.500853 0.986450 0.017732 -0.013336
C19   C     C_1   0.492342 0.498826 0.481430 -0.013652
C20   C     C_1   0.507402 0.998943 0.519435 -0.013802
C21   C     C_R   0.876561 0.432455 0.689602 0.576982
C22   C     C_1   0.986368 0.500752 0.982276 -0.013329
C23   C     C_1   0.498806 0.492360 0.518574 -0.013652
C24   C     C_1   0.507399 0.998964 0.980569 -0.013796
C25   C     C_1   0.986423 0.500817 0.517729 -0.013332
C26   C     C_1   0.498745 0.492269 0.981430 -0.013659
C27   C     C_R   0.926506 0.468467 0.852160 0.000830
C28   C     C_R   0.541149 0.070733 0.648550 -0.005183
C29   C     C_R   0.531174 0.458429 0.851842 -0.002033
C30   C     C_R   0.926527 0.468483 0.647843 0.000840
C31   C     C_R   0.541167 0.070762 0.851455 -0.005126
C32   C     C_R   0.555770 0.122996 0.810211 0.569759
C33   C     C_R   0.531209 0.458406 0.648153 -0.001998
C34   C     C_R   0.468486 0.926526 0.352157 0.000811
C35   C     C_R   0.070817 0.541186 0.148541 -0.005097
C36   C     C_R   0.458407 0.531208 0.351848 -0.002002
C37   C     C_R   0.468491 0.926534 0.147845 0.000760
C38   C     C_R   0.070773 0.541168 0.351455 -0.005157
C39   C     C_R   0.458433 0.531172 0.148159 -0.002025
C40   C     C_R   0.884633 0.521022 0.877683 -0.147528
C41   C     C_R   0.633635 0.115532 0.622007 -0.145910
C42   C     C_R   0.485943 0.366128 0.878477 -0.140338
C43   C     C_R   0.567425 0.444184 0.689728 0.570256
C44   C     C_R   0.884688 0.521076 0.622323 -0.147540
C45   C     C_R   0.633638 0.115621 0.878006 -0.145890
C46   C     C_R   0.486295 0.366176 0.621486 -0.140370
C47   C     C_R   0.521086 0.884690 0.377675 -0.147542
C48   C     C_R   0.115932 0.633593 0.121957 -0.145901
C49   C     C_R   0.366165 0.486239 0.378509 -0.140371
C50   C     C_R   0.521092 0.884701 0.122326 -0.147545
C51   C     C_R   0.115681 0.633625 0.378013 -0.145914
C52   C     C_R   0.366143 0.485968 0.121520 -0.140370
C53   C     C_R   0.906626 0.533648 0.920242 -0.111673
C54   C     C_R   0.876559 0.432453 0.810398 0.576991
C55   C     C_R   0.622335 0.088977 0.579863 -0.110511
C56   C     C_R   0.473099 0.377518 0.920833 -0.109464
C57   C     C_R   0.906700 0.533725 0.579766 -0.111678
C58   C     C_R   0.622332 0.089066 0.920150 -0.110524
C59   C     C_R   0.473468 0.377600 0.579133 -0.109485
C60   C     C_R   0.533748 0.906708 0.420232 -0.111676
C61   C     C_R   0.089353 0.622260 0.079817 -0.110550
C62   C     C_R   0.377584 0.473421 0.420864 -0.109484
C63   C     C_R   0.533753 0.906722 0.079769 -0.111650
C64   C     C_R   0.089120 0.622311 0.420157 -0.110528
C65   C     C_R   0.555766 0.122991 0.689790 0.569713
C66   C     C_R   0.377541 0.473113 0.079166 -0.109480
C67   C     C_R   0.971037 0.494400 0.938031 0.009101
C68   C     C_R   0.518653 0.017088 0.563519 0.008783
C69   C     C_R   0.504874 0.481106 0.937297 0.007898
C70   C     C_R   0.971096 0.494464 0.561975 0.009117
C71   C     C_R   0.518656 0.017120 0.936487 0.008775
C72   C     C_R   0.504944 0.481151 0.562703 0.007907
C73   C     C_R   0.494493 0.971109 0.438025 0.009113
C74   C     C_R   0.017125 0.518623 0.063517 0.008781
C75   C     C_R   0.481142 0.504961 0.437301 0.007905
C76   C     C_R   0.444184 0.567425 0.310272 0.570241
C77   C     C_R   0.494496 0.971122 0.061978 0.009118
C78   C     C_R   0.017115 0.518640 0.436485 0.008788
C79   C     C_R   0.481124 0.504849 0.062708 0.007913
C80   C     C_R   0.019057 0.448058 0.912983 -0.112176
C81   C     C_R   0.426533 0.966394 0.589695 -0.106523
C82   C     C_R   0.543910 0.572993 0.911094 -0.107880
C83   C     C_R   0.019084 0.448084 0.587019 -0.112172
C84   C     C_R   0.426554 0.966376 0.910305 -0.106550
C85   C     C_R   0.543676 0.572953 0.588936 -0.107835
C86   C     C_R   0.448106 0.019093 0.412983 -0.112167
C87   C     C_R   0.432456 0.876561 0.189603 0.576915
C88   C     C_R   0.966157 0.426599 0.089732 -0.106497
C89   C     C_R   0.572959 0.543747 0.411073 -0.107849
C90   C     C_R   0.448111 0.019106 0.087021 -0.112139
C91   C     C_R   0.966332 0.426554 0.410295 -0.106505
C92   C     C_R   0.572998 0.543862 0.088916 -0.107869
C93   C     C_R   0.998955 0.435867 0.869720 0.043244
C94   C     C_R   0.436522 0.991003 0.632622 0.039328
C95   C     C_R   0.556173 0.562920 0.867978 0.038778
C96   C     C_R   0.998965 0.435871 0.630282 0.043243
C97   C     C_R   0.436553 0.990990 0.867378 0.039325
C98   C     C_R   0.122998 0.555770 0.310211 0.569782
C99   C     C_R   0.555927 0.562844 0.632052 0.038733
C100  C     C_R   0.435879 0.998967 0.369721 0.043246
C101  C     C_R   0.990801 0.436626 0.132658 0.039264
C102  C     C_R   0.562856 0.555987 0.367957 0.038738
C103  C     C_R   0.435885 0.998978 0.130283 0.043258
C104  C     C_R   0.990955 0.436562 0.367369 0.039338
C105  C     C_R   0.562919 0.556138 0.132030 0.038773
C106  C     C_2   0.930150 0.337745 0.159648 0.596909
C107  C     C_2   0.391741 0.056364 0.343951 0.594917
C108  C     C_2   0.661657 0.592457 0.158952 0.594714
Cr1   Cr    Cr6+3 0.504240 0.249200 0.750000 1.088922
Cr2   Cr    Cr6+3 0.744960 0.495760 0.750000 1.082816
Cr3   Cr    Cr6+3 0.750800 0.255040 0.750000 1.077194
Cr4   Cr    Cr6+3 0.249200 0.504240 0.250000 1.088852
Cr5   Cr    Cr6+3 0.495760 0.744960 0.250000 1.082787
Cr6   Cr    Cr6+3 0.255040 0.750800 0.250000 1.077272
H1    H     H_    0.828792 0.546446 0.865295 0.147738
H2    H     H_    0.546527 0.828868 0.134715 0.147758
H3    H     H_    0.177021 0.714318 0.366783 0.145602
H4    H     H_    0.285592 0.466689 0.132916 0.145410
H5    H     H_    0.128513 0.693885 0.059620 0.133246
H6    H     H_    0.570717 0.870192 0.439511 0.133556
H7    H     H_    0.305986 0.441987 0.058983 0.132874
H8    H     H_    0.128132 0.693983 0.440334 0.133272
H9    H     H_    0.570722 0.870207 0.060488 0.133570
H10   H     H_    0.306071 0.442471 0.441062 0.132877
H11   H     H_    0.694036 0.127913 0.559698 0.133284
H12   H     H_    0.714349 0.176791 0.633247 0.145667
H13   H     H_    0.870087 0.570586 0.939526 0.133575
H14   H     H_    0.442562 0.306100 0.558930 0.132871
H15   H     H_    0.694017 0.128042 0.940322 0.133282
H16   H     H_    0.870182 0.570690 0.560484 0.133551
H17   H     H_    0.441952 0.305953 0.941013 0.132900
H18   H     H_    0.907558 0.347246 0.076554 0.161114
H19   H     H_    0.421526 0.072126 0.427278 0.152218
H20   H     H_    0.652244 0.564677 0.075597 0.161195
H21   H     H_    0.907894 0.347165 0.423491 0.161031
H22   H     H_    0.421531 0.072140 0.072727 0.152220
H23   H     H_    0.466634 0.285570 0.867077 0.145454
H24   H     H_    0.652176 0.564406 0.424377 0.161238
H25   H     H_    0.347132 0.908039 0.576486 0.161058
H26   H     H_    0.072101 0.421489 0.927276 0.152218
H27   H     H_    0.564287 0.652161 0.575636 0.161252
H28   H     H_    0.347158 0.907979 0.923507 0.161032
H29   H     H_    0.072116 0.421501 0.572725 0.152219
H30   H     H_    0.564751 0.652241 0.924417 0.161191
H31   H     H_    0.843526 0.171718 0.163430 0.355163
H32   H     H_    0.390785 0.124288 0.288557 0.348644
H33   H     H_    0.827641 0.670376 0.162739 0.355229
H34   H     H_    0.828858 0.546513 0.634712 0.147721
H35   H     H_    0.844520 0.171555 0.336657 0.355111
H36   H     H_    0.390789 0.124286 0.211451 0.348643
H37   H     H_    0.827475 0.669478 0.337196 0.355258
H38   H     H_    0.171457 0.844715 0.663286 0.355108
H39   H     H_    0.124334 0.390871 0.788551 0.348652
H40   H     H_    0.669227 0.827438 0.662825 0.355251
H41   H     H_    0.171527 0.844636 0.836688 0.355130
H42   H     H_    0.124291 0.390792 0.711447 0.348641
H43   H     H_    0.670465 0.827655 0.837278 0.355208
H44   H     H_    0.714337 0.176920 0.866769 0.145628
H45   H     H_    0.467220 0.285668 0.632864 0.145303
H46   H     H_    0.546519 0.828858 0.365285 0.147735
H47   H     H_    0.177430 0.714246 0.133166 0.145479
H48   H     H_    0.285648 0.467115 0.367126 0.145332
O1    O     O_R   0.480350 0.140770 0.796330 -0.472837
O2    O     O_R   0.140770 0.480350 0.203670 -0.472884
O3    O     O_R   0.519650 0.660420 0.296330 -0.475373
O4    O     O_R   0.339580 0.859230 0.203670 -0.474678
O5    O     O_R   0.514930 0.348530 0.793250 -0.502632
O6    O     O_R   0.833600 0.485070 0.706750 -0.504839
O7    O     O_R   0.651470 0.166400 0.793250 -0.504347
O8    O     O_R   0.514930 0.348530 0.706750 -0.502578
O9    O     O_R   0.833600 0.485070 0.793250 -0.504825
O10   O     O_R   0.651470 0.166400 0.706750 -0.504369
O11   O     O_R   0.348530 0.514930 0.293250 -0.502593
O12   O     O_R   0.660420 0.519650 0.703670 -0.475385
O13   O     O_R   0.485070 0.833600 0.206750 -0.504849
O14   O     O_R   0.166400 0.651470 0.293250 -0.504327
O15   O     O_R   0.348530 0.514930 0.206750 -0.502640
O16   O     O_R   0.485070 0.833600 0.293250 -0.504849
O17   O     O_R   0.166400 0.651470 0.206750 -0.504284
O18   O     O_3   0.666667 0.333333 0.750000 -0.280058
O19   O     O_3   0.333333 0.666667 0.250000 -0.280073
O20   O     O_2   0.917029 0.347798 0.196840 -0.438605
O21   O     O_R   0.884182 0.232409 0.142121 -0.698673
O22   O     O_2   0.328792 0.083252 0.359441 -0.512116
O23   O     O_R   0.859230 0.339580 0.796330 -0.474717
O24   O     O_R   0.425108 0.083525 0.302388 -0.641886
O25   O     O_2   0.651378 0.567867 0.196009 -0.442122
O26   O     O_R   0.767086 0.651711 0.141498 -0.699688
O27   O     O_2   0.917087 0.347521 0.303233 -0.438592
O28   O     O_R   0.885077 0.232323 0.357946 -0.698670
O29   O     O_2   0.328807 0.083273 0.140566 -0.512132
O30   O     O_R   0.425111 0.083524 0.197619 -0.641894
O31   O     O_2   0.651126 0.567530 0.303947 -0.442158
O32   O     O_R   0.766989 0.650982 0.358451 -0.699682
O33   O     O_2   0.347366 0.917208 0.696748 -0.438631
O34   O     O_R   0.480350 0.140770 0.703670 -0.472792
O35   O     O_R   0.232263 0.885238 0.642007 -0.698690
O36   O     O_2   0.083288 0.328827 0.859429 -0.512135
O37   O     O_R   0.083549 0.425167 0.802385 -0.641880
O38   O     O_2   0.567449 0.651065 0.696072 -0.442181
O39   O     O_R   0.650763 0.766969 0.641566 -0.699689
O40   O     O_2   0.347465 0.917131 0.803249 -0.438633
O41   O     O_R   0.232310 0.885196 0.857971 -0.698676
O42   O     O_2   0.083250 0.328783 0.640566 -0.512121
O43   O     O_R   0.083529 0.425113 0.697615 -0.641880
O44   O     O_2   0.567896 0.651403 0.804005 -0.442136
O45   O     O_R   0.660420 0.519650 0.796330 -0.475346
O46   O     O_R   0.651794 0.767092 0.858516 -0.699706
O47   O     O_R   0.859230 0.339580 0.703670 -0.474707
O48   O     O_R   0.140770 0.480350 0.296330 -0.472849
O49   O     O_R   0.519650 0.660420 0.203670 -0.475341
O50   O     O_R   0.339580 0.859230 0.296330 -0.474692

loop_
_geom_bond_atom_site_label_1
_geom_bond_atom_site_label_2
_ccdc_geom_bond_type
C3    C104  S    
C12   O16   A    
C32   O7    A    
C4    C103  S    
C81   H25   S    
C33   C46   A    
C29   C42   A    
C61   H5    S    
C28   C41   A    
C108  O25   D    
C91   C104  A    
C38   C98   S    
C62   H10   S    
C72   C85   A    
C27   C54   S    
C52   C66   A    
C66   C79   A    
C98   O48   A    
C107  O24   S    
C2    O49   A    
C21   O6    A    
C18   C24   T    
C84   C97   A    
C14   C74   S    
H37   O32   S    
C28   C94   A    
C76   O11   A    
C10   O43   S    
C53   C67   A    
C13   C35   S    
C3    O27   D    
Cr5   O3    S    
C89   C102  A    
C43   O12   A    
H41   O41   S    
C58   C71   A    
C87   O4    A    
C1    O5    A    
C58   H15   S    
C32   O1    A    
C60   C73   A    
C98   O14   A    
Cr1   O34   S    
C36   C102  A    
Cr3   O10   S    
Cr6   O50   S    
C4    O30   S    
C41   C55   A    
C38   C104  A    
C69   C82   A    
Cr1   O5    S    
C42   C56   A    
C47   C60   A    
Cr2   O6    S    
C2    C39   S    
Cr5   O19   S    
C55   H11   S    
C6    C94   S    
C54   O23   A    
C67   C80   A    
C30   C96   A    
Cr6   O4    S    
Cr2   O45   S    
C49   C62   A    
C2    O15   A    
C10   C96   S    
C57   C70   A    
C36   C76   S    
C27   C40   A    
C59   C72   A    
Cr5   O13   S    
C65   O34   A    
Cr2   O9    S    
C25   C70   S    
C108  O26   S    
Cr6   O14   S    
C39   C52   A    
C42   H23   S    
C50   C63   A    
C4    O29   D    
C30   C44   A    
H43   O46   S    
Cr4   O2    S    
C35   C48   A    
C41   H12   S    
C7    C93   S    
C6    O33   D    
C43   O8    A    
C37   C87   S    
C88   C101  A    
C47   H46   S    
Cr2   O12   S    
C16   C26   T    
C15   C20   T    
C106  O21   S    
C105  C108  S    
C8    C99   S    
C77   C90   A    
Cr3   O23   S    
C74   C88   A    
C45   H44   S    
C65   O10   A    
C33   C43   S    
C57   H16   S    
C26   C69   S    
Cr5   O49   S    
C82   H30   S    
Cr1   O1    S    
C3    O28   S    
C85   H27   S    
C29   C95   A    
C55   C68   A    
C38   C51   A    
C59   H14   S    
C80   H26   S    
C46   H45   S    
C22   C67   S    
C33   C99   A    
Cr4   O48   S    
C19   C23   T    
Cr3   O47   S    
C106  O20   D    
C20   C68   S    
C85   C99   A    
C90   H22   S    
C86   H19   S    
C34   C100  A    
C31   C32   S    
Cr2   O18   S    
C44   C57   A    
C90   C103  A    
C1    C29   S    
C49   H48   S    
C66   H7    S    
C76   O3    A    
C78   C91   A    
Cr5   O16   S    
C70   C83   A    
C89   H24   S    
C12   O50   A    
C79   C92   A    
H39   O37   S    
C11   O44   D    
Cr6   O17   S    
Cr3   O18   S    
C61   C74   A    
C62   C75   A    
C27   C93   A    
C63   H9    S    
C11   O46   S    
C68   C81   A    
C12   C34   S    
C45   C58   A    
C52   H4    S    
H40   O39   S    
C86   C100  A    
Cr1   O8    S    
C13   O2    A    
C5    O31   D    
C71   C84   A    
C63   C77   A    
C11   C95   S    
C101  C106  S    
C39   C105  A    
C5    C102  S    
C8    O39   S    
C100  C107  S    
C9    C97   S    
C82   C95   A    
C15   C73   S    
C64   C78   A    
C54   O9    A    
H32   O24   S    
C92   H20   S    
C51   C64   A    
C35   C101  A    
C6    O35   S    
C37   C103  A    
C40   C53   A    
Cr4   O19   S    
C48   H47   S    
H33   O26   S    
Cr6   O19   S    
C87   O13   A    
C21   C30   S    
H31   O21   S    
H42   O43   S    
C107  O22   D    
C16   C79   S    
C17   C25   T    
C14   C22   T    
C7    O36   D    
C19   C75   S    
C28   C65   S    
C13   O17   A    
C83   H29   S    
C81   C94   A    
Cr1   O18   S    
C53   H13   S    
C48   C61   A    
C18   C77   S    
C64   H8    S    
C83   C96   A    
C37   C50   A    
C17   C78   S    
C44   H34   S    
C21   O47   A    
H38   O35   S    
C60   H6    S    
C50   H2    S    
C23   C72   S    
C31   C97   A    
C7    O37   S    
C1    O45   A    
C73   C86   A    
C84   H28   S    
C56   H17   S    
C8    O38   D    
C9    O40   D    
C75   C89   A    
H36   O30   S    
C40   H1    S    
H35   O28   S    
C92   C105  A    
C91   H21   S    
C46   C59   A    
C56   C69   A    
C31   C45   A    
C51   H3    S    
C88   H18   S    
C5    O32   S    
C34   C47   A    
Cr3   O7    S    
C80   C93   A    
C10   O42   D    
C36   C49   A    
C24   C71   S    
Cr4   O11   S    
Cr4   O15   S    
C9    O41   S    
