data_mof_unit_32745.cif
_audit_creation_date              2013-03-05T16:06:56-0500
_audit_creation_method            fapswitch 2.2
_symmetry_space_group_name_H-M    P1
_symmetry_Int_Tables_number       1
_space_group_crystal_system       triclinic
_cell_length_a                    14.462397
_cell_length_b                    16.221984
_cell_length_c                    6.983605
_cell_angle_alpha                 89.822719
_cell_angle_beta                  98.585959
_cell_angle_gamma                 89.949694
_cell_volume                      1620.04403365

loop_
_atom_site_label
_atom_site_type_symbol
_atom_site_description
_atom_site_fract_x
_atom_site_fract_y
_atom_site_fract_z
_atom_type_partial_charge
O1    O     O_R   0.584990 0.413650 0.534420 -0.590936
O2    O     O_R   0.584990 0.586350 0.534420 -0.592397
O3    O     O_R   0.596190 0.585230 0.208380 -0.601215
O4    O     O_R   0.596190 0.414770 0.208380 -0.603639
O5    O     O_R   0.415010 0.586420 0.976930 -0.603244
O6    O     O_R   0.415010 0.413580 0.976930 -0.605404
C1    C     C_R   0.618712 0.614041 0.383635 0.962963
C2    C     C_R   0.618786 0.385965 0.384243 0.957737
O7    O     O_3   0.440560 0.500000 0.319140 -0.256350
V1    V     V_3+5 0.511030 0.500000 0.068070 1.189883
O8    O     O_R   0.403810 0.414840 0.643540 -0.547539
O9    O     O_R   0.403810 0.585160 0.643540 -0.548181
C3    C     C_R   0.382342 0.385449 0.806316 0.885130
C4    C     C_R   0.382288 0.614601 0.806029 0.884461
V2    V     V_3+5 0.488970 0.500000 0.560620 1.244038
O10   O     O_3   0.559440 0.500000 0.859420 -0.288055
H1    H     H_    0.320270 0.692349 0.100697 0.193768
H2    H     H_    0.321053 0.306629 0.101156 0.194558
C5    C     C_2   0.316055 0.685485 0.796663 0.111744
C6    C     C_2   0.316124 0.314742 0.797124 0.114085
C7    C     C_2   0.295481 0.720962 0.961836 -0.320394
C8    C     C_2   0.295884 0.278676 0.962202 -0.323395
H3    H     H_    0.185227 0.768897 0.214709 0.218847
H4    H     H_    0.185546 0.230421 0.214665 0.223003
C9    C     C_2   0.190658 0.815529 0.105739 -0.459386
C10   C     C_2   0.190701 0.184169 0.105269 -0.460871
C11   C     C_2   0.244944 0.800885 0.966883 0.478579
C12   C     C_2   0.245088 0.198971 0.966675 0.472236
C13   C     C_R   0.684802 0.738325 0.569488 0.164222
C14   C     C_R   0.752392 0.311257 0.588708 0.112454
C15   C     C_R   0.684975 0.684684 0.412830 -0.202449
C16   C     C_R   0.689389 0.318533 0.415638 -0.181143
C17   C     C_R   0.751814 0.699318 0.289322 -0.146781
C18   C     C_R   0.693032 0.256946 0.274818 -0.106038
H5    H     H_    0.757034 0.657943 0.170261 0.154946
H6    H     H_    0.644619 0.258735 0.140813 0.149106
C19   C     C_R   0.817585 0.763803 0.327816 0.000226
C20   C     C_R   0.754531 0.189030 0.311366 -0.024799
H7    H     H_    0.873669 0.769166 0.244523 0.180790
H8    H     H_    0.750753 0.139832 0.208593 0.195162
C21   C     C_R   0.816487 0.818337 0.482740 -0.224557
C22   C     C_R   0.816685 0.181568 0.485124 -0.212836
C23   C     C_R   0.749408 0.803277 0.604165 0.099491
C24   C     C_R   0.812060 0.242935 0.623573 0.080662
C25   C     C_3   0.767512 0.782286 0.814300 0.458765
C26   C     C_3   0.789962 0.233124 0.824266 0.474453
C27   C     C_3   0.694845 0.714436 0.777510 -0.615175
C28   C     C_3   0.731814 0.311882 0.791949 -0.596830
H9    H     H_    0.629335 0.725162 0.839121 0.230049
H10   H     H_    0.656242 0.305075 0.801609 0.227995
H11   H     H_    0.723973 0.651291 0.804578 0.213815
H12   H     H_    0.764611 0.365764 0.873345 0.216424
O11   O     O_R   0.921430 0.915960 0.371040 -0.571978
O12   O     O_R   0.921430 0.084040 0.371040 -0.574152
O13   O     O_R   0.910450 0.087500 0.697310 -0.557881
O14   O     O_R   0.910450 0.912500 0.697310 -0.561780
O15   O     O_R   0.091710 0.087460 0.928430 -0.577793
O16   O     O_R   0.091710 0.912540 0.928430 -0.573219
C29   C     C_R   0.886148 0.112853 0.519415 0.984880
C30   C     C_R   0.887567 0.885885 0.519998 0.991050
O17   O     O_3   0.065970 1.000000 0.586140 -0.246312
V3    V     V_3+5 0.995640 0.000000 0.837400 1.356184
O18   O     O_R   0.103020 0.915700 0.261710 -0.574297
O19   O     O_R   0.103020 0.084300 0.261710 -0.566615
C31   C     C_R   0.126566 0.887184 0.099830 1.052479
C32   C     C_R   0.126614 0.112686 0.099574 1.068848
V4    V     V_3+5 0.017940 0.000000 0.344880 1.337149
O20   O     O_3   0.947330 1.000000 0.046180 -0.208131
Br1   Br    Br    0.273503 0.887908 0.795181 -0.343011
Br2   Br    Br    0.273274 0.112443 0.794392 -0.341637
N1    N     N_R   0.274221 0.715451 0.610021 0.261242
O21   O     O_R   0.324840 0.724875 0.472480 -0.402796
O22   O     O_R   0.184373 0.727858 0.573563 -0.379640
N2    N     N_R   0.273940 0.285548 0.610480 0.261853
O23   O     O_R   0.324379 0.276103 0.472742 -0.398601
O24   O     O_R   0.184016 0.273791 0.574264 -0.377883
N3    N     N_R   0.739954 0.850114 0.932083 0.239229
O25   O     O_R   0.803619 0.897170 0.025527 -0.337440
O26   O     O_R   0.653086 0.874155 0.913476 -0.342944
N4    N     N_R   0.733549 0.158605 0.842704 0.218295
O27   O     O_R   0.774266 0.089728 0.902026 -0.335205
O28   O     O_R   0.645657 0.156243 0.766984 -0.371170
Br3   Br    Br    0.894707 0.738639 0.888439 -0.573329
Br4   Br    Br    0.902074 0.242928 0.015465 -0.533371

loop_
_geom_bond_atom_site_label_1
_geom_bond_atom_site_label_2
_geom_bond_distance
_ccdc_geom_bond_type
O16   V3    2.018595 S    
C20   H8    1.070969 S    
O18   C31   1.313735 A    
O13   C29   1.304724 A    
O1    C2    1.302342 A    
C10   C32   1.482042 S    
C5    N1    1.435753 S    
O2    C1    1.303566 A    
O15   C32   1.293848 A    
O4    C2    1.307612 A    
O15   V3    2.023068 S    
C27   H9    1.111270 S    
N3    O25   1.296628 A    
N2    O24   1.301629 A    
C13   C27   1.488336 S    
C14   C28   1.493134 S    
C5    C7    1.362570 D    
H4    C10   1.082882 S    
C20   C22   1.402979 A    
O3    C1    1.306627 A    
V2    O10   2.181287 S    
O13   V3    2.029356 S    
O8    V2    1.992901 S    
C15   C17   1.408132 A    
O1    V2    1.999525 S    
O7    V1    2.155594 S    
C11   Br1   1.933836 S    
C28   H10   1.110616 S    
C7    C11   1.490873 S    
C8    C12   1.490211 S    
C13   C23   1.406267 A    
C21   C23   1.401659 A    
C14   C24   1.402231 A    
C25   Br3   1.965810 S    
C22   C24   1.398383 A    
O11   C30   1.307438 A    
C24   C26   1.491405 S    
C26   C28   1.526461 S    
O12   C29   1.308809 A    
C25   C27   1.518256 S    
O18   V4    1.984147 S    
C1    C15   1.489366 S    
N2    O23   1.300421 A    
V4    O20   2.181327 S    
C2    C16   1.488965 S    
O19   V4    1.983158 S    
C9    C31   1.482714 S    
N4    O28   1.302439 A    
N1    O22   1.301633 A    
C18   C20   1.413781 A    
C27   H11   1.112089 S    
O12   V4    1.978496 S    
H1    C7    1.085124 S    
O14   C30   1.307842 A    
O19   C32   1.312623 A    
O17   V4    1.723898 S    
O16   C31   1.293252 A    
O9    V2    1.993885 S    
N3    O26   1.302841 A    
C6    N2    1.436086 S    
O2    V2    2.000439 S    
C23   C25   1.489996 S    
O5    C4    1.298076 A    
C26   Br4   1.947441 S    
C6    C8    1.361579 D    
O14   V3    2.035096 S    
O4    V1    2.004220 S    
C3    C6    1.490277 S    
H2    C8    1.085053 S    
C4    C5    1.490955 S    
C12   Br2   1.933886 S    
C21   C30   1.499696 S    
O9    C4    1.311946 A    
N4    O27   1.299977 A    
C22   C29   1.494546 S    
O6    V1    2.010948 S    
C9    C11   1.357049 D    
C10   C12   1.356226 D    
V3    O20   1.708272 S    
O7    V2    1.726728 S    
O5    V1    2.006496 S    
C13   C15   1.400297 A    
O3    V1    2.009886 S    
V1    O10   1.708218 S    
O6    C3    1.298765 A    
C14   C16   1.405386 A    
O8    C3    1.310814 A    
C17   H5    1.081508 S    
C18   H6    1.082135 S    
H3    C9    1.082552 S    
C19   C21   1.401584 A    
O17   V3    2.155565 S    
O11   V4    1.979407 S    
C17   C19   1.413667 A    
C28   H12   1.111498 S    
N1    O21   1.300450 A    
C19   H7    1.069827 S    
C25   N3    1.465887 S    
C26   N4    1.475015 S    
C16   C18   1.410493 A    
