data_mof_unit_64710.cif
_audit_creation_date              2012-12-10T18:01:25-0500
_audit_creation_method            fapswitch 2.2
_symmetry_space_group_name_H-M    P1
_symmetry_Int_Tables_number       1
_space_group_crystal_system       triclinic
_cell_length_a                    18.318251
_cell_length_b                    18.372728
_cell_length_c                    25.838141
_cell_angle_alpha                 90.000044
_cell_angle_beta                  90.000045
_cell_angle_gamma                 89.999214
_cell_volume                      8695.98766176

loop_
_atom_site_label
_atom_site_type_symbol
_atom_type_description
_atom_site_fract_x
_atom_site_fract_y
_atom_site_fract_z
_atom_type_partial_charge
C1    C     C_R   0.859773 0.140085 0.749877 0.529582
C2    C     C_R   0.196691 0.196067 0.250374 0.040396
C3    C     C_R   0.243236 0.690981 0.215851 0.374641
C4    C     C_R   0.196691 0.196067 0.749626 0.040396
C5    C     C_R   0.803320 0.196076 0.749617 0.040470
C6    C     C_R   0.303316 0.696073 0.750379 0.040573
C7    C     C_R   0.696687 0.696071 0.750378 0.040294
C8    C     C_R   0.696687 0.696071 0.249622 0.040294
C9    C     C_R   0.303316 0.696073 0.249620 0.040573
C10   C     C_R   0.809134 0.255473 0.216521 -0.178544
C11   C     C_R   0.190645 0.255695 0.216739 -0.186048
C12   C     C_R   0.190645 0.255695 0.783261 -0.186048
C13   C     C_R   0.140230 0.140082 0.749880 0.524273
C14   C     C_R   0.809131 0.255471 0.783482 -0.178545
C15   C     C_R   0.309167 0.755507 0.716553 -0.178563
C16   C     C_R   0.690683 0.755657 0.716701 -0.186024
C17   C     C_R   0.690683 0.755658 0.283299 -0.186024
C18   C     C_R   0.309166 0.755506 0.283447 -0.178563
C19   C     C_R   0.255908 0.809109 0.716349 -0.145722
C20   C     C_R   0.743944 0.809257 0.716495 -0.148231
C21   C     C_R   0.743944 0.809257 0.283505 -0.148231
C22   C     C_R   0.255907 0.809109 0.283652 -0.145721
C23   C     C_R   0.755873 0.309075 0.216315 -0.145700
C24   C     C_R   0.140230 0.140082 0.250120 0.524273
C25   C     C_R   0.243905 0.309296 0.216533 -0.148265
C26   C     C_R   0.243905 0.309296 0.783467 -0.148265
C27   C     C_R   0.755870 0.309072 0.783687 -0.145700
C28   C     C_R   0.196155 0.803895 0.749972 -0.022335
C29   C     C_R   0.803848 0.803892 0.749970 -0.021686
C30   C     C_R   0.803848 0.803892 0.250030 -0.021686
C31   C     C_R   0.196155 0.803895 0.250028 -0.022335
C32   C     C_R   0.696156 0.303896 0.249973 -0.022407
C33   C     C_R   0.303849 0.303891 0.249969 -0.021619
C34   C     C_R   0.303849 0.303891 0.750031 -0.021619
C35   C     C_R   0.859773 0.140085 0.250123 0.529582
C36   C     C_R   0.696156 0.303896 0.750027 -0.022407
C37   C     C_R   0.020409 0.938047 0.973314 -0.208093
C38   C     C_R   0.020409 0.938047 0.026686 -0.208093
C39   C     C_R   0.520411 0.438047 0.473314 -0.208098
C40   C     C_R   0.520411 0.438047 0.526686 -0.208098
C41   C     C_R   0.997989 0.000321 0.053462 -0.015554
C42   C     C_R   0.997990 0.000321 0.946538 -0.015554
C43   C     C_R   0.497990 0.500321 0.553462 -0.015548
C44   C     C_R   0.497990 0.500321 0.446538 -0.015548
C45   C     C_R   0.974309 0.062420 0.026690 0.410815
C46   C     C_R   0.359772 0.640084 0.249879 0.529760
C47   C     C_R   0.974309 0.062420 0.973310 0.410814
C48   C     C_R   0.474309 0.562419 0.526690 0.410827
C49   C     C_R   0.474309 0.562419 0.473310 0.410827
C50   C     C_R   0.140087 0.859960 0.749935 0.509611
C51   C     C_R   0.859913 0.859959 0.749935 0.511724
C52   C     C_R   0.859913 0.859959 0.250065 0.511725
C53   C     C_R   0.140087 0.859960 0.250064 0.509611
C54   C     C_R   0.640087 0.359960 0.249935 0.509458
C55   C     C_R   0.359913 0.359960 0.249935 0.511860
C56   C     C_R   0.359913 0.359960 0.750065 0.511860
C57   C     C_R   0.640229 0.640083 0.249879 0.524093
C58   C     C_R   0.640087 0.359960 0.750065 0.509458
C59   C     C_R   0.999425 0.000069 0.890858 0.538317
C60   C     C_R   0.999425 0.000069 0.109142 0.538317
C61   C     C_R   0.499425 0.500069 0.390858 0.538324
C62   C     C_R   0.499425 0.500069 0.609142 0.538324
C63   C     C_R   0.000095 0.000020 0.608632 0.492548
C64   C     C_R   0.000095 0.000020 0.391368 0.492548
C65   C     C_R   0.499905 0.500024 0.108632 0.492469
C66   C     C_R   0.499905 0.500024 0.891368 0.492469
C67   C     C_3   0.960899 0.931425 0.529931 -0.233951
C68   C     C_R   0.640229 0.640083 0.750121 0.524094
C69   C     C_3   0.079868 0.999996 0.529725 -0.224798
C70   C     C_3   0.079868 0.999996 0.470275 -0.224797
C71   C     C_3   0.960900 0.931425 0.470069 -0.233950
C72   C     C_3   0.420131 0.500095 0.029725 -0.225502
C73   C     C_3   0.539025 0.431388 0.029931 -0.233016
C74   C     C_3   0.539025 0.431388 0.970069 -0.233016
C75   C     C_3   0.420131 0.500095 0.970275 -0.225502
C76   C     C_3   0.960949 0.068655 0.529932 -0.232532
C77   C     C_3   0.960949 0.068655 0.470068 -0.232533
C78   C     C_3   0.539127 0.568619 0.029932 -0.232239
C79   C     C_R   0.359772 0.640084 0.750121 0.529760
C80   C     C_3   0.539127 0.568619 0.970068 -0.232239
C81   C     C_3   0.000435 0.000025 0.550874 0.051422
C82   C     C_3   0.000435 0.000025 0.449126 0.051422
C83   C     C_3   0.499565 0.500032 0.050874 0.051040
C84   C     C_3   0.499565 0.500032 0.949126 0.051040
C85   C     C_R   0.190159 0.744657 0.783789 -0.086761
C86   C     C_R   0.809997 0.744502 0.783638 -0.085029
C87   C     C_R   0.809997 0.744502 0.216362 -0.085029
C88   C     C_R   0.190160 0.744658 0.216210 -0.086760
C89   C     C_R   0.690198 0.244696 0.283826 -0.086768
C90   C     C_R   0.803319 0.196076 0.250382 0.040469
C91   C     C_R   0.310040 0.244459 0.283595 -0.085026
C92   C     C_R   0.310040 0.244459 0.716404 -0.085026
C93   C     C_R   0.690200 0.244698 0.716171 -0.086768
C94   C     C_R   0.743276 0.191020 0.284188 0.374647
C95   C     C_R   0.256969 0.190777 0.283951 0.375625
C96   C     C_R   0.256969 0.190777 0.716049 0.375625
C97   C     C_R   0.743279 0.191023 0.715809 0.374648
C98   C     C_R   0.243235 0.690980 0.784148 0.374642
C99   C     C_R   0.756923 0.690823 0.783996 0.375635
C100  C     C_R   0.756923 0.690823 0.216004 0.375634
F1    F     F_    0.735445 0.134595 0.317675 -0.602426
F2    F     F_    0.949838 0.122539 0.948072 -0.562001
F3    F     F_    0.449838 0.622538 0.551928 -0.562028
F4    F     F_    0.449838 0.622538 0.448072 -0.562028
F5    F     F_    0.265054 0.134101 0.317193 -0.601579
F6    F     F_    0.265054 0.134101 0.682807 -0.601579
F7    F     F_    0.735451 0.134601 0.682320 -0.602428
F8    F     F_    0.235363 0.634514 0.817596 -0.602890
F9    F     F_    0.764961 0.634193 0.817283 -0.601099
F10   F     F_    0.764961 0.634193 0.182717 -0.601099
F11   F     F_    0.235365 0.634516 0.182402 -0.602891
F12   F     F_    0.949838 0.122539 0.051928 -0.562001
H1    H     H_    0.988552 0.881449 0.544363 0.118271
H2    H     H_    0.855898 0.739416 0.809824 0.172241
H3    H     H_    0.855898 0.739415 0.190176 0.172241
H4    H     H_    0.144385 0.739698 0.189902 0.170717
H5    H     H_    0.644451 0.239764 0.310162 0.170765
H6    H     H_    0.355976 0.239338 0.309748 0.172187
H7    H     H_    0.355976 0.239338 0.690252 0.172187
H8    H     H_    0.644457 0.239769 0.689832 0.170764
H9    H     H_    0.854778 0.260624 0.190125 0.175832
H10   H     H_    0.144811 0.261037 0.190528 0.167621
H11   H     H_    0.144812 0.261037 0.809471 0.167622
H12   H     H_    0.109690 0.951096 0.543905 0.145945
H13   H     H_    0.854773 0.260620 0.809879 0.175834
H14   H     H_    0.354841 0.760687 0.690186 0.175737
H15   H     H_    0.644883 0.760966 0.690458 0.167701
H16   H     H_    0.644883 0.760966 0.309542 0.167701
H17   H     H_    0.354840 0.760686 0.309815 0.175737
H18   H     H_    0.261559 0.854481 0.689883 0.173789
H19   H     H_    0.738169 0.854751 0.690149 0.171872
H20   H     H_    0.738169 0.854751 0.309851 0.171873
H21   H     H_    0.261557 0.854479 0.310118 0.173789
H22   H     H_    0.761494 0.354416 0.189821 0.174062
H23   H     H_    0.109690 0.951096 0.456095 0.145945
H24   H     H_    0.238095 0.354824 0.190221 0.171606
H25   H     H_    0.238095 0.354825 0.809779 0.171607
H26   H     H_    0.761489 0.354411 0.810184 0.174061
H27   H     H_    0.038880 0.889801 0.953060 0.172877
H28   H     H_    0.038880 0.889801 0.046940 0.172877
H29   H     H_    0.538882 0.389802 0.453060 0.172893
H30   H     H_    0.538882 0.389802 0.546940 0.172893
H31   H     H_    0.903581 0.929983 0.544180 0.146540
H32   H     H_    0.109726 0.048872 0.543906 0.155908
H33   H     H_    0.109727 0.048872 0.456094 0.155908
H34   H     H_    0.988552 0.881449 0.455637 0.118271
H35   H     H_    0.903581 0.929983 0.455819 0.146540
H36   H     H_    0.390329 0.549006 0.043906 0.155046
H37   H     H_    0.596342 0.429880 0.044181 0.149545
H38   H     H_    0.596342 0.429880 0.955819 0.149545
H39   H     H_    0.390329 0.549006 0.956093 0.155045
H40   H     H_    0.903633 0.070142 0.544183 0.156997
H41   H     H_    0.988640 0.118609 0.544364 0.123039
H42   H     H_    0.988640 0.118609 0.455636 0.123038
H43   H     H_    0.903633 0.070142 0.455817 0.156996
H44   H     H_    0.511492 0.618605 0.044364 0.122946
H45   H     H_    0.390253 0.451229 0.043904 0.143050
H46   H     H_    0.596446 0.570041 0.044182 0.158226
H47   H     H_    0.596446 0.570041 0.955818 0.158226
H48   H     H_    0.511492 0.618605 0.955636 0.122946
H49   H     H_    0.511316 0.381443 0.044363 0.117884
H50   H     H_    0.511316 0.381443 0.955637 0.117884
H51   H     H_    0.390253 0.451229 0.956096 0.143050
H52   H     H_    0.144383 0.739696 0.810096 0.170718
O1    O     O_3   1.000000 0.000000 0.749970 -0.469275
O2    O     O_R   0.646190 0.585480 0.219360 -0.464421
O3    O     O_R   0.646190 0.585480 0.780640 -0.464421
O4    O     O_R   0.353810 0.585480 0.780640 -0.465149
O5    O     O_R   0.146170 0.914530 0.719320 -0.534334
O6    O     O_R   0.853830 0.914530 0.719320 -0.534509
O7    O     O_R   0.853830 0.914530 0.280680 -0.534507
O8    O     O_R   0.146170 0.914530 0.280680 -0.534334
O9    O     O_R   0.646170 0.414530 0.219320 -0.534223
O10   O     O_R   0.353830 0.414530 0.219320 -0.534629
O11   O     O_R   0.353830 0.414530 0.780680 -0.534628
O12   O     O_3   1.000000 0.000000 0.250030 -0.469275
O13   O     O_R   0.646170 0.414530 0.780680 -0.534223
O14   O     O_R   0.085450 0.146180 0.780600 -0.561070
O15   O     O_R   0.914550 0.146180 0.780600 -0.548392
O16   O     O_R   0.914550 0.146180 0.219400 -0.548392
O17   O     O_R   0.085450 0.146180 0.219400 -0.561071
O18   O     O_R   0.585450 0.646180 0.280600 -0.561098
O19   O     O_R   0.414550 0.646180 0.280600 -0.548359
O20   O     O_R   0.414550 0.646180 0.719400 -0.548360
O21   O     O_R   0.585450 0.646180 0.719400 -0.561099
O22   O     O_R   0.914560 0.853830 0.780620 -0.546529
O23   O     O_3   0.500000 0.500000 0.249970 -0.469276
O24   O     O_R   0.085440 0.853830 0.780620 -0.550091
O25   O     O_R   0.085440 0.853830 0.219380 -0.550091
O26   O     O_R   0.914560 0.853830 0.219380 -0.546529
O27   O     O_R   0.414560 0.353830 0.280620 -0.546492
O28   O     O_R   0.585440 0.353830 0.280620 -0.550129
O29   O     O_R   0.585440 0.353830 0.719380 -0.550129
O30   O     O_R   0.414560 0.353830 0.719380 -0.546492
O31   O     O_R   0.000000 0.060730 0.866830 -0.469190
O32   O     O_R   0.000000 0.060730 0.133170 -0.469190
O33   O     O_R   0.500000 0.560730 0.366830 -0.469181
O34   O     O_3   0.500000 0.500000 0.750030 -0.469276
O35   O     O_R   0.500000 0.560730 0.633170 -0.469181
O36   O     O_R   0.939250 0.000010 0.633130 -0.541442
O37   O     O_R   0.060750 0.000010 0.633130 -0.543049
O38   O     O_R   0.060750 0.000010 0.366870 -0.543049
O39   O     O_R   0.939250 0.000010 0.366870 -0.541443
O40   O     O_R   0.439250 0.500010 0.133130 -0.544313
O41   O     O_R   0.560750 0.500010 0.133130 -0.540115
O42   O     O_R   0.560750 0.500010 0.866870 -0.540116
O43   O     O_R   0.439250 0.500010 0.866870 -0.544313
O44   O     O_R   0.000000 0.939270 0.866820 -0.556407
O45   O     O_R   0.853810 0.085480 0.719360 -0.465083
O46   O     O_R   0.000000 0.939270 0.133180 -0.556407
O47   O     O_R   0.500000 0.439270 0.366820 -0.556408
O48   O     O_R   0.500000 0.439270 0.633180 -0.556408
O49   O     O_R   0.146190 0.085480 0.719360 -0.464492
O50   O     O_R   0.146190 0.085480 0.280640 -0.464492
O51   O     O_R   0.853810 0.085480 0.280640 -0.465083
O52   O     O_R   0.353810 0.585480 0.219360 -0.465149
Zn1   Zn    Zn3+2 0.086750 0.999990 0.706190 0.978563
Zn2   Zn    Zn3+2 0.000000 0.086770 0.206250 0.984600
Zn3   Zn    Zn3+2 0.500000 0.586770 0.293750 0.984608
Zn4   Zn    Zn3+2 0.500000 0.586770 0.706250 0.984608
Zn5   Zn    Zn3+2 1.000000 0.913230 0.793740 0.942488
Zn6   Zn    Zn3+2 1.000000 0.913230 0.206260 0.942488
Zn7   Zn    Zn3+2 0.500000 0.413230 0.293740 0.942479
Zn8   Zn    Zn3+2 0.500000 0.413230 0.706260 0.942480
Zn9   Zn    Zn3+2 0.913250 0.999990 0.706190 0.982381
Zn10  Zn    Zn3+2 0.913250 0.999990 0.293810 0.982381
Zn11  Zn    Zn3+2 0.086750 0.999990 0.293810 0.978563
Zn12  Zn    Zn3+2 0.586750 0.499990 0.206190 0.979696
Zn13  Zn    Zn3+2 0.413250 0.499990 0.206190 0.981227
Zn14  Zn    Zn3+2 0.413250 0.499990 0.793810 0.981227
Zn15  Zn    Zn3+2 0.586750 0.499990 0.793810 0.979696
Zn16  Zn    Zn3+2 1.000000 0.086770 0.793750 0.984600

loop_
_geom_bond_atom_site_label_1
_geom_bond_atom_site_label_2
_ccdc_geom_bond_type
C44   C49   A    
C33   C55   S    
O5    Zn1   S    
C34   C56   S    
O46   Zn6   S    
O21   Zn4   S    
C40   H30   S    
C73   C74   S    
O16   Zn2   S    
C80   C84   S    
C26   H25   S    
C50   O24   A    
C49   F4    S    
C53   O25   A    
C45   F12   S    
O1    Zn5   S    
C21   H20   S    
O23   Zn3   S    
C79   O20   A    
C69   H32   S    
C15   C19   A    
C12   H11   S    
C4    C13   S    
C14   H13   S    
O12   Zn6   S    
C63   C81   S    
C1    C5    S    
C6    C98   A    
C54   O9    A    
O40   Zn13  S    
C2    C95   A    
C92   H7    S    
C79   O4    A    
C62   O35   A    
C76   C81   S    
C36   C58   S    
O26   Zn6   S    
O48   Zn8   S    
C66   O42   A    
O8    Zn11  S    
C78   C80   S    
C75   C84   S    
C65   C83   S    
O18   Zn3   S    
C65   O41   A    
C76   H40   S    
C13   O14   A    
C99   F9    S    
O42   Zn15  S    
C76   H41   S    
C92   C96   A    
C98   F8    S    
C63   O36   A    
O41   Zn12  S    
C75   H51   S    
C61   O47   A    
C13   O49   A    
C89   C94   A    
C25   H24   S    
C10   C23   A    
C73   H49   S    
C85   C98   A    
C95   F5    S    
C53   O8    A    
C6    C15   A    
C4    C96   A    
C24   O50   A    
C36   C93   A    
C78   H46   S    
C40   C43   A    
C39   H29   S    
C94   F1    S    
C75   H39   S    
C15   H14   S    
O1    Zn16  S    
C59   O44   A    
C93   H8    S    
C14   C27   A    
C4    C12   A    
C64   O38   A    
C43   C48   A    
O50   Zn11  S    
C87   H3    S    
O1    Zn1   S    
C42   C47   A    
C71   C82   S    
O24   Zn5   S    
C10   H9    S    
C19   H18   S    
C24   O17   A    
C67   H31   S    
C9    C46   S    
C47   F2    S    
O12   Zn2   S    
O45   Zn9   S    
C72   C75   S    
C2    C11   A    
C78   C83   S    
C52   O7    A    
C32   C54   S    
C57   O18   A    
C16   H15   S    
C26   C34   A    
C90   C94   A    
C20   C29   A    
C45   C47   A    
C27   H26   S    
C22   C31   A    
C56   O11   A    
C1    O45   A    
C38   H28   S    
C76   C77   S    
O28   Zn7   S    
C38   C41   A    
C61   O33   A    
C39   C40   A    
C74   H50   S    
C28   C50   S    
O34   Zn15  S    
C7    C68   S    
C80   H47   S    
C57   O2    A    
C22   H21   S    
C69   H12   S    
C59   O31   A    
O44   Zn5   S    
C72   H36   S    
C48   F3    S    
C66   C84   S    
C17   C21   A    
C72   H45   S    
C12   C26   A    
C55   O27   A    
C46   O19   A    
C88   H4    S    
O34   Zn8   S    
C68   O3    A    
C55   O10   A    
O14   Zn16  S    
C37   C38   A    
C3    C9    A    
C77   H42   S    
O49   Zn1   S    
C93   C97   A    
C32   C89   A    
O7    Zn10  S    
C16   C20   A    
O47   Zn7   S    
C37   C42   A    
O1    Zn9   S    
O52   Zn13  S    
C29   C86   A    
C91   H6    S    
C17   H16   S    
C70   H33   S    
C52   O26   A    
C31   C53   S    
C86   C99   A    
C80   H48   S    
C64   C82   S    
C5    C14   A    
C39   C44   A    
C7    C99   A    
C56   O30   A    
C66   O43   A    
C7    C16   A    
O22   Zn5   S    
C89   H5    S    
C68   O21   A    
C67   C81   S    
C46   O52   A    
C19   C28   A    
C70   H23   S    
C27   C36   A    
C3    F11   S    
C11   H10   S    
C54   O28   A    
C20   H19   S    
O15   Zn16  S    
O27   Zn7   S    
C28   C85   A    
C60   O32   A    
O30   Zn8   S    
C87   C100  A    
C29   C51   S    
C35   O16   A    
C62   O48   A    
O12   Zn11  S    
C96   F6    S    
C48   C49   A    
O19   Zn3   S    
C31   C88   A    
C63   O37   A    
C23   H22   S    
C73   H37   S    
C3    C88   A    
O25   Zn6   S    
C64   O39   A    
C51   O6    A    
O34   Zn4   S    
O35   Zn4   S    
C41   C60   S    
C74   C84   S    
O9    Zn12  S    
C42   C59   S    
O13   Zn15  S    
O32   Zn2   S    
O34   Zn14  S    
O43   Zn14  S    
O3    Zn15  S    
O38   Zn11  S    
C44   C61   S    
O12   Zn10  S    
C21   C30   A    
C58   O29   A    
C8    C17   A    
O2    Zn12  S    
C86   H2    S    
O51   Zn10  S    
C23   C32   A    
C18   C22   A    
C8    C100  A    
O37   Zn1   S    
C51   O22   A    
C41   C45   A    
C77   H43   S    
C2    C24   S    
O23   Zn12  S    
C1    O15   A    
C78   H44   S    
C6    C79   S    
C65   O40   A    
O23   Zn7   S    
C77   C82   S    
C100  F10   S    
O4    Zn14  S    
C60   O46   A    
O31   Zn16  S    
C5    C97   A    
C58   O13   A    
C67   C71   S    
O36   Zn9   S    
O39   Zn10  S    
C67   H1    S    
C69   C70   S    
C70   C82   S    
O10   Zn13  S    
C34   C92   A    
C72   C83   S    
C69   C81   S    
C50   O5    A    
C91   C95   A    
C97   F7    S    
C35   C90   S    
C71   H35   S    
C9    C18   A    
O20   Zn4   S    
C71   H34   S    
C10   C90   A    
O23   Zn13  S    
C37   H27   S    
O6    Zn9   S    
O17   Zn2   S    
O11   Zn14  S    
C85   H52   S    
C11   C25   A    
C74   H38   S    
C18   H17   S    
C30   C87   A    
O33   Zn3   S    
C35   O51   A    
O29   Zn8   S    
C73   C83   S    
C8    C57   S    
C43   C62   S    
C25   C33   A    
C30   C52   S    
C33   C91   A    
