data_mof_unit_46681.cif
_audit_creation_date              2012-12-10T19:45:52-0500
_audit_creation_method            fapswitch 2.2
_symmetry_space_group_name_H-M    P1
_symmetry_Int_Tables_number       1
_space_group_crystal_system       triclinic
_cell_length_a                    10.814067
_cell_length_b                    14.875143
_cell_length_c                    14.152822
_cell_angle_alpha                 89.662768
_cell_angle_beta                  103.939385
_cell_angle_gamma                 90.137017
_cell_volume                      2209.55045947

loop_
_atom_site_label
_atom_site_type_symbol
_atom_type_description
_atom_site_fract_x
_atom_site_fract_y
_atom_site_fract_z
_atom_type_partial_charge
C1    C     C_R   0.501918 0.327051 0.500693 1.011069
C2    C     C_R   0.502061 0.673046 0.500032 1.000126
C3    C     C_R   0.580995 0.048615 0.519062 -0.109496
C4    C     C_R   0.581466 0.951878 0.511875 -0.110798
C5    C     C_R   0.391552 0.526736 0.084948 -0.282227
C6    C     C_R   0.609166 0.525104 0.914943 -0.255629
C7    C     C_R   0.393701 0.526158 0.184728 0.065999
C8    C     C_R   0.607048 0.524676 0.815169 0.072394
C9    C     C_R   0.605989 0.473505 0.223834 0.072449
C10   C     C_R   0.392865 0.475717 0.776245 0.058457
C11   C     C_R   0.608097 0.473559 0.124894 -0.255847
C12   C     C_R   0.390713 0.475688 0.875170 -0.284232
C13   C     C_R   0.499876 0.500371 0.053255 0.141968
C14   C     C_R   0.499900 0.500487 0.946724 0.144132
C15   C     C_R   0.258938 0.502386 0.459545 0.986876
C16   C     C_R   0.741059 0.502332 0.540424 0.899463
C17   C     C_2   0.122699 0.511878 0.436439 -0.308134
C18   C     C_2   0.877335 0.511661 0.563407 -0.391639
C19   C     C_2   0.067808 0.529159 0.508901 -0.130561
C20   C     C_2   0.932225 0.529015 0.490741 -0.158847
C21   C     C_R   0.504606 0.085193 0.575585 -0.236050
C22   C     C_R   0.508969 0.914955 0.425915 -0.234834
C23   C     C_R   0.472118 0.175394 0.567657 0.403012
C24   C     C_R   0.476273 0.824714 0.421245 0.397521
C25   C     C_R   0.524800 0.230861 0.505912 -0.395275
C26   C     C_R   0.525113 0.769430 0.503369 -0.395415
C27   C     C_R   0.608295 0.194624 0.452706 0.384360
C28   C     C_R   0.605092 0.806135 0.588793 0.389117
C29   C     C_R   0.633889 0.102800 0.457160 0.446958
C30   C     C_R   0.630610 0.897995 0.594158 0.446157
H1    H     H_    0.877467 0.536793 0.415811 0.187234
H2    H     H_    0.122561 0.537052 0.583730 0.178745
H3    H     H_    0.693374 0.451302 0.104676 0.142145
H4    H     H_    0.304614 0.454846 0.895442 0.142181
H5    H     H_    0.932441 0.503714 0.638135 0.154073
H6    H     H_    0.067540 0.503784 0.361829 0.145068
H7    H     H_    0.462548 0.041240 0.620670 0.233770
H8    H     H_    0.469778 0.958726 0.364562 0.235546
H9    H     H_    0.306198 0.549087 0.033220 0.143391
H10   H     H_    0.695331 0.545887 0.966614 0.142487
H11   H     H_    0.310192 0.547433 0.207945 0.152015
H12   H     H_    0.691434 0.544306 0.791954 0.123190
H13   H     H_    0.689588 0.451863 0.277631 0.124487
H14   H     H_    0.308507 0.455415 0.722568 0.144339
N1    N     N_R   0.500000 0.499980 0.252470 -0.087423
N2    N     N_R   0.500000 0.500020 0.747530 -0.085576
O1    O     O_R   0.500010 0.369070 0.579480 -0.553874
O2    O     O_R   0.499990 0.630930 0.420520 -0.553897
O3    O     O_R   0.500010 0.369060 0.420520 -0.578117
O4    O     O_R   0.499990 0.630940 0.579480 -0.580962
O5    O     O_R   0.317810 0.500010 0.549800 -0.629233
O6    O     O_R   0.682190 0.499990 0.450200 -0.636438
O7    O     O_R   0.317810 0.500000 0.390840 -0.623269
O8    O     O_R   0.682190 0.500000 0.609160 -0.637969
Zn1   Zn    Zn3+2 0.500000 0.500010 0.606140 1.008309
Zn2   Zn    Zn3+2 0.500000 0.499990 0.393860 1.013286
S1    S     S_3+6 0.358641 0.213506 0.630633 0.030906
O9    O     O_2   0.267519 0.278620 0.568433 -0.325083
O10   O     O_2   0.284529 0.135323 0.656557 -0.307099
O11   O     O_3   0.436261 0.264737 0.733512 -0.530941
H15   H     H_    0.370652 0.274944 0.770521 0.373081
S2    S     S_3+6 0.367337 0.786515 0.314071 0.040084
O12   O     O_2   0.273156 0.721877 0.339585 -0.315857
O13   O     O_2   0.296162 0.864710 0.258743 -0.287794
O14   O     O_3   0.449565 0.734710 0.243369 -0.533443
H16   H     H_    0.387645 0.726624 0.179887 0.374160
O15   O     O_3   0.659215 0.248114 0.391110 -0.549705
C31   C     C_3   0.779737 0.279376 0.442731 -0.197613
H17   H     H_    0.776176 0.311009 0.513148 0.116585
H18   H     H_    0.812872 0.331405 0.398012 0.180906
H19   H     H_    0.850857 0.224229 0.455541 0.172729
O16   O     O_3   0.653041 0.752973 0.669904 -0.542901
C32   C     C_3   0.775371 0.722736 0.666277 -0.226455
H20   H     H_    0.776391 0.692651 0.594596 0.122742
H21   H     H_    0.805714 0.669776 0.722498 0.175366
H22   H     H_    0.846007 0.778129 0.683246 0.165222
O17   O     O_3   0.696469 0.066797 0.391300 -0.557827
C33   C     C_3   0.815159 0.030603 0.440666 -0.232857
H23   H     H_    0.804112 0.959361 0.460651 0.161010
H24   H     H_    0.863214 0.069953 0.505992 0.119285
H25   H     H_    0.879310 0.031481 0.390203 0.213680
O18   O     O_3   0.689100 0.934316 0.683931 -0.557424
C34   C     C_3   0.808823 0.971071 0.681693 -0.240260
H26   H     H_    0.798425 0.042281 0.657525 0.163983
H27   H     H_    0.859873 0.931974 0.635925 0.112213
H28   H     H_    0.869867 0.970434 0.756894 0.208719

loop_
_geom_bond_atom_site_label_1
_geom_bond_atom_site_label_2
_ccdc_geom_bond_type
C9    N1    A    
C27   C29   A    
C32   H20   S    
C19   C20   S    
O17   C33   S    
C7    N1    A    
C8    H12   S    
C33   H24   S    
S1    O10   D    
C22   H8    S    
C23   S1    S    
C3    C29   A    
S2    O13   D    
C2    O4    A    
N1    Zn2   S    
C31   H17   S    
N2    Zn1   S    
C10   N2    A    
C17   H6    S    
C15   O5    A    
C18   H5    S    
C5    C13   A    
C23   C25   A    
C13   C14   S    
C1    C25   S    
C32   H21   S    
C28   O16   S    
C19   H2    S    
C8    N2    A    
C9    H13   S    
C10   H14   S    
O15   C31   S    
C11   H3    S    
C6    H10   S    
C5    C7    A    
C33   H23   S    
C1    O1    A    
S1    O11   S    
C6    C8    A    
O5    Zn1   S    
C2    O2    A    
O11   H15   S    
C30   O18   S    
S2    O12   D    
C6    C14   A    
C4    C22   A    
C34   H26   S    
C21   H7    S    
C2    C26   S    
C9    C11   A    
C10   C12   A    
C31   H18   S    
C34   H27   S    
C12   C14   A    
O14   H16   S    
C21   C23   A    
C32   H22   S    
C22   C24   A    
C3    C21   A    
C12   H4    S    
C3    C4    S    
C15   O7    A    
O1    Zn1   S    
O7    Zn2   S    
O2    Zn2   S    
O8    Zn1   S    
C24   S2    S    
S2    O14   S    
C16   O6    A    
C24   C26   A    
O16   C32   S    
C15   C17   S    
C25   C27   A    
O3    Zn2   S    
C26   C28   A    
O4    Zn1   S    
C5    H9    S    
C11   C13   A    
C33   H25   S    
S1    O9    D    
C31   H19   S    
C28   C30   A    
C17   C19   D    
C18   C20   D    
C7    H11   S    
C16   O8    A    
C27   O15   S    
C34   H28   S    
C29   O17   S    
C16   C18   S    
O18   C34   S    
C1    O3    A    
C4    C30   A    
O6    Zn2   S    
C20   H1    S    
