data_mof_unit_23740.cif
_audit_creation_date              2013-03-05T15:54:37-0500
_audit_creation_method            fapswitch 2.2
_symmetry_space_group_name_H-M    P1
_symmetry_Int_Tables_number       1
_space_group_crystal_system       triclinic
_cell_length_a                    9.996261
_cell_length_b                    10.60523
_cell_length_c                    16.701092
_cell_angle_alpha                 92.581219
_cell_angle_beta                  84.800692
_cell_angle_gamma                 91.673922
_cell_volume                      1760.89108031

loop_
_atom_site_label
_atom_site_type_symbol
_atom_site_description
_atom_site_fract_x
_atom_site_fract_y
_atom_site_fract_z
_atom_type_partial_charge
O1    O     O_R   0.385310 0.683220 0.500000 -0.645735
O2    O     O_R   0.614640 0.683250 0.500010 -0.550465
C1    C     C_R   0.501409 0.739293 0.501988 0.882037
O3    O     O_R   0.371780 0.500010 0.615800 -0.658645
O4    O     O_R   0.601110 0.500030 0.615800 -0.573007
C2    C     C_R   0.481155 0.494829 0.652940 0.882357
Zn1   Zn    Zn3+2 0.346870 0.499980 0.499990 1.013692
Zn2   Zn    Zn3+2 0.653130 0.500020 0.500010 1.041401
O5    O     O_R   0.385360 0.316750 0.499990 -0.580118
O6    O     O_R   0.614690 0.316780 0.500000 -0.601370
O7    O     O_R   0.398890 0.499970 0.384200 -0.572334
O8    O     O_R   0.628220 0.499990 0.384200 -0.604826
C3    C     C_R   0.498132 0.260893 0.500993 0.846228
C4    C     C_R   0.519089 0.493716 0.347211 0.935253
C5    C     C_R   0.469114 0.476275 0.739325 -0.112809
C6    C     C_R   0.571962 0.419316 0.776745 0.257679
C7    C     C_R   0.556294 0.404159 0.858914 -0.094381
C8    C     C_R   0.436150 0.435589 0.904231 0.039989
C9    C     C_R   0.333207 0.489286 0.866938 0.023335
C10   C     C_R   0.350320 0.510829 0.785222 -0.177049
C11   C     C_R   0.450457 0.286742 0.170091 0.353545
C12   C     C_R   0.454901 0.334861 0.248066 -0.214671
C13   C     C_R   0.614426 0.500555 0.203753 0.215178
C14   C     C_R   0.612632 0.451167 0.124393 0.251645
C15   C     C_R   0.523365 0.349021 0.107547 -0.122532
C16   C     C_2   0.423360 0.422945 0.991973 0.169529
C17   C     C_2   0.483970 0.327640 0.025495 0.208238
C18   C     C_R   0.529171 0.445406 0.264475 -0.200055
H1    H     H_    0.397195 0.287286 0.296167 0.226035
H2    H     H_    0.240108 0.515418 0.901123 0.194475
H3    H     H_    0.269927 0.553263 0.757785 0.168328
H4    H     H_    0.638590 0.366023 0.887084 0.216703
H5    H     H_    0.617603 0.881157 0.391437 0.183355
C19   C     C_R   0.388175 0.876554 0.644837 -0.180598
H6    H     H_    0.401806 0.776985 0.650934 0.154283
C20   C     C_R   0.320665 0.943526 0.709087 -0.168002
H7    H     H_    0.280394 0.893013 0.761167 0.188886
C21   C     C_R   0.304817 0.073852 0.705973 0.374769
C22   C     C_R   0.362993 0.136536 0.638591 -0.231365
H8    H     H_    0.354803 0.237785 0.638344 0.180594
C23   C     C_R   0.431282 0.069063 0.572851 0.047068
C24   C     C_R   0.440212 0.937920 0.575117 0.118585
C25   C     C_R   0.504535 0.872288 0.507787 -0.033744
C26   C     C_R   0.567562 0.933462 0.442319 -0.122692
H9    H     H_    0.612360 0.110120 0.390126 0.162301
C27   C     C_R   0.563419 0.062112 0.441275 -0.157694
C28   C     C_R   0.494287 0.128589 0.505041 -0.039757
H10   H     H_    0.886233 0.386245 0.394620 0.182500
C29   C     C_R   0.852569 0.635792 0.627376 0.368119
C30   C     C_R   0.916340 0.663698 0.697508 -0.106455
H11   H     H_    0.862182 0.710029 0.749260 0.210859
C31   C     C_R   0.054663 0.668263 0.693420 -0.239662
H12   H     H_    0.105013 0.712266 0.742565 0.173737
C32   C     C_R   0.127530 0.629798 0.622628 -0.116779
H13   H     H_    0.230893 0.655401 0.616511 0.193860
C33   C     C_R   0.065812 0.564058 0.560878 0.094397
C34   C     C_R   0.921971 0.565692 0.561626 0.050882
N1    N     N_R   0.857140 0.501200 0.500750 -0.136037
C35   C     C_R   0.934730 0.438191 0.441710 -0.101135
C36   C     C_R   0.077062 0.436818 0.441796 0.366291
N2    N     N_R   0.142740 0.501280 0.500770 -0.165956
Br1   Br    Br    0.731991 0.349354 0.721045 -0.392882
N3    N     N_R   0.696177 0.507021 0.060290 0.223471
O9    O     O_R   0.771735 0.436182 0.010407 -0.332258
O10   O     O_R   0.691120 0.627167 0.048560 -0.256458
N4    N     N_R   0.230080 0.142254 0.770826 0.232987
O11   O     O_R   0.188984 0.087152 0.837019 -0.282444
O12   O     O_R   0.195150 0.257785 0.762342 -0.367984
N5    N     N_R   0.755590 0.726083 0.614094 0.219919
O13   O     O_R   0.656903 0.746061 0.669153 -0.425011
O14   O     O_R   0.795012 0.818244 0.567872 -0.359515
N6    N     N_R   0.150626 0.362595 0.380593 0.210109
O15   O     O_R   0.194627 0.254273 0.398680 -0.371580
O16   O     O_R   0.138558 0.383759 0.305493 -0.326743
Br2   Br    Br    0.729574 0.643269 0.228687 -0.300266
N7    N     N_R   0.516636 0.210048 0.982292 0.224673
O17   O     O_R   0.609864 0.140371 0.005323 -0.263169
O18   O     O_R   0.442367 0.164627 0.927154 -0.298584
Br3   Br    Br    0.330644 0.145784 0.151338 -0.217649
N8    N     N_R   0.363542 0.524982 0.041869 0.204171
O19   O     O_R   0.375785 0.640562 0.018598 -0.287972
O20   O     O_R   0.288144 0.501499 0.107462 -0.301073

loop_
_geom_bond_atom_site_label_1
_geom_bond_atom_site_label_2
_geom_bond_distance
_ccdc_geom_bond_type
N4    O12   1.301075 A    
N3    O10   1.300961 A    
C12   H1    1.080817 S    
C23   C24   1.398697 A    
C9    C10   1.388334 A    
C19   C24   1.410186 A    
C22   C23   1.416130 A    
H9    C27   1.084970 S    
Zn1   O7    1.956473 S    
C1    C25   1.409028 S    
C16   C17   1.360267 D    
C20   H7    1.082347 S    
N7    O18   1.301634 A    
C8    C9    1.397683 A    
C21   C22   1.404531 A    
O7    C4    1.302368 A    
C36   N6    1.424888 S    
C5    C6    1.413921 A    
C29   C34   1.434687 A    
C33   C34   1.437393 A    
C19   H6    1.079151 S    
N5    O14   1.302621 A    
O5    C3    1.290476 A    
Zn1   N2    2.039843 S    
Zn2   N1    2.040163 S    
C2    C5    1.458549 S    
C27   C28   1.391472 A    
C21   N4    1.439362 S    
C26   C27   1.367141 A    
C6    C7    1.383138 A    
C8    C16   1.471196 S    
C30   C31   1.377743 A    
C13   C14   1.404484 A    
N4    O11   1.301630 A    
C35   C36   1.423415 A    
C12   C18   1.399216 A    
C11   C12   1.381171 A    
C6    Br1   1.926749 S    
O3    Zn1   1.972355 S    
C31   C32   1.382987 A    
C30   H11   1.083525 S    
C5    C10   1.402546 A    
C32   C33   1.398451 A    
C14   C15   1.417917 A    
N6    O16   1.300928 A    
C22   H8    1.079488 S    
C3    C28   1.407012 S    
N8    O19   1.301538 A    
N1    C35   1.361134 A    
C16   N8    1.445413 S    
C36   N2    1.377972 A    
O1    C1    1.290935 A    
C25   C26   1.388705 A    
Zn2   O8    1.972355 S    
C11   Br3   1.920531 S    
C7    C8    1.400793 A    
C23   C28   1.410550 A    
C13   C18   1.401598 A    
N7    O17   1.301260 A    
N8    O20   1.301583 A    
O8    C4    1.300125 A    
C14   N3    1.435500 S    
O3    C2    1.308683 A    
C24   C25   1.409608 A    
C17   N7    1.443088 S    
C31   H12   1.082327 S    
H10   C35   1.082362 S    
Zn1   O5    1.991917 S    
C11   C15   1.398036 A    
C32   H13   1.057701 S    
O1    Zn1   1.969882 S    
H5    C26   1.084797 S    
O2    Zn2   1.991915 S    
C13   Br2   1.928054 S    
N6    O15   1.299722 A    
O6    C3    1.290800 A    
O4    Zn2   1.956473 S    
C15   C17   1.465937 S    
C20   C21   1.399595 A    
O2    C1    1.290842 A    
C34   N1    1.397262 A    
O4    C2    1.300022 A    
C19   C20   1.392639 A    
N5    O13   1.301497 A    
N3    O9    1.300640 A    
Zn2   O6    1.969882 S    
C29   C30   1.399621 A    
C7    H4    1.080916 S    
C33   N2    1.368269 A    
C29   N5    1.420651 S    
C4    C18   1.447741 S    
C9    H2    1.083224 S    
C10   H3    1.079243 S    
