data_mof_unit_20151.cif
_audit_creation_date              2013-03-05T16:53:31-0500
_audit_creation_method            fapswitch 2.2
_symmetry_space_group_name_H-M    P1
_symmetry_Int_Tables_number       1
_space_group_crystal_system       triclinic
_cell_length_a                    17.440341
_cell_length_b                    16.798622
_cell_length_c                    10.746821
_cell_angle_alpha                 89.99012
_cell_angle_beta                  91.32645
_cell_angle_gamma                 89.996056
_cell_volume                      3147.69209861

loop_
_atom_site_label
_atom_site_type_symbol
_atom_site_description
_atom_site_fract_x
_atom_site_fract_y
_atom_site_fract_z
_atom_type_partial_charge
O1    O     O_R   0.389110 0.566570 0.499990 -0.578751
O2    O     O_R   0.610890 0.566570 0.500010 -0.579317
O3    O     O_R   0.389090 0.433480 0.499980 -0.537339
O4    O     O_R   0.610910 0.433480 0.500020 -0.538436
C1    C     C_R   0.352892 0.499986 0.508762 0.945590
C2    C     C_R   0.647567 0.499970 0.497695 0.940682
O5    O     O_R   0.500000 0.566530 0.319070 -0.562208
O6    O     O_R   0.500000 0.566530 0.680930 -0.559732
O7    O     O_R   0.499970 0.433440 0.319070 -0.609594
O8    O     O_R   0.500030 0.433440 0.680930 -0.613998
C3    C     C_R   0.498270 0.499993 0.262142 0.918291
C4    C     C_R   0.501368 0.499968 0.737847 0.910190
Zn1   Zn    Zn3+2 0.500000 0.588860 0.500000 1.041935
Zn2   Zn    Zn3+2 0.500000 0.411140 0.500000 1.020020
C5    C     C_2   0.493982 0.433798 0.933110 -0.204696
C6    C     C_2   0.501520 0.433499 0.066552 -0.200791
C7    C     C_2   0.508409 0.499984 0.869438 -0.299366
C8    C     C_2   0.490056 0.500170 0.130617 -0.303279
C9    C     C_R   0.852487 0.570950 0.526862 -0.393136
C10   C     C_R   0.156533 0.569163 0.606484 -0.376263
C11   C     C_R   0.773533 0.571877 0.495496 0.502208
C12   C     C_R   0.234346 0.571857 0.575706 0.502390
C13   C     C_R   0.731999 0.499677 0.506022 -0.362849
C14   C     C_R   0.271275 0.499584 0.542996 -0.369989
C15   C     C_R   0.771182 0.427480 0.532506 0.351388
C16   C     C_R   0.231590 0.426004 0.553221 0.370009
C17   C     C_R   0.848043 0.429241 0.570902 0.464175
C18   C     C_R   0.154276 0.425216 0.584361 0.472271
C19   C     C_R   0.887853 0.501089 0.567519 -0.117070
C20   C     C_R   0.116852 0.497586 0.604738 -0.133241
C21   C     C_1   0.967884 0.501619 0.591644 0.067981
C22   C     C_1   0.035804 0.500447 0.603350 0.048433
C23   C     C_R   0.469048 0.833173 0.398118 0.321144
C24   C     C_R   0.530242 0.833154 0.602321 0.322084
C25   C     C_R   0.471915 0.748627 0.398301 0.447100
C26   C     C_R   0.527663 0.748614 0.601928 0.451883
N1    N     N_R   0.500000 0.707230 0.500000 -0.210782
C27   C     C_R   0.499554 0.876369 0.500303 -0.265127
C28   C     C_1   0.499498 0.964184 0.500431 0.113429
C29   C     C_1   0.499498 0.037068 0.500532 0.161038
C30   C     C_R   0.444386 0.167706 0.430547 0.279461
C31   C     C_R   0.554732 0.167498 0.570898 0.282493
C32   C     C_R   0.448205 0.252567 0.425875 0.419241
C33   C     C_R   0.551324 0.252430 0.574865 0.432661
N2    N     N_R   0.500000 0.292770 0.500000 -0.213667
C34   C     C_R   0.499577 0.124817 0.500574 -0.217496
H1    H     H_    0.477661 0.378564 0.887288 0.161932
H2    H     H_    0.516019 0.377600 0.111920 0.164790
O9    O     O_3   0.395785 0.296657 0.355802 -0.528983
C35   C     C_3   0.399660 0.276950 0.228353 -0.179003
H3    H     H_    0.357813 0.229343 0.204374 0.197662
H4    H     H_    0.458270 0.259338 0.199430 0.108005
H5    H     H_    0.382553 0.330029 0.172985 0.161670
O10   O     O_3   0.602713 0.296390 0.646988 -0.523672
C36   C     C_3   0.596212 0.277276 0.774279 -0.200116
H6    H     H_    0.636804 0.229008 0.800724 0.194361
H7    H     H_    0.536755 0.260899 0.800460 0.110317
H8    H     H_    0.613241 0.330262 0.829893 0.162562
H9    H     H_    0.528021 0.554802 0.913084 0.173385
H10   H     H_    0.472037 0.555670 0.087284 0.174577
H11   H     H_    0.887831 0.623546 0.518738 0.170002
H12   H     H_    0.125341 0.622745 0.629036 0.171168
O11   O     O_3   0.734994 0.638391 0.446469 -0.576491
C37   C     C_3   0.775119 0.710902 0.460210 -0.355803
H13   H     H_    0.823922 0.713474 0.395651 0.177185
H14   H     H_    0.794126 0.721085 0.558489 0.143253
H15   H     H_    0.735562 0.760230 0.434318 0.186348
O12   O     O_3   0.277814 0.641483 0.586785 -0.568448
C38   C     C_3   0.235690 0.711306 0.558990 -0.347944
H16   H     H_    0.201947 0.730052 0.640319 0.175498
H17   H     H_    0.198529 0.704292 0.474027 0.147271
H18   H     H_    0.276781 0.760080 0.540591 0.173509
O13   O     O_3   0.734344 0.354727 0.525574 -0.538646
C39   C     C_3   0.740621 0.325500 0.403137 -0.226982
H19   H     H_    0.801276 0.311192 0.382221 0.169419
H20   H     H_    0.716603 0.368111 0.332993 0.134777
H21   H     H_    0.706878 0.269769 0.394332 0.156600
O14   O     O_3   0.267037 0.354529 0.526071 -0.527764
C40   C     C_3   0.293314 0.318799 0.638320 -0.214296
H22   H     H_    0.246276 0.285471 0.682437 0.155081
H23   H     H_    0.319369 0.362315 0.705442 0.119234
H24   H     H_    0.338599 0.275008 0.616556 0.159414
O15   O     O_3   0.886046 0.359268 0.600948 -0.576548
C41   C     C_3   0.871296 0.340459 0.726027 -0.311050
H25   H     H_    0.809361 0.328159 0.739784 0.198120
H26   H     H_    0.891469 0.388671 0.789959 0.136127
H27   H     H_    0.903470 0.285616 0.751371 0.179881
O16   O     O_3   0.114759 0.353596 0.581332 -0.560163
C42   C     C_3   0.092831 0.333029 0.703005 -0.282709
H28   H     H_    0.039224 0.364042 0.727994 0.189831
H29   H     H_    0.138424 0.345532 0.774806 0.112841
H30   H     H_    0.081025 0.268149 0.705449 0.186499
O17   O     O_3   0.441727 0.872234 0.292650 -0.542296
C43   C     C_3   0.367282 0.901596 0.314468 -0.261835
H31   H     H_    0.330596 0.858149 0.364098 0.099470
H32   H     H_    0.338729 0.914409 0.223367 0.190632
H33   H     H_    0.369864 0.958240 0.367192 0.197384
O18   O     O_3   0.557678 0.872199 0.707692 -0.541524
C44   C     C_3   0.632310 0.901014 0.685821 -0.263502
H34   H     H_    0.669070 0.856733 0.638146 0.102055
H35   H     H_    0.660482 0.914976 0.776797 0.190546
H36   H     H_    0.630167 0.956911 0.631075 0.195552
O19   O     O_3   0.452492 0.708030 0.290459 -0.540051
C45   C     C_3   0.372299 0.697734 0.280992 -0.210655
H37   H     H_    0.344082 0.693164 0.372349 0.162404
H38   H     H_    0.360259 0.641450 0.230218 0.163484
H39   H     H_    0.346210 0.746632 0.225171 0.169677
O20   O     O_3   0.547529 0.707909 0.709487 -0.539472
C46   C     C_3   0.627842 0.698623 0.719066 -0.208439
H40   H     H_    0.656839 0.699494 0.628114 0.164373
H41   H     H_    0.640601 0.640200 0.763027 0.161183
H42   H     H_    0.652614 0.745227 0.781011 0.170542
O21   O     O_3   0.388899 0.126465 0.363010 -0.592923
C47   C     C_3   0.320871 0.125796 0.431350 -0.323268
H43   H     H_    0.295931 0.186500 0.437980 0.228487
H44   H     H_    0.330377 0.099891 0.525888 0.148007
H45   H     H_    0.278141 0.087846 0.381525 0.178521
O22   O     O_3   0.608806 0.125803 0.640887 -0.591817
C48   C     C_3   0.678993 0.127202 0.578469 -0.329534
H46   H     H_    0.704936 0.187561 0.581689 0.227965
H47   H     H_    0.672404 0.106144 0.480474 0.148609
H48   H     H_    0.719555 0.086227 0.627119 0.174755

loop_
_geom_bond_atom_site_label_1
_geom_bond_atom_site_label_2
_geom_bond_distance
_ccdc_geom_bond_type
C36   H6    1.109025 S    
C3    C8    1.417411 S    
O17   C43   1.413522 S    
C26   O20   1.380183 S    
O13   C39   1.411127 S    
C41   H27   1.109316 S    
C5    H1    1.085433 S    
C6    H2    1.085135 S    
C45   H38   1.109371 S    
C47   H43   1.111550 S    
C10   C20   1.387279 A    
C29   C34   1.474053 S    
C16   O14   1.384675 S    
C39   H20   1.114123 S    
O1    C1    1.289102 A    
C26   N1    1.375430 A    
C25   N1    1.375841 A    
C14   C16   1.422143 A    
C25   O19   1.380276 S    
C46   H41   1.109436 S    
C27   C28   1.475169 S    
C17   C19   1.393332 A    
C5    C6    1.437068 S    
O20   C46   1.410735 S    
C31   C34   1.406120 A    
C38   H17   1.113687 S    
O2    Zn1   1.969846 S    
O22   C48   1.409587 S    
C24   O18   1.384455 S    
C21   C22   1.188464 T    
O12   C38   1.412194 S    
C39   H21   1.108727 S    
C4    C7    1.416662 S    
C18   O16   1.386586 S    
C35   H4    1.115215 S    
C30   C34   1.406466 A    
C42   H29   1.115112 S    
C17   O15   1.383862 S    
Zn1   N1    1.988453 S    
C10   H12   1.082116 S    
C30   C32   1.428033 A    
O2    C2    1.289226 A    
C31   C33   1.428654 A    
C45   H37   1.111008 S    
Zn2   N2    1.988453 S    
C48   H47   1.114444 S    
C35   H5    1.108907 S    
C39   H19   1.112787 S    
C37   H15   1.109490 S    
C41   H25   1.112985 S    
O4    C2    1.287532 A    
O8    Zn2   1.980231 S    
C46   H42   1.108894 S    
C28   C29   1.224362 T    
C40   H23   1.116358 S    
O14   C40   1.414071 S    
C31   O22   1.382964 S    
C43   H33   1.107933 S    
C40   H22   1.108692 S    
C37   H14   1.112897 S    
C38   H18   1.109309 S    
O5    C3    1.274334 A    
O7    Zn2   1.980105 S    
C32   N2    1.368812 A    
O15   C41   1.410237 S    
O6    C4    1.274391 A    
C35   H3    1.109084 S    
C43   H31   1.114561 S    
C42   H30   1.109604 S    
C43   H32   1.109130 S    
O7    C3    1.274365 A    
C12   O12   1.397452 S    
O3    Zn2   1.970346 S    
O8    C4    1.274071 A    
C7    H9    1.085245 S    
C8    H10   1.085305 S    
C44   H35   1.109131 S    
C10   C12   1.404960 A    
O9    C35   1.412306 S    
C36   H7    1.115190 S    
C12   C14   1.422290 A    
O1    Zn1   1.969899 S    
C9    C19   1.391356 A    
C33   N2    1.368992 A    
O21   C47   1.409782 S    
C48   H48   1.109166 S    
C5    C7    1.332459 D    
O10   C36   1.412211 S    
C9    C11   1.410133 A    
C24   C27   1.409955 A    
C32   O9    1.385397 S    
C30   O21   1.382367 S    
O3    C1    1.287748 A    
C23   O17   1.384553 S    
C40   H24   1.108217 S    
C47   H44   1.114053 S    
C48   H46   1.110556 S    
C15   C17   1.393713 A    
C16   C18   1.396855 A    
C23   C27   1.410262 A    
C44   H34   1.114498 S    
C37   H13   1.111300 S    
C11   C13   1.418588 A    
C19   C21   1.413759 S    
C46   H40   1.110967 S    
C20   C22   1.414048 S    
C1    C14   1.478450 S    
C9    H11   1.082027 S    
C2    C13   1.473185 S    
C18   C20   1.399477 A    
C23   C25   1.421132 A    
C24   C26   1.420875 A    
C15   O13   1.381988 S    
C13   C15   1.417630 A    
O4    Zn2   1.970395 S    
C38   H16   1.110550 S    
C11   O11   1.400399 S    
C47   H45   1.109155 S    
O11   C37   1.410903 S    
O6    Zn1   1.980211 S    
C33   O10   1.384734 S    
O5    Zn1   1.980339 S    
C44   H36   1.108171 S    
O16   C42   1.413674 S    
C6    C8    1.332272 D    
O18   C44   1.413489 S    
C36   H8    1.108902 S    
O19   C45   1.410587 S    
C41   H26   1.113906 S    
C42   H28   1.108700 S    
C45   H39   1.108494 S    
