data_mof_unit_66452.cif
_audit_creation_date              2013-03-05T16:01:27-0500
_audit_creation_method            fapswitch 2.2
_symmetry_space_group_name_H-M    P1
_symmetry_Int_Tables_number       1
_space_group_crystal_system       triclinic
_cell_length_a                    21.420033
_cell_length_b                    29.166391
_cell_length_c                    29.178154
_cell_angle_alpha                 90.135549
_cell_angle_beta                  89.897232
_cell_angle_gamma                 89.931091
_cell_volume                      18228.8138926

loop_
_atom_site_label
_atom_site_type_symbol
_atom_site_description
_atom_site_fract_x
_atom_site_fract_y
_atom_site_fract_z
_atom_type_partial_charge
O1    O     O_R   1.000000 0.964340 0.063140 -0.594928
O2    O     O_R   0.000000 0.964340 0.936860 -0.631823
O3    O     O_R   0.500000 0.464340 0.563140 -0.587818
O4    O     O_R   0.500000 0.464340 0.436860 -0.642100
O5    O     O_R   1.000000 0.035640 0.063120 -0.601782
O6    O     O_R   0.000000 0.035640 0.936880 -0.610959
O7    O     O_R   0.500000 0.535640 0.563120 -0.611932
O8    O     O_R   0.500000 0.535640 0.436880 -0.598494
C1    C     C_R   0.000179 0.000045 0.086742 0.957862
C2    C     C_R   0.000184 0.999931 0.913253 0.871411
C3    C     C_R   0.500111 0.500042 0.586743 0.965704
C4    C     C_R   0.500144 0.499956 0.413250 0.854197
O9    O     O_R   0.093030 0.964340 0.000000 -0.620037
O10   O     O_R   0.906970 0.964340 0.000000 -0.635440
O11   O     O_R   0.593030 0.464340 0.500000 -0.620748
O12   O     O_R   0.406970 0.464340 0.500000 -0.629501
O13   O     O_R   0.093040 0.035640 0.000000 -0.577265
O14   O     O_R   0.906960 0.035640 0.000000 -0.609899
O15   O     O_R   0.593040 0.535640 0.500000 -0.578837
O16   O     O_R   0.406960 0.535640 0.500000 -0.581645
C5    C     C_R   0.121488 0.999804 0.992097 1.005106
C6    C     C_R   0.877496 0.999950 0.998760 1.035182
C7    C     C_R   0.621505 0.499808 0.492148 1.003448
C8    C     C_R   0.377626 0.500057 0.496727 1.022191
Zn1   Zn    Zn3+2 1.000000 0.952380 0.000000 0.931699
Zn2   Zn    Zn3+2 0.500000 0.452380 0.500000 0.940883
Zn3   Zn    Zn3+2 1.000000 0.047600 0.000000 0.971542
Zn4   Zn    Zn3+2 0.500000 0.547600 0.500000 0.986663
C9    C     C_3   0.224705 0.992307 0.037023 0.318650
C10   C     C_3   0.770914 0.020403 0.959493 0.289288
C11   C     C_3   0.770965 0.024509 0.034645 0.323501
C12   C     C_3   0.227501 0.042336 0.981382 0.326355
C13   C     C_3   0.724751 0.492227 0.537037 0.318433
C14   C     C_3   0.272326 0.543640 0.484049 0.301807
C15   C     C_3   0.271367 0.492886 0.539635 0.343033
C16   C     C_3   0.727505 0.542387 0.481514 0.326498
C17   C     C_3   0.263594 0.036198 0.026788 -0.246626
C18   C     C_3   0.730526 0.045539 0.995895 -0.226735
C19   C     C_3   0.763630 0.536144 0.526889 -0.246322
C20   C     C_3   0.232677 0.536226 0.528067 -0.244450
C21   C     C_3   0.310727 0.005459 0.999663 -0.366781
C22   C     C_3   0.688981 0.002001 0.999065 -0.338303
C23   C     C_3   0.810743 0.505470 0.499675 -0.367010
C24   C     C_3   0.189035 0.504369 0.499530 -0.361219
C25   C     C_3   0.272199 0.962252 0.010305 0.389358
C26   C     C_3   0.728297 0.977788 0.962139 0.348860
C27   C     C_3   0.730061 0.981317 0.036999 0.354793
C28   C     C_3   0.273703 0.011965 0.955061 0.365220
C29   C     C_3   0.772229 0.462236 0.510230 0.389016
C30   C     C_3   0.228237 0.512635 0.456005 0.355339
C31   C     C_3   0.228584 0.461937 0.510977 0.368543
C32   C     C_3   0.773693 0.512081 0.455103 0.364936
C33   C     C_3   0.235620 0.968801 0.965725 0.316103
C34   C     C_3   0.769076 0.957284 0.999959 0.309280
C35   C     C_3   0.735622 0.468890 0.465679 0.316254
C36   C     C_3   0.267504 0.470402 0.467597 0.299367
C37   C     C_3   0.188397 0.999279 0.991909 -0.384434
C38   C     C_3   0.811107 0.999921 0.998038 -0.359213
C39   C     C_3   0.688412 0.499300 0.491952 -0.383949
C40   C     C_3   0.311075 0.500710 0.496249 -0.350374
C41   C     C_1   0.000417 0.000140 0.137401 -0.229069
C42   C     C_1   0.000327 0.999825 0.862596 -0.232399
C43   C     C_1   0.500246 0.500122 0.637401 -0.227187
C44   C     C_1   0.500539 0.499948 0.362602 -0.222636
C45   C     C_1   0.000591 0.000155 0.179598 -0.012077
C46   C     C_1   0.000330 0.999832 0.820401 -0.008609
C47   C     C_1   0.500355 0.500118 0.679598 -0.015474
C48   C     C_1   0.500746 0.500005 0.320405 -0.015477
C49   C     C_1   0.000675 0.000131 0.229415 0.003576
C50   C     C_1   0.000251 0.999871 0.770583 0.000646
C51   C     C_1   0.500426 0.500081 0.729413 0.002284
C52   C     C_1   0.500624 0.499986 0.270589 0.004720
C53   C     C_1   0.000612 0.000098 0.271618 0.001206
C54   C     C_1   0.000140 0.999906 0.728380 0.001073
C55   C     C_1   0.500407 0.500050 0.771616 0.000571
C56   C     C_1   0.500396 0.499965 0.228387 0.004686
C57   C     C_1   0.000422 0.000055 0.321446 -0.000681
C58   C     C_1   0.999995 0.999942 0.678552 -0.000845
C59   C     C_1   0.500308 0.500020 0.821445 -0.001744
C60   C     C_1   0.500115 0.499962 0.178559 -0.000641
C61   C     C_1   0.000234 0.000021 0.363655 -0.204518
C62   C     C_1   0.999915 0.999969 0.636344 -0.205359
C63   C     C_1   0.500193 0.500001 0.863653 -0.205523
C64   C     C_1   0.499952 0.499972 0.136349 -0.204884
O17   O     O_R   0.500000 0.063090 0.964350 -0.616137
O18   O     O_R   0.500000 0.063090 0.035650 -0.621212
O19   O     O_R   1.000000 0.563090 0.464350 -0.610446
O20   O     O_R   1.000000 0.563090 0.535650 -0.623523
C65   C     C_R   0.499572 0.086699 0.000079 0.878769
C66   C     C_R   0.999604 0.586698 0.500043 0.855380
O21   O     O_R   0.406990 0.999940 0.964350 -0.557999
O22   O     O_R   0.593010 0.999940 0.035650 -0.584143
O23   O     O_R   0.593010 0.999940 0.964350 -0.640919
O24   O     O_R   0.406990 0.999940 0.035650 -0.656242
O25   O     O_R   0.906990 0.499940 0.464350 -0.558865
O26   O     O_R   0.093010 0.499940 0.535650 -0.610722
O27   O     O_R   0.093010 0.499940 0.464350 -0.605931
O28   O     O_R   0.906990 0.499940 0.535650 -0.656015
C67   C     C_R   0.377656 0.004477 0.000052 1.006777
C68   C     C_R   0.622506 0.001053 0.999857 1.026967
C69   C     C_R   0.877663 0.504494 0.500053 1.007959
C70   C     C_R   0.122441 0.502427 0.499935 1.019382
Zn5   Zn    Zn3+2 0.500000 0.999950 0.952390 0.971006
Zn6   Zn    Zn3+2 0.500000 0.999950 0.047610 0.956707
Zn7   Zn    Zn3+2 0.000000 0.499950 0.452390 0.989771
Zn8   Zn    Zn3+2 0.000000 0.499950 0.547610 0.944281
O29   O     O_R   0.500000 0.936790 0.964340 -0.598288
O30   O     O_R   0.500000 0.936790 0.035660 -0.603518
O31   O     O_R   0.000000 0.436790 0.464340 -0.593778
O32   O     O_R   0.000000 0.436790 0.535660 -0.603351
C71   C     C_R   0.500247 0.913195 0.999937 0.939580
C72   C     C_R   0.000320 0.413195 0.499939 0.952552
O33   O     O_R   0.052540 0.063140 0.500000 -0.592923
O34   O     O_R   0.947460 0.063140 0.500000 -0.592572
O35   O     O_R   0.552540 0.563140 0.000000 -0.592888
O36   O     O_R   0.447460 0.563140 0.000000 -0.592602
C73   C     C_R   0.999975 0.085636 0.500006 0.879042
C74   C     C_R   0.499970 0.585635 0.000005 0.879250
O37   O     O_R   0.052540 0.999990 0.436840 -0.592902
O38   O     O_R   0.947460 0.999990 0.563160 -0.593098
O39   O     O_R   0.947460 0.999990 0.436840 -0.592679
O40   O     O_R   0.052540 0.999990 0.563160 -0.592884
O41   O     O_R   0.552540 0.499990 0.936840 -0.593211
O42   O     O_R   0.447460 0.499990 0.063160 -0.592775
O43   O     O_R   0.447460 0.499990 0.936840 -0.592872
O44   O     O_R   0.552540 0.499990 0.063160 -0.592922
C75   C     C_R   0.000061 0.999989 0.414336 0.878876
C76   C     C_R   0.999958 0.999993 0.585663 0.878231
C77   C     C_R   0.500056 0.499984 0.914336 0.878631
C78   C     C_R   0.499962 0.499990 0.085665 0.878704
Zn9   Zn    Zn3+2 0.070140 0.999990 0.500000 0.962691
Zn10  Zn    Zn3+2 0.929860 0.999990 0.500000 0.962821
Zn11  Zn    Zn3+2 0.570140 0.499990 0.000000 0.961059
Zn12  Zn    Zn3+2 0.429860 0.499990 0.000000 0.962720
O45   O     O_R   0.052520 0.936840 0.500000 -0.592954
O46   O     O_R   0.947480 0.936840 0.500000 -0.592989
O47   O     O_R   0.552520 0.436840 0.000000 -0.594010
O48   O     O_R   0.447480 0.436840 0.000000 -0.592609
C79   C     C_R   0.000030 0.914328 0.500005 0.878675
C80   C     C_R   0.500017 0.414327 0.000010 0.878726
C81   C     C_1   0.498875 0.137353 0.000306 -0.212675
C82   C     C_1   0.999681 0.637349 0.500132 -0.239858
C83   C     C_1   0.498660 0.179558 0.000415 -0.010035
C84   C     C_1   0.999763 0.679548 0.500177 -0.019414
C85   C     C_1   0.498908 0.229374 0.000381 -0.009142
C86   C     C_1   0.999865 0.729368 0.500187 -0.002755
C87   C     C_1   0.999948 0.771581 0.500161 0.000625
C88   C     C_1   0.499269 0.271583 0.000300 -0.004440
C89   C     C_1   0.000031 0.821418 0.500108 -0.001002
C90   C     C_1   0.499699 0.321417 0.000187 -0.002819
C91   C     C_1   0.000068 0.863637 0.500057 -0.205495
C92   C     C_1   0.499962 0.363636 0.000096 -0.206755
C93   C     C_1   0.500373 0.862539 0.999812 -0.227155
C94   C     C_1   0.000563 0.362539 0.499819 -0.223895
C95   C     C_1   0.500309 0.820342 0.999828 0.001004
C96   C     C_1   0.000564 0.320343 0.499839 -0.003115
C97   C     C_1   0.500172 0.770533 0.999885 0.005087
C98   C     C_1   0.000433 0.270535 0.499897 0.004638
C99   C     C_1   0.000276 0.228332 0.499938 0.002897
C100  C     C_1   0.500065 0.728330 0.999928 0.002067
C101  C     C_1   0.000084 0.178513 0.499972 0.000429
C102  C     C_1   0.499969 0.678512 0.999965 0.000240
C103  C     C_1   0.999971 0.136306 0.499991 -0.204249
C104  C     C_1   0.499930 0.636305 0.999987 -0.204452
C105  C     C_R   0.273092 0.077379 0.057686 0.148765
C106  C     C_R   0.332868 0.093312 0.069372 -0.191865
C107  C     C_R   0.339898 0.132638 0.096352 -0.136438
C108  C     C_R   0.287415 0.156657 0.111672 -0.095399
C109  C     C_R   0.227793 0.141564 0.099738 -0.183994
C110  C     C_R   0.220652 0.102380 0.072614 -0.137122
H1    H     H_    0.374290 0.076368 0.057282 0.152587
H2    H     H_    0.386157 0.144682 0.105106 0.137474
H3    H     H_    0.292966 0.187134 0.132491 0.127889
H4    H     H_    0.187085 0.160398 0.111219 0.136815
H5    H     H_    0.174097 0.091504 0.063107 0.168235
C111  C     C_R   0.707274 0.094222 0.990752 0.133236
C112  C     C_R   0.737648 0.130714 0.012966 -0.179495
C113  C     C_R   0.718008 0.175898 0.006112 -0.157565
C114  C     C_R   0.669040 0.185252 0.976031 -0.093781
C115  C     C_R   0.640136 0.149449 0.952414 -0.144547
C116  C     C_R   0.659133 0.104190 0.959646 -0.175682
H6    H     H_    0.777640 0.124633 0.034550 0.171549
H7    H     H_    0.741443 0.203736 0.023598 0.134906
H8    H     H_    0.654111 0.220269 0.970505 0.131639
H9    H     H_    0.603081 0.156766 0.928334 0.139968
H10   H     H_    0.637112 0.077242 0.940115 0.142134
C117  C     C_R   0.773169 0.577258 0.557874 0.148176
C118  C     C_R   0.832960 0.593204 0.569511 -0.190010
C119  C     C_R   0.840020 0.632463 0.596582 -0.136478
C120  C     C_R   0.787550 0.656410 0.612040 -0.096124
C121  C     C_R   0.727913 0.641315 0.600147 -0.183958
C122  C     C_R   0.720744 0.602197 0.572932 -0.137282
H11   H     H_    0.874372 0.576333 0.557306 0.154327
H12   H     H_    0.886291 0.644513 0.605297 0.135496
H13   H     H_    0.793123 0.686837 0.632930 0.127313
H14   H     H_    0.687216 0.660098 0.611731 0.136569
H15   H     H_    0.674176 0.591323 0.563455 0.167798
C123  C     C_R   0.212934 0.572739 0.561981 0.132566
C124  C     C_R   0.252815 0.585170 0.598125 -0.161276
C125  C     C_R   0.235403 0.619592 0.629026 -0.165515
C126  C     C_R   0.178620 0.642529 0.623627 -0.112697
C127  C     C_R   0.139520 0.631408 0.587011 -0.131902
C128  C     C_R   0.156774 0.596937 0.556126 -0.140251
H16   H     H_    0.297728 0.568695 0.602142 0.172772
H17   H     H_    0.266192 0.628734 0.656953 0.137112
H18   H     H_    0.165294 0.669304 0.647465 0.128810
H19   H     H_    0.096087 0.649791 0.582302 0.138804
H20   H     H_    0.127024 0.590073 0.527115 0.102774
O49   O     O_3   0.191860 0.976734 0.076197 -0.644550
C129  C     C_3   0.214660 0.996839 0.116780 0.078207
H21   H     H_    0.193150 0.031110 0.121201 0.168072
H22   H     H_    0.266488 0.999835 0.116828 0.130374
C130  C     C_3   0.194681 0.967549 0.157614 -0.341052
H23   H     H_    0.143024 0.963834 0.157612 0.239023
H24   H     H_    0.215729 0.932845 0.154724 0.211548
C131  C     C_3   0.214957 0.989184 0.202855 -0.947627
H25   H     H_    0.266583 0.992600 0.203937 0.263119
H26   H     H_    0.199821 0.967118 0.231764 0.268715
H27   H     H_    0.193271 0.023561 0.207067 0.267410
O50   O     O_3   0.796226 0.035509 0.917342 -0.674552
C132  C     C_3   0.815884 0.081529 0.920108 0.103199
H28   H     H_    0.837769 0.089815 0.953711 0.168590
H29   H     H_    0.775237 0.104443 0.914376 0.164204
C133  C     C_3   0.863395 0.090539 0.882146 -0.327962
H30   H     H_    0.903618 0.066933 0.886187 0.238715
H31   H     H_    0.841569 0.083766 0.848260 0.223361
C134  C     C_3   0.886831 0.139894 0.883535 -0.955592
H32   H     H_    0.847358 0.164167 0.878801 0.263263
H33   H     H_    0.921201 0.145283 0.855541 0.268821
H34   H     H_    0.909993 0.147081 0.916825 0.262917
O51   O     O_3   0.799207 0.047636 0.071794 -0.650337
C135  C     C_3   0.753529 0.060480 0.104359 0.102488
H35   H     H_    0.739427 0.030288 0.124868 0.168290
H36   H     H_    0.711172 0.075378 0.088001 0.155099
C136  C     C_3   0.781449 0.096025 0.136931 -0.349011
H37   H     H_    0.822756 0.081039 0.154423 0.232594
H38   H     H_    0.797079 0.126434 0.117142 0.221047
C137  C     C_3   0.734009 0.111331 0.172936 -0.958849
H39   H     H_    0.692850 0.127298 0.156197 0.267855
H40   H     H_    0.755762 0.136980 0.196095 0.268898
H41   H     H_    0.718456 0.081585 0.193726 0.265077
O52   O     O_3   0.200108 0.083446 0.965446 -0.634902
C138  C     C_3   0.246663 0.115747 0.953681 0.138013
H42   H     H_    0.257247 0.112733 0.916601 0.145790
H43   H     H_    0.291186 0.111169 0.972857 0.145545
C139  C     C_3   0.221929 0.164030 0.963025 -0.341805
H44   H     H_    0.180142 0.170402 0.941409 0.222828
H45   H     H_    0.207814 0.167058 0.999547 0.237612
C140  C     C_3   0.271279 0.200275 0.952672 -0.956200
H46   H     H_    0.312771 0.195256 0.974921 0.272248
H47   H     H_    0.251702 0.234912 0.959406 0.268301
H48   H     H_    0.285803 0.198255 0.916156 0.263427
O53   O     O_3   0.691926 0.476571 0.576187 -0.645036
C141  C     C_3   0.714791 0.496553 0.616812 0.077906
H49   H     H_    0.693311 0.530819 0.621345 0.167853
H50   H     H_    0.766620 0.499532 0.616834 0.130509
C142  C     C_3   0.694837 0.467160 0.657578 -0.341059
H51   H     H_    0.643173 0.463488 0.657612 0.238735
H52   H     H_    0.715827 0.432447 0.654570 0.211456
C143  C     C_3   0.715222 0.488647 0.702863 -0.948677
H53   H     H_    0.766855 0.492016 0.703909 0.263017
H54   H     H_    0.700098 0.466510 0.731721 0.268470
H55   H     H_    0.693597 0.523030 0.707193 0.267383
O54   O     O_3   0.302823 0.582104 0.464762 -0.632897
C144  C     C_3   0.278943 0.623381 0.482645 0.107745
H56   H     H_    0.295318 0.627975 0.518473 0.170062
H57   H     H_    0.227075 0.624112 0.481172 0.119162
C145  C     C_3   0.303606 0.663275 0.454110 -0.340890
H58   H     H_    0.355472 0.663582 0.455423 0.230903
H59   H     H_    0.289053 0.658786 0.417827 0.218225
C146  C     C_3   0.278737 0.709047 0.471886 -0.958959
H60   H     H_    0.226944 0.709796 0.469986 0.267115
H61   H     H_    0.297562 0.737355 0.450588 0.267876
H62   H     H_    0.293462 0.714565 0.507967 0.266829
O55   O     O_3   0.300245 0.482123 0.581731 -0.655607
C147  C     C_3   0.254784 0.470525 0.614798 0.112837
H63   H     H_    0.239655 0.434537 0.609612 0.164303
H64   H     H_    0.212956 0.493206 0.613281 0.162446
C148  C     C_3   0.283749 0.474707 0.662432 -0.347343
H65   H     H_    0.324714 0.451403 0.664888 0.232773
H66   H     H_    0.300116 0.510440 0.667952 0.224855
C149  C     C_3   0.236846 0.462451 0.699850 -0.957664
H67   H     H_    0.196118 0.486035 0.698638 0.267684
H68   H     H_    0.259394 0.465692 0.733938 0.269933
H69   H     H_    0.220494 0.426584 0.695438 0.264484
O56   O     O_3   0.700123 0.583544 0.465687 -0.634867
C150  C     C_3   0.746691 0.615858 0.453977 0.138583
H70   H     H_    0.757181 0.612967 0.416873 0.146176
H71   H     H_    0.791259 0.611183 0.473075 0.146282
C151  C     C_3   0.722043 0.664127 0.463520 -0.342822
H72   H     H_    0.680220 0.670606 0.441974 0.223227
H73   H     H_    0.708011 0.667038 0.500066 0.237701
C152  C     C_3   0.771422 0.700370 0.453237 -0.953355
H74   H     H_    0.812953 0.695244 0.475422 0.272670
H75   H     H_    0.751908 0.734999 0.460112 0.267954
H76   H     H_    0.785869 0.698467 0.416698 0.264020
O57   O     O_3   0.298681 0.919040 0.020485 -0.626829
C153  C     C_3   0.308831 0.914597 0.067879 0.088982
H77   H     H_    0.263563 0.908405 0.085324 0.175913
H78   H     H_    0.332111 0.945480 0.082385 0.148903
C154  C     C_3   0.350759 0.873151 0.076360 -0.320177
H79   H     H_    0.328299 0.841848 0.062189 0.227799
H80   H     H_    0.396029 0.878242 0.058584 0.235276
C155  C     C_3   0.362782 0.866370 0.127423 -0.967409
H81   H     H_    0.386431 0.896953 0.142042 0.265828
H82   H     H_    0.393325 0.836014 0.132439 0.271931
H83   H     H_    0.318098 0.860596 0.145905 0.262059
O58   O     O_3   0.702033 0.950416 0.927113 -0.654626
C156  C     C_3   0.691172 0.976473 0.887304 0.159555
H84   H     H_    0.735405 0.979460 0.867540 0.178788
H85   H     H_    0.672897 0.011368 0.895359 0.151046
C157  C     C_3   0.643113 0.951620 0.857735 -0.348840
H86   H     H_    0.661055 0.916989 0.848609 0.226222
H87   H     H_    0.599074 0.947448 0.877511 0.241909
C158  C     C_3   0.629342 0.978159 0.813895 -0.981375
H88   H     H_    0.610089 0.012565 0.822272 0.262929
H89   H     H_    0.594441 0.959164 0.793160 0.270465
H90   H     H_    0.672605 0.982192 0.793249 0.268794
O59   O     O_3   0.703495 0.961361 0.076579 -0.641459
C159  C     C_3   0.748999 0.937444 0.102303 0.134672
H91   H     H_    0.747980 0.950865 0.137946 0.128096
H92   H     H_    0.797906 0.941939 0.089803 0.159565
C160  C     C_3   0.732129 0.886512 0.103775 -0.295433
H93   H     H_    0.686407 0.882299 0.121342 0.214677
H94   H     H_    0.727467 0.872854 0.068398 0.260259
C161  C     C_3   0.781572 0.858811 0.129182 -0.960903
H95   H     H_    0.827304 0.861497 0.111371 0.276525
H96   H     H_    0.767582 0.822181 0.130131 0.265943
H97   H     H_    0.786443 0.871482 0.164929 0.261677
O60   O     O_3   0.302196 0.023014 0.912742 -0.630091
C162  C     C_3   0.258199 0.022146 0.876543 0.145074
H98   H     H_    0.256835 0.056653 0.860624 0.128274
H99   H     H_    0.209413 0.014080 0.887371 0.130574
C163  C     C_3   0.279517 0.987826 0.840008 -0.299944
H100  H     H_    0.325079 0.999039 0.825615 0.214777
H101  H     H_    0.286147 0.953501 0.855630 0.265916
C164  C     C_3   0.231942 0.984027 0.801313 -0.977594
H102  H     H_    0.186498 0.971576 0.814817 0.267764
H103  H     H_    0.249070 0.959308 0.775152 0.269904
H104  H     H_    0.225075 0.017897 0.784724 0.266298
O61   O     O_3   0.798729 0.419001 0.520292 -0.627052
C165  C     C_3   0.808877 0.414430 0.567674 0.088487
H105  H     H_    0.763604 0.408223 0.585105 0.176021
H106  H     H_    0.832200 0.445261 0.582252 0.149022
C166  C     C_3   0.850750 0.372934 0.576049 -0.319952
H107  H     H_    0.828243 0.341680 0.561808 0.227836
H108  H     H_    0.896020 0.378034 0.558278 0.234626
C167  C     C_3   0.862782 0.366022 0.627094 -0.967946
H109  H     H_    0.886478 0.396553 0.641780 0.265721
H110  H     H_    0.893284 0.335632 0.632032 0.271953
H111  H     H_    0.818096 0.360238 0.645570 0.261834
O62   O     O_3   0.203608 0.519880 0.411696 -0.620744
C168  C     C_3   0.179320 0.564721 0.407989 0.138002
H112  H     H_    0.217880 0.588790 0.399770 0.163145
H113  H     H_    0.155374 0.576262 0.439957 0.107226
C169  C     C_3   0.131827 0.566014 0.369050 -0.319147
H114  H     H_    0.155217 0.556584 0.336315 0.219084
H115  H     H_    0.094231 0.540677 0.375871 0.238107
C170  C     C_3   0.102729 0.613567 0.364408 -0.967767
H116  H     H_    0.077736 0.623140 0.396443 0.273517
H117  H     H_    0.068762 0.613507 0.335710 0.267976
H118  H     H_    0.139394 0.639476 0.357160 0.262417
O63   O     O_3   0.200138 0.420643 0.525162 -0.655261
C171  C     C_3   0.243742 0.384184 0.525873 0.132745
H119  H     H_    0.243263 0.368938 0.560712 0.131183
H120  H     H_    0.293002 0.394611 0.518961 0.166103
C172  C     C_3   0.223434 0.347305 0.491667 -0.296771
H121  H     H_    0.176859 0.333886 0.501800 0.218116
H122  H     H_    0.219199 0.362403 0.456910 0.263389
C173  C     C_3   0.270040 0.307744 0.489972 -0.966457
H123  H     H_    0.316524 0.320246 0.478619 0.272842
H124  H     H_    0.253597 0.281410 0.465260 0.268161
H125  H     H_    0.274440 0.291683 0.524300 0.262598
O64   O     O_3   0.802152 0.523224 0.412797 -0.629828
C174  C     C_3   0.758112 0.522469 0.376622 0.145184
H126  H     H_    0.756761 0.557016 0.360791 0.128744
H127  H     H_    0.709332 0.514399 0.387461 0.130697
C175  C     C_3   0.779353 0.488232 0.339986 -0.300028
H128  H     H_    0.824890 0.499473 0.325573 0.214960
H129  H     H_    0.786005 0.453869 0.355520 0.266088
C176  C     C_3   0.731703 0.484529 0.301332 -0.976432
H130  H     H_    0.686282 0.472049 0.314852 0.267727
H131  H     H_    0.748775 0.459871 0.275094 0.270070
H132  H     H_    0.724808 0.518439 0.284830 0.266378
O65   O     O_3   0.232672 0.933643 0.932223 -0.627702
C177  C     C_3   0.174679 0.911086 0.931485 0.090124
H133  H     H_    0.173130 0.890717 0.899291 0.159213
H134  H     H_    0.135279 0.935519 0.928594 0.123966
C178  C     C_3   0.168072 0.877541 0.971692 -0.278897
H135  H     H_    0.207351 0.852618 0.970750 0.233984
H136  H     H_    0.170203 0.896145 0.004866 0.251119
C179  C     C_3   0.106481 0.851442 0.969179 -0.960337
H137  H     H_    0.066441 0.875647 0.970370 0.278944
H138  H     H_    0.102855 0.827710 0.998759 0.259269
H139  H     H_    0.104153 0.831061 0.937022 0.254253
O66   O     O_3   0.789932 0.911462 0.003989 -0.651862
C180  C     C_3   0.816055 0.895161 0.962453 0.178199
H140  H     H_    0.864085 0.882798 0.969762 0.150366
H141  H     H_    0.820578 0.921633 0.935089 0.146703
C181  C     C_3   0.777553 0.854627 0.944972 -0.332538
H142  H     H_    0.779671 0.826310 0.970361 0.214799
H143  H     H_    0.727941 0.864988 0.941153 0.264919
C182  C     C_3   0.801864 0.837341 0.898885 -0.968495
H144  H     H_    0.798253 0.864777 0.872664 0.271822
H145  H     H_    0.773533 0.807582 0.887483 0.269146
H146  H     H_    0.851339 0.826323 0.901959 0.261462
O67   O     O_3   0.732656 0.433818 0.432088 -0.627588
C183  C     C_3   0.674683 0.411234 0.431337 0.090399
H147  H     H_    0.673116 0.390934 0.399101 0.159583
H148  H     H_    0.635257 0.435654 0.428524 0.124447
C184  C     C_3   0.668152 0.377600 0.471477 -0.281327
H149  H     H_    0.707471 0.352713 0.470473 0.234471
H150  H     H_    0.670266 0.396139 0.504688 0.251015
C185  C     C_3   0.606603 0.351455 0.468925 -0.956002
H151  H     H_    0.566529 0.375626 0.470176 0.279909
H152  H     H_    0.603029 0.327659 0.498457 0.258882
H153  H     H_    0.604293 0.331137 0.436727 0.254701
O68   O     O_3   0.283786 0.434928 0.436850 -0.641311
C186  C     C_3   0.324530 0.451071 0.402403 0.117953
H154  H     H_    0.373437 0.445307 0.413565 0.152386
H155  H     H_    0.318392 0.488213 0.394542 0.158492
C187  C     C_3   0.312741 0.423697 0.358578 -0.320220
H156  H     H_    0.317130 0.386441 0.365912 0.226758
H157  H     H_    0.264456 0.430525 0.346442 0.240211
C188  C     C_3   0.358906 0.436471 0.320871 -0.958473
H158  H     H_    0.356247 0.473753 0.313399 0.272570
H159  H     H_    0.347611 0.417153 0.289125 0.267711
H160  H     H_    0.407131 0.427467 0.331481 0.270296

loop_
_geom_bond_atom_site_label_1
_geom_bond_atom_site_label_2
_geom_bond_distance
_ccdc_geom_bond_type
C187  H157  1.111718 S    
Zn11  O47   1.880574 S    
O26   C70   1.219333 A    
C184  H150  1.109576 S    
C151  C152  1.526189 S    
C188  H158  1.110947 S    
C131  H27   1.110980 S    
C16   O56   1.414260 S    
C164  H104  1.110864 S    
C164  H102  1.111219 S    
C154  H79   1.111757 S    
C73   C103  1.477874 S    
O45   C79   1.302701 A    
C74   C104  1.477847 S    
C149  H67   1.110974 S    
C182  H145  1.110362 S    
C35   C39   1.545585 S    
C180  H141  1.116172 S    
C146  H60   1.111086 S    
C10   C18   1.550983 S    
C121  H14   1.082229 S    
C141  H50   1.113687 S    
C185  H153  1.110772 S    
C119  H12   1.082517 S    
C155  H83   1.110960 S    
C11   O51   1.412688 S    
C50   C54   1.231430 T    
C126  H18   1.082266 S    
C150  H71   1.114637 S    
C161  H95   1.111001 S    
O4    C4    1.247817 A    
C80   C92   1.478504 S    
O17   Zn5   1.873527 S    
O27   Zn7   2.023224 S    
O24   Zn6   2.023226 S    
C124  C125  1.397725 A    
C13   C39   1.543889 S    
C15   O55   1.412073 S    
C185  H152  1.110304 S    
C12   C37   1.541560 S    
C101  C103  1.231033 T    
C102  C104  1.231020 T    
C130  H24   1.110537 S    
C145  H59   1.111636 S    
O47   C80   1.302944 A    
C137  H40   1.110366 S    
C14   C30   1.542895 S    
O60   C162  1.417008 S    
C160  H93   1.111666 S    
C159  C160  1.529913 S    
C186  C187  1.527494 S    
C179  H138  1.110304 S    
C165  H105  1.109476 S    
O16   Zn4   2.023632 S    
C169  C170  1.526292 S    
O13   C5    1.230353 A    
O7    Zn4   1.875277 S    
C9    C25   1.550141 S    
C15   C40   1.541440 S    
C32   O64   1.414464 S    
C177  H134  1.107389 S    
C58   C62   1.231561 T    
C18   C111  1.512060 S    
C134  H32   1.111153 S    
C48   C52   1.453533 S    
O35   C74   1.302577 A    
O62   C168  1.411409 S    
C161  H97   1.110878 S    
C135  H36   1.114162 S    
O63   C171  1.414686 S    
O42   C78   1.303292 A    
C166  C167  1.525784 S    
O23   C68   1.214852 A    
O48   C80   1.302215 A    
C143  H54   1.110363 S    
C108  C109  1.395803 A    
C183  H148  1.107384 S    
C124  H16   1.081526 S    
C97   C100  1.230915 T    
O43   C77   1.302985 A    
C27   O59   1.413488 S    
C176  H130  1.111225 S    
O8    Zn4   1.873658 S    
C188  H160  1.110306 S    
C82   C84   1.230796 T    
C177  C178  1.535836 S    
C153  H77   1.109491 S    
C85   C88   1.231117 T    
C10   O50   1.414726 S    
C86   C87   1.231189 T    
C154  C155  1.525783 S    
C24   C30   1.540870 S    
C12   O52   1.414248 S    
O3    Zn2   1.874232 S    
O21   Zn5   2.021993 S    
C165  C166  1.525980 S    
C6    C38   1.422250 S    
C174  H126  1.109818 S    
C132  C133  1.526307 S    
O28   Zn8   2.023226 S    
O30   C71   1.247663 A    
C81   C83   1.230958 T    
C99   C101  1.453042 S    
C163  C164  1.526202 S    
C46   C50   1.453587 S    
C96   C98   1.452739 S    
C167  H109  1.110982 S    
O36   C74   1.302822 A    
C15   C20   1.548921 S    
C172  C173  1.525516 S    
C148  H66   1.111446 S    
O3    C3    1.247085 A    
O22   Zn6   2.021990 S    
O57   C153  1.406510 S    
C41   C45   1.231251 T    
C170  H116  1.111248 S    
C53   C57   1.453888 S    
Zn5   O29   1.875671 S    
C175  H128  1.111629 S    
C55   C59   1.453895 S    
C112  H6    1.078887 S    
C159  H92   1.116630 S    
C120  C121  1.395810 A    
C186  H154  1.110327 S    
O18   Zn6   1.875149 S    
O23   Zn5   2.023224 S    
C173  H123  1.111020 S    
C7    C39   1.433218 S    
C140  H46   1.111290 S    
C132  H28   1.113687 S    
C1    C41   1.478124 S    
C44   C48   1.231227 T    
C88   C90   1.453539 S    
C63   C77   1.478812 S    
C3    C43   1.478117 S    
C89   C91   1.231381 T    
O53   C141  1.408591 S    
C4    C44   1.477853 S    
C23   C32   1.537157 S    
C157  H86   1.111862 S    
C142  H51   1.111940 S    
C64   C78   1.478869 S    
O64   C174  1.417031 S    
O5    Zn3   1.875277 S    
C157  H87   1.111880 S    
O54   C144  1.406358 S    
C176  H132  1.110865 S    
O37   Zn9   1.881719 S    
C145  C146  1.526129 S    
C16   C32   1.531638 S    
Zn10  O46   1.879685 S    
C155  H82   1.110350 S    
C25   C33   1.531920 S    
C72   C94   1.477440 S    
O50   C132  1.409396 S    
C156  H85   1.114397 S    
C28   C33   1.533162 S    
C42   C46   1.231181 T    
O13   Zn3   2.022803 S    
C163  H100  1.111631 S    
C17   C105  1.514247 S    
C141  C142  1.528522 S    
C29   C35   1.531918 S    
C167  H111  1.110959 S    
C30   C36   1.529581 S    
O59   C159  1.415442 S    
C160  H94   1.110261 S    
O46   C79   1.302445 A    
C43   C47   1.231229 T    
O5    C1    1.247512 A    
C152  H74   1.111290 S    
C22   C68   1.424335 S    
C71   C93   1.477427 S    
O19   Zn7   1.873527 S    
O8    C4    1.247058 A    
C138  C139  1.527770 S    
C169  H115  1.111658 S    
O49   C129  1.408569 S    
C15   C31   1.534591 S    
C12   C17   1.545774 S    
C183  H147  1.110830 S    
O15   Zn4   2.022803 S    
C144  H57   1.112097 S    
C62   C76   1.478776 S    
C117  C122  1.406369 A    
C120  H13   1.082263 S    
O33   C73   1.302488 A    
C134  H33   1.110253 S    
C118  H11   1.073699 S    
C129  H22   1.113690 S    
C127  H19   1.082350 S    
C187  H156  1.111905 S    
C136  C137  1.525896 S    
C166  H108  1.109127 S    
O39   Zn10  1.880394 S    
C26   O58   1.413366 S    
O40   Zn9   1.880391 S    
C123  C128  1.404852 A    
C178  H136  1.109578 S    
C114  H8    1.082367 S    
C174  C175  1.529376 S    
C121  C122  1.397303 A    
Zn7   O31   1.875671 S    
C139  H44   1.111603 S    
C155  H81   1.110981 S    
C158  H90   1.110883 S    
C21   C25   1.539144 S    
O14   C6    1.218482 A    
O29   C71   1.247321 A    
C10   C26   1.545017 S    
C16   C19   1.545744 S    
C34   O66   1.413843 S    
C56   C60   1.453927 S    
C181  H142  1.111693 S    
C116  H10   1.079252 S    
C9    O49   1.417069 S    
C129  C130  1.528516 S    
C128  H20   1.078989 S    
C149  H68   1.110359 S    
C157  C158  1.525768 S    
O42   Zn12  1.881716 S    
C142  C143  1.525827 S    
O10   C6    1.215435 A    
C180  H140  1.110956 S    
C20   C123  1.511487 S    
C79   C91   1.478486 S    
C170  H118  1.110918 S    
C17   C21   1.562392 S    
C162  C163  1.529376 S    
O32   C72   1.247615 A    
O34   C73   1.302925 A    
C29   O61   1.413910 S    
C20   C24   1.559398 S    
C147  H63   1.108997 S    
C187  C188  1.525122 S    
C161  H96   1.110335 S    
O21   C67   1.222415 A    
O25   C69   1.222417 A    
C139  C140  1.526185 S    
O37   C75   1.302836 A    
O43   Zn12  1.880394 S    
C146  H62   1.110949 S    
C14   C40   1.544039 S    
C125  H17   1.082285 S    
C95   C97   1.452778 S    
C188  H159  1.110248 S    
O55   C147  1.411562 S    
C60   C64   1.231610 T    
C16   C39   1.541631 S    
C133  H30   1.108866 S    
C168  H112  1.110855 S    
C130  H23   1.111925 S    
C137  H41   1.110919 S    
O41   Zn11  1.881719 S    
C87   C89   1.453573 S    
O39   C75   1.303076 A    
C152  H76   1.110843 S    
C143  H55   1.110981 S    
Zn8   O32   1.874050 S    
O38   C76   1.303188 A    
C165  H106  1.113188 S    
O36   Zn12  1.880490 S    
O44   C78   1.302661 A    
C13   C29   1.550162 S    
C138  H42   1.108292 S    
C83   C85   1.452978 S    
C151  H72   1.111599 S    
C22   C26   1.536378 S    
C168  H113  1.114820 S    
C182  H144  1.111120 S    
C140  H48   1.110843 S    
C136  H37   1.111841 S    
C21   C67   1.433932 S    
C49   C53   1.231415 T    
C93   C95   1.230738 T    
C94   C96   1.230715 T    
C113  H7    1.082327 S    
C32   C35   1.533152 S    
C158  H88   1.110995 S    
C11   C27   1.536939 S    
C61   C75   1.478793 S    
C184  C185  1.525671 S    
C12   C28   1.531632 S    
C30   O62   1.413481 S    
C2    C42   1.478080 S    
C153  H78   1.113190 S    
C181  C182  1.525567 S    
C164  H103  1.110308 S    
C113  C114  1.395975 A    
C110  H5    1.083213 S    
C154  H80   1.109163 S    
O12   Zn2   2.022597 S    
C111  C116  1.405520 A    
C182  H146  1.110867 S    
O1    C1    1.247160 A    
O66   C180  1.414980 S    
C84   C86   1.453085 S    
C127  C128  1.397544 A    
C180  C181  1.529389 S    
C107  C108  1.396132 A    
C33   C37   1.545618 S    
C143  H53   1.110927 S    
O35   Zn11  1.879601 S    
C156  H84   1.111901 S    
C36   C40   1.533834 S    
C153  C154  1.525997 S    
C25   O57   1.413901 S    
C162  H98   1.109823 S    
C141  H49   1.107273 S    
C150  H70   1.108284 S    
C147  C148  1.527752 S    
C57   C61   1.231568 T    
C26   C34   1.530912 S    
C167  H110  1.110350 S    
O52   C138  1.415061 S    
C150  C151  1.527774 S    
C172  H122  1.110402 S    
C122  H15   1.083221 S    
C66   C82   1.477294 S    
C27   C34   1.532832 S    
C31   O63   1.412926 S    
C9    C37   1.543860 S    
C185  H151  1.110644 S    
C175  H129  1.110078 S    
C133  C134  1.525547 S    
C36   O68   1.410916 S    
Zn6   O30   1.874050 S    
C168  C169  1.526911 S    
C115  C116  1.397475 A    
O65   C177  1.406552 S    
C130  C131  1.525822 S    
C105  C110  1.406384 A    
C137  H39   1.110989 S    
O17   C65   1.248061 A    
C131  H26   1.110367 S    
C179  H137  1.110646 S    
O18   C65   1.246942 A    
O6    C2    1.247613 A    
C173  H124  1.110345 S    
C171  C172  1.529699 S    
C107  H2    1.082493 S    
C158  H89   1.110348 S    
O28   C69   1.222222 A    
C11   C18   1.552562 S    
C14   O54   1.416124 S    
C175  C176  1.526212 S    
C177  H133  1.110829 S    
C148  H65   1.111812 S    
C117  C118  1.405018 A    
C59   C63   1.231577 T    
C45   C49   1.453577 S    
C135  H35   1.107827 S    
C171  H120  1.116604 S    
O2    Zn1   1.875856 S    
C47   C51   1.453540 S    
O10   Zn1   2.022597 S    
O40   C76   1.302713 A    
C119  C120  1.396123 A    
C186  H155  1.115513 S    
C173  H125  1.110848 S    
C114  C115  1.395839 A    
C28   O60   1.414456 S    
C145  H58   1.111745 S    
C132  H29   1.110091 S    
C112  C113  1.397828 A    
C54   C58   1.453892 S    
O19   C66   1.247143 A    
C9    C17   1.557348 S    
C184  H149  1.111501 S    
C176  H131  1.110309 S    
C105  C106  1.404957 A    
C109  C110  1.397287 A    
O15   C7    1.230161 A    
C172  H121  1.111898 S    
C52   C56   1.231391 T    
O61   C165  1.406491 S    
C171  H119  1.110542 S    
O7    C3    1.247586 A    
C13   C19   1.557389 S    
C14   C20   1.554193 S    
C11   C38   1.544697 S    
C18   C22   1.554340 S    
Zn9   O45   1.880574 S    
O56   C150  1.415106 S    
C163  H101  1.110082 S    
C33   O65   1.416583 S    
C31   C36   1.535008 S    
C148  C149  1.525723 S    
O25   Zn7   2.021993 S    
O16   C8    1.217496 A    
O44   Zn11  1.880391 S    
C125  C126  1.396762 A    
C138  H43   1.114622 S    
O27   C70   1.217733 A    
O67   C183  1.406544 S    
C35   O67   1.416570 S    
C123  C124  1.405557 A    
C144  H56   1.111115 S    
C19   C117  1.514327 S    
O11   C7    1.223428 A    
C106  H1    1.073741 S    
O12   C8    1.220058 A    
O41   C77   1.302942 A    
O1    Zn1   1.874232 S    
C136  H38   1.111089 S    
O9    Zn1   2.023421 S    
C179  H139  1.110769 S    
C174  H127  1.116657 S    
C108  H3    1.082262 S    
C139  H45   1.110450 S    
O4    Zn2   1.875856 S    
C140  H47   1.110298 S    
O9    C5    1.223442 A    
C131  H25   1.110928 S    
C181  H143  1.110344 S    
O31   C72   1.247385 A    
C23   C29   1.539144 S    
O11   Zn2   2.023421 S    
C19   C23   1.562348 S    
C135  C136  1.527943 S    
C118  C119  1.398048 A    
C142  H52   1.110530 S    
C98   C99   1.230910 T    
C109  H4    1.082228 S    
C23   C69   1.433751 S    
C5    C37   1.433244 S    
C178  C179  1.525713 S    
O20   Zn8   1.875149 S    
O6    Zn3   1.873658 S    
C183  C184  1.535818 S    
C8    C40   1.425723 S    
C170  H117  1.110276 S    
C162  H99   1.116651 S    
C149  H69   1.110879 S    
C24   C31   1.536633 S    
C111  C112  1.405760 A    
C147  H64   1.114087 S    
C106  C107  1.398060 A    
C90   C92   1.231384 T    
O2    C2    1.247168 A    
O58   C156  1.409124 S    
O22   C68   1.220157 A    
O68   C186  1.411960 S    
C34   C38   1.537215 S    
C156  C157  1.526944 S    
C146  H61   1.110295 S    
O26   Zn8   2.021990 S    
O33   Zn9   1.879601 S    
O38   Zn10  1.881716 S    
O34   Zn10  1.880490 S    
C100  C102  1.453030 S    
O14   Zn3   2.023632 S    
O20   C66   1.247803 A    
C133  H31   1.111824 S    
Zn12  O48   1.879685 S    
C160  C161  1.525642 S    
C159  H91   1.110551 S    
C13   O53   1.417075 S    
C152  H75   1.110299 S    
C51   C55   1.231405 T    
C178  H135  1.111500 S    
O24   C67   1.222289 A    
C65   C81   1.477451 S    
C10   C38   1.538956 S    
C169  H114  1.111628 S    
C21   C28   1.537249 S    
C151  H73   1.110431 S    
C22   C27   1.539062 S    
C144  C145  1.526641 S    
C115  H9    1.082330 S    
C134  H34   1.111135 S    
C126  C127  1.396541 A    
C129  H21   1.107297 S    
O51   C135  1.412304 S    
C166  H107  1.111760 S    
C24   C70   1.427651 S    
