data_mof_unit_25997.cif
_audit_creation_date              2012-12-10T17:35:02-0500
_audit_creation_method            fapswitch 2.2
_symmetry_space_group_name_H-M    P1
_symmetry_Int_Tables_number       1
_space_group_crystal_system       triclinic
_cell_length_a                    12.367995
_cell_length_b                    13.238112
_cell_length_c                    13.866687
_cell_angle_alpha                 105.537603
_cell_angle_beta                  73.412875
_cell_angle_gamma                 116.810989
_cell_volume                      1916.1350069

loop_
_atom_site_label
_atom_site_type_symbol
_atom_type_description
_atom_site_fract_x
_atom_site_fract_y
_atom_site_fract_z
_atom_type_partial_charge
C1    C     C_R   0.144746 0.713242 0.506489 0.833640
C2    C     C_1   0.974964 0.508052 0.792152 -0.100707
C3    C     C_R   0.742923 0.971924 0.379476 -0.073633
C4    C     C_R   0.775606 0.164358 0.466863 -0.038748
C5    C     C_R   0.178474 0.917700 0.555855 -0.141729
C6    C     C_R   0.255500 0.033265 0.570754 -0.146960
C7    C     C_R   0.382595 0.068674 0.540894 -0.164234
C8    C     C_R   0.435778 0.988508 0.491006 0.097260
C9    C     C_R   0.355835 0.872708 0.464769 0.036818
C10   C     C_R   0.565452 0.020038 0.464719 0.041532
C11   C     C_R   0.613896 0.938480 0.404558 0.042115
C12   C     C_R   0.983985 0.504345 0.686502 0.854144
C13   C     C_R   0.532486 0.827134 0.368780 0.400220
C14   C     C_R   0.405845 0.797596 0.396306 -0.264373
C15   C     C_R   0.648559 0.130790 0.497950 -0.187354
C16   C     C_R   0.822794 0.083986 0.409507 -0.206299
C17   C     C_R   0.227262 0.835771 0.506170 -0.066102
C18   C     C_R   0.647769 0.688580 0.645759 -0.238617
C19   C     C_R   0.249094 0.347678 0.367044 0.125973
C20   C     C_R   0.347959 0.315070 0.336360 -0.218897
C21   C     C_R   0.450306 0.375006 0.383383 -0.154637
C22   C     C_R   0.454944 0.468984 0.461948 0.045543
C23   C     C_R   0.856120 0.286336 0.485928 0.783706
C24   C     C_R   0.350719 0.498430 0.490879 0.235021
C25   C     C_R   0.556954 0.533279 0.514501 -0.052568
C26   C     C_R   0.554825 0.630123 0.588904 -0.021406
C27   C     C_R   0.454744 0.661903 0.611432 0.383461
C28   C     C_R   0.352212 0.590986 0.568377 -0.246154
C29   C     C_R   0.660995 0.505769 0.497409 -0.026204
C30   C     C_R   0.738082 0.649927 0.636293 0.548665
C31   C     C_R   0.016195 0.495869 0.313494 0.790866
C32   C     C_1   0.026343 0.493868 0.207966 -0.137385
C33   C     C_2   0.041702 0.490841 0.013839 -0.143165
C34   C     C_2   0.961238 0.513920 0.986543 -0.139347
C35   C     C_1   0.968022 0.511070 0.880969 0.065110
C36   C     C_1   0.034142 0.492380 0.119293 0.038503
Cu1   Cu    Cu3+1 0.899780 0.525060 0.522890 1.015668
Cu2   Cu    Cu3+1 0.100220 0.474940 0.477110 0.963730
H1    H     H_    0.889619 0.534466 0.043185 0.179871
H2    H     H_    0.346699 0.715875 0.360200 0.210538
H3    H     H_    0.643904 0.758762 0.705452 0.252238
H4    H     H_    0.672111 0.437418 0.438294 0.137200
H5    H     H_    0.170530 0.300884 0.329636 0.121706
H6    H     H_    0.524444 0.346563 0.356566 0.131739
H7    H     H_    0.345300 0.243181 0.275773 0.153933
H8    H     H_    0.273513 0.610232 0.599001 0.247532
H9    H     H_    0.113219 0.470179 0.957159 0.174747
H10   H     H_    0.921395 0.108528 0.384905 0.153385
H11   H     H_    0.784167 0.913617 0.333936 0.210753
H12   H     H_    0.617042 0.193682 0.548170 0.149067
H13   H     H_    0.080460 0.892599 0.584782 0.201354
H14   H     H_    0.435896 0.159846 0.555351 0.129630
H15   H     H_    0.216645 0.095806 0.608301 0.157359
N1    N     N_R   0.748810 0.563010 0.557590 -0.232098
N2    N     N_R   0.250540 0.437620 0.443020 -0.196645
O1    O     O_R   0.025040 0.682470 0.528790 -0.536749
O2    O     O_R   0.194310 0.640150 0.490130 -0.598512
O3    O     O_R   0.903380 0.524130 0.659910 -0.489122
O4    O     O_R   0.072660 0.481800 0.621240 -0.609081
O5    O     O_R   0.805690 0.359850 0.509870 -0.595533
O6    O     O_R   0.974960 0.317530 0.471210 -0.595573
O7    O     O_R   0.927340 0.518200 0.378760 -0.586157
O8    O     O_R   0.096620 0.475870 0.340090 -0.572000
S1    S     S_3+6 0.811065 0.700752 0.744770 0.039973
O9    O     O_2   0.781689 0.798453 0.812317 -0.269566
O10   O     O_2   0.758493 0.604692 0.805349 -0.271244
O11   O     O_3   0.965338 0.748408 0.716629 -0.537336
H16   H     H_    0.990698 0.763881 0.782550 0.371274
S2    S     S_3+6 0.450713 0.788608 0.695551 -0.003993
O12   O     O_2   0.441990 0.777349 0.802822 -0.256223
O13   O     O_2   0.566936 0.889918 0.665021 -0.290419
O14   O     O_3   0.328271 0.810081 0.690879 -0.557893
H17   H     H_    0.345519 0.890710 0.723595 0.384228
S3    S     S_3+6 0.584684 0.721715 0.289499 -0.007474
O15   O     O_2   0.477652 0.610110 0.266466 -0.285979
O16   O     O_2   0.661605 0.763690 0.191234 -0.260217
O17   O     O_3   0.671513 0.700141 0.349109 -0.562236
H18   H     H_    0.691891 0.636765 0.303680 0.374064

loop_
_geom_bond_atom_site_label_1
_geom_bond_atom_site_label_2
_ccdc_geom_bond_type
C2    C35   T    
C30   S1    S    
C29   H4    S    
C19   C20   A    
C18   C26   A    
C2    C12   S    
C16   H10   S    
Cu1   O7    S    
C3    H11   S    
C7    C8    A    
O17   H18   S    
C24   N2    A    
C30   N1    A    
C28   H8    S    
C26   C27   A    
S3    O16   D    
C32   C36   T    
C1    O1    A    
C7    H14   S    
C10   C15   A    
C5    C6    A    
C5    C17   A    
C29   N1    A    
C21   H6    S    
C33   C36   S    
C34   C35   S    
C15   H12   S    
S2    O13   D    
C12   O4    A    
Cu2   N2    S    
C8    C9    A    
S3    O17   S    
C18   C30   A    
Cu1   O3    S    
C27   S2    S    
Cu2   O6    S    
C12   O3    A    
C21   C22   A    
Cu1   O1    S    
C31   O7    A    
C19   H5    S    
C25   C29   A    
C23   O5    A    
S3    O15   D    
O11   H16   S    
S1    O11   S    
C31   O8    A    
C18   H3    S    
C4    C23   S    
C25   C26   A    
C22   C25   A    
C34   H1    S    
S1    O10   D    
C4    C16   A    
S2    O14   S    
C9    C14   A    
Cu1   Cu2   S    
C1    O2    A    
Cu2   O2    S    
C31   C32   S    
C33   C34   D    
C13   S3    S    
Cu1   N1    S    
C9    C17   A    
C33   H9    S    
C22   C24   A    
C6    H15   S    
C20   H7    S    
Cu2   O8    S    
C19   N2    A    
C24   C28   A    
O14   H17   S    
C6    C7    A    
C1    C17   S    
S1    O9    D    
C4    C15   A    
C11   C13   A    
S2    O12   D    
Cu1   O5    S    
C3    C11   A    
C10   C11   A    
C14   H2    S    
Cu2   O4    S    
C23   O6    A    
C20   C21   A    
C8    C10   A    
C27   C28   A    
C5    H13   S    
C13   C14   A    
C3    C16   A    
