data_mof_unit_9803.cif
_audit_creation_date              2012-12-10T17:36:44-0500
_audit_creation_method            fapswitch 2.2
_symmetry_space_group_name_H-M    P1
_symmetry_Int_Tables_number       1
_space_group_crystal_system       triclinic
_cell_length_a                    12.098087
_cell_length_b                    12.885347
_cell_length_c                    15.680976
_cell_angle_alpha                 89.490343
_cell_angle_beta                  86.97597
_cell_angle_gamma                 92.14544
_cell_volume                      2439.21694349

loop_
_atom_site_label
_atom_site_type_symbol
_atom_type_description
_atom_site_fract_x
_atom_site_fract_y
_atom_site_fract_z
_atom_type_partial_charge
C1    C     C_R   0.520822 0.699949 0.496903 0.903574
C2    C     C_R   0.553856 0.024638 0.487589 0.013971
C3    C     C_R   0.956627 0.477407 0.390356 0.444602
C4    C     C_R   0.043876 0.520497 0.611301 0.425562
C5    C     C_R   0.840861 0.475221 0.404449 -0.251714
C6    C     C_R   0.159956 0.522907 0.595947 -0.229300
C7    C     C_R   0.856598 0.483469 0.554119 0.602352
C8    C     C_R   0.142029 0.515789 0.446871 0.579383
C9    C     C_R   0.974780 0.499542 0.542748 -0.253242
C10   C     C_R   0.024905 0.497564 0.459184 -0.242458
C11   C     C_R   0.500748 0.499665 0.661821 0.898053
C12   C     C_R   0.479302 0.299990 0.501031 0.899479
C13   C     C_R   0.499096 0.500199 0.338155 0.897718
C14   C     C_3   0.473336 0.603043 0.024701 0.064300
C15   C     C_3   0.519615 0.411312 0.975138 0.063458
C16   C     C_3   0.574935 0.575132 0.966854 -0.206853
C17   C     C_3   0.418168 0.438887 0.032905 -0.206287
C18   C     C_1   0.502047 0.499901 0.750630 -0.174553
C19   C     C_1   0.497029 0.503462 0.249343 -0.193873
C20   C     C_3   0.396781 0.531733 0.973029 -0.232534
C21   C     C_3   0.596480 0.482144 0.026655 -0.216764
C22   C     C_3   0.498568 0.503224 0.916883 0.145083
C23   C     C_R   0.650139 0.966903 0.474402 0.513312
C24   C     C_3   0.494655 0.510859 0.083221 0.162019
C25   C     C_1   0.501152 0.500941 0.825974 -0.072451
C26   C     C_1   0.495279 0.507218 0.174078 -0.083274
C27   C     C_R   0.468220 0.188947 0.501260 -0.130304
C28   C     C_R   0.532372 0.810870 0.491561 -0.136943
C29   C     C_R   0.446406 0.714012 0.044049 0.119253
C30   C     C_R   0.423301 0.780520 0.976254 -0.174112
C31   C     C_R   0.398391 0.883969 0.991621 -0.132361
C32   C     C_R   0.396922 0.922185 0.074717 -0.089563
C33   C     C_R   0.420034 0.856836 0.142557 -0.155795
C34   C     C_R   0.351509 0.032592 0.517234 0.505242
C35   C     C_R   0.444518 0.753130 0.127505 -0.152805
C36   C     C_R   0.540000 0.302948 0.944594 0.120200
C37   C     C_R   0.636392 0.252332 0.964330 -0.158925
C38   C     C_R   0.652974 0.150973 0.936507 -0.145810
C39   C     C_R   0.573905 0.099751 0.888567 -0.115462
C40   C     C_R   0.478057 0.149797 0.868369 -0.147762
C41   C     C_R   0.460893 0.250891 0.896463 -0.157017
C42   C     C_3   0.846948 0.957723 0.460780 0.081775
C43   C     C_3   0.868304 0.906184 0.547451 -0.373392
C44   C     C_3   0.932507 0.806815 0.536044 -0.950293
C45   C     C_R   0.636030 0.858449 0.473097 -0.338476
C46   C     C_3   0.156078 0.037917 0.524079 0.070503
C47   C     C_3   0.118731 0.088847 0.608428 -0.342626
C48   C     C_3   0.047037 0.181168 0.593041 -1.002086
C49   C     C_3   0.218042 0.638675 0.353172 0.150588
C50   C     C_3   0.118571 0.699922 0.327074 -0.373292
C51   C     C_3   0.150400 0.814817 0.313192 -0.997570
C52   C     C_3   0.820340 0.377042 0.671853 0.127058
C53   C     C_3   0.739492 0.293125 0.639989 -0.362767
C54   C     C_3   0.746705 0.190778 0.688720 -0.969775
C55   C     C_3   0.992019 0.359428 0.284670 0.097200
C56   C     C_R   0.364528 0.140891 0.517495 -0.342124
C57   C     C_3   0.085976 0.296766 0.319001 -0.307877
C58   C     C_3   0.078770 0.184115 0.289942 -1.007824
C59   C     C_3   0.033072 0.625121 0.731076 0.096919
C60   C     C_3   0.092559 0.602721 0.812662 -0.356712
C61   C     C_3   0.132373 0.702936 0.854455 -0.966863
C62   C     C_R   0.438835 0.868468 0.505580 -0.249103
C63   C     C_R   0.562164 0.131643 0.486067 -0.239531
C64   C     C_R   0.447557 0.975244 0.503135 0.019373
H1    H     H_    0.638932 0.630717 0.937993 0.144985
H2    H     H_    0.790115 0.468373 0.350098 0.187173
H3    H     H_    0.424379 0.752101 0.911411 0.133573
H4    H     H_    0.380308 0.934489 0.939059 0.129152
H5    H     H_    0.377978 0.002399 0.086515 0.130683
H6    H     H_    0.419097 0.886576 0.206933 0.132866
H7    H     H_    0.462456 0.704910 0.181165 0.127175
H8    H     H_    0.698538 0.290577 0.001405 0.118759
H9    H     H_    0.727276 0.112177 0.951981 0.131960
H10   H     H_    0.587001 0.021400 0.866959 0.130731
H11   H     H_    0.416896 0.110147 0.831157 0.127446
H12   H     H_    0.354204 0.383099 0.061534 0.144123
H13   H     H_    0.385972 0.288644 0.880767 0.127109
H14   H     H_    0.919934 0.009215 0.442128 0.142757
H15   H     H_    0.842331 0.901888 0.407287 0.139164
H16   H     H_    0.914845 0.961901 0.586719 0.211741
H17   H     H_    0.789845 0.886452 0.584876 0.235948
H18   H     H_    0.881629 0.746452 0.504401 0.267444
H19   H     H_    0.953002 0.776487 0.599488 0.260380
H20   H     H_    0.010557 0.821557 0.496858 0.263805
H21   H     H_    0.089006 0.984175 0.505153 0.160135
H22   H     H_    0.167601 0.093858 0.469487 0.138336
H23   H     H_    0.678171 0.463684 0.050785 0.134517
H24   H     H_    0.071904 0.030701 0.650290 0.209483
H25   H     H_    0.191336 0.116033 0.643782 0.228802
H26   H     H_    0.094224 0.241831 0.553923 0.266603
H27   H     H_    0.022424 0.215056 0.655578 0.263098
H28   H     H_    0.971786 0.156301 0.559857 0.278033
H29   H     H_    0.283156 0.645591 0.300528 0.158920
H30   H     H_    0.254625 0.674574 0.410146 0.141593
H31   H     H_    0.087108 0.667577 0.267136 0.262852
H32   H     H_    0.051016 0.693141 0.377744 0.215959
H33   H     H_    0.181733 0.848858 0.372568 0.275301
H34   H     H_    0.315309 0.551450 0.949167 0.145523
H35   H     H_    0.076542 0.857332 0.295743 0.270044
H36   H     H_    0.215283 0.824675 0.260692 0.274956
H37   H     H_    0.805182 0.384308 0.742013 0.179191
H38   H     H_    0.906698 0.351683 0.661606 0.140012
H39   H     H_    0.653388 0.318596 0.649408 0.255058
H40   H     H_    0.758378 0.279602 0.571003 0.225458
H41   H     H_    0.830642 0.159740 0.680051 0.270366
H42   H     H_    0.686078 0.132756 0.664556 0.281641
H43   H     H_    0.727008 0.202292 0.757826 0.276831
H44   H     H_    0.998264 0.356784 0.213796 0.157837
H45   H     H_    0.642077 0.170835 0.472881 0.214621
H46   H     H_    0.909872 0.322320 0.304769 0.115965
H47   H     H_    0.167149 0.332599 0.295797 0.256333
H48   H     H_    0.081342 0.297562 0.389932 0.205660
H49   H     H_    0.999878 0.145633 0.315147 0.267840
H50   H     H_    0.148839 0.141480 0.314383 0.264790
H51   H     H_    0.083502 0.180480 0.219104 0.268303
H52   H     H_    0.957711 0.668675 0.748385 0.167392
H53   H     H_    0.086731 0.677432 0.687840 0.120529
H54   H     H_    0.035038 0.558521 0.858508 0.228441
H55   H     H_    0.165072 0.554460 0.797572 0.215143
H56   H     H_    0.358787 0.829537 0.518990 0.215099
H57   H     H_    0.193273 0.746458 0.810833 0.265971
H58   H     H_    0.173085 0.684202 0.914217 0.266062
H59   H     H_    0.061262 0.752587 0.870485 0.265362
H60   H     H_    0.295212 0.189322 0.531241 0.182386
H61   H     H_    0.704785 0.809162 0.460360 0.180546
H62   H     H_    0.211707 0.528535 0.649613 0.185366
N1    N     N_R   0.207800 0.519340 0.515560 -0.175541
N2    N     N_R   0.792200 0.480660 0.484440 -0.162738
O1    O     O_R   0.421700 0.658830 0.504150 -0.647689
O2    O     O_3   0.250242 0.978676 0.535439 -0.674313
O3    O     O_3   0.189344 0.531572 0.365399 -0.597697
O4    O     O_3   0.804475 0.476071 0.634776 -0.585211
O5    O     O_3   0.002178 0.465147 0.308338 -0.613208
O6    O     O_3   0.998504 0.530155 0.693900 -0.630386
O7    O     O_R   0.578300 0.341170 0.495850 -0.645879
O8    O     O_R   0.609310 0.646410 0.494170 -0.611059
O9    O     O_R   0.390690 0.353590 0.505830 -0.615844
O10   O     O_R   0.406210 0.506220 0.628210 -0.635175
O11   O     O_R   0.593790 0.493780 0.371790 -0.630314
O12   O     O_R   0.593830 0.493800 0.618230 -0.563757
O13   O     O_R   0.406170 0.506200 0.381770 -0.586515
O14   O     O_3   0.753351 0.020720 0.466308 -0.670336
Zn1   Zn    Zn3+2 0.374730 0.508290 0.506660 0.943418
Zn2   Zn    Zn3+2 0.625270 0.491710 0.493340 0.958404

loop_
_geom_bond_atom_site_label_1
_geom_bond_atom_site_label_2
_ccdc_geom_bond_type
C51   H33   S    
C59   C60   S    
C21   H23   S    
C11   C18   S    
C34   C56   A    
C16   C21   S    
C23   C45   A    
C43   C44   S    
C44   H19   S    
C57   H47   S    
C53   C54   S    
C52   C53   S    
C49   O3    S    
C52   H38   S    
C37   C38   A    
C54   H43   S    
C56   H60   S    
C36   C37   A    
C11   O10   A    
C24   C26   S    
C6    N1    A    
C1    O1    A    
O10   Zn1   S    
O13   Zn1   S    
C41   H13   S    
C30   C31   A    
C50   H31   S    
C57   H48   S    
C53   H40   S    
C17   C20   S    
C22   C25   S    
C60   H55   S    
C61   H57   S    
C39   H10   S    
C14   C24   S    
C19   C26   T    
C62   C64   A    
C15   C22   S    
C47   C48   S    
C45   H61   S    
C59   H52   S    
C12   O7    A    
C42   O14   S    
C58   H49   S    
C23   O14   S    
C60   H54   S    
C13   O13   A    
C49   H30   S    
C1    O8    A    
C9    C10   A    
C62   H56   S    
C30   H3    S    
C46   H21   S    
O9    Zn1   S    
C35   H7    S    
C42   H15   S    
C59   H53   S    
C48   H26   S    
C47   H25   S    
C36   C41   A    
C18   C25   T    
C2    C64   A    
C51   H35   S    
C31   H4    S    
C28   C45   A    
C52   H37   S    
C17   C24   S    
C54   H42   S    
C12   C27   S    
C52   O4    S    
C14   C20   S    
C6    H62   S    
C4    C6    A    
C39   C40   A    
C13   C19   S    
C27   C56   A    
C44   H20   S    
C43   H16   S    
C55   O5    S    
C48   H27   S    
C61   H58   S    
C3    O5    S    
C63   H45   S    
C11   O12   A    
C29   C30   A    
C17   H12   S    
O11   Zn2   S    
C8    N1    A    
C31   C32   A    
C8    O3    S    
C34   C64   A    
C50   C51   S    
C1    C28   S    
N1    Zn1   S    
N2    Zn2   S    
C7    O4    S    
C27   C63   A    
C33   H6    S    
C40   C41   A    
C20   C22   S    
C42   H14   S    
C55   C57   S    
C55   H46   S    
C58   H51   S    
C7    N2    A    
C14   C16   S    
C21   C24   S    
C42   C43   S    
C14   C29   S    
C13   O11   A    
C15   C36   S    
C2    C63   A    
C4    O6    S    
C51   H36   S    
C15   C17   S    
C46   C47   S    
O7    Zn2   S    
C16   C22   S    
C54   H41   S    
O12   Zn2   S    
C5    H2    S    
C3    C5    A    
C46   O2    S    
C32   H5    S    
O1    Zn1   S    
C29   C35   A    
C59   O6    S    
C44   H18   S    
C40   H11   S    
C55   H44   S    
C61   H59   S    
C47   H24   S    
O8    Zn2   S    
C3    C10   A    
C32   C33   A    
C50   H32   S    
C57   C58   S    
C38   C39   A    
C53   H39   S    
C43   H17   S    
C5    N2    A    
C33   C35   A    
C7    C9    A    
C15   C21   S    
C20   H34   S    
C34   O2    S    
C8    C10   A    
C49   C50   S    
C48   H28   S    
C37   H8    S    
C2    C23   A    
C58   H50   S    
C12   O9    A    
C60   C61   S    
C16   H1    S    
C49   H29   S    
C4    C9    A    
C46   H22   S    
C38   H9    S    
C28   C62   A    
