data_mof_unit_26584.cif
_audit_creation_date              2013-03-05T16:25:44-0500
_audit_creation_method            fapswitch 2.2
_symmetry_space_group_name_H-M    P1
_symmetry_Int_Tables_number       1
_space_group_crystal_system       triclinic
_cell_length_a                    10.925002
_cell_length_b                    15.106295
_cell_length_c                    13.986649
_cell_angle_alpha                 89.205752
_cell_angle_beta                  89.999008
_cell_angle_gamma                 92.866584
_cell_volume                      2305.19436168

loop_
_atom_site_label
_atom_site_type_symbol
_atom_site_description
_atom_site_fract_x
_atom_site_fract_y
_atom_site_fract_z
_atom_type_partial_charge
O1    O     O_R   0.500010 0.371450 0.581430 -0.558029
O2    O     O_R   0.499990 0.628550 0.418570 -0.600076
O3    O     O_R   0.500010 0.371460 0.418560 -0.601090
O4    O     O_R   0.499990 0.628540 0.581440 -0.560270
C1    C     C_R   0.497507 0.330466 0.500489 0.812335
C2    C     C_R   0.502436 0.670013 0.499597 0.808810
O5    O     O_R   0.319640 0.500000 0.581430 -0.551401
O6    O     O_R   0.680360 0.500000 0.418570 -0.531612
O7    O     O_R   0.319640 0.500010 0.418560 -0.603912
O8    O     O_R   0.680360 0.499990 0.581440 -0.630174
C3    C     C_R   0.262451 0.500242 0.499736 0.851902
C4    C     C_R   0.737712 0.500639 0.500700 0.866244
Cu1   Cu    Cu3+1 0.500000 0.499990 0.596430 0.989944
Cu2   Cu    Cu3+1 0.500000 0.500010 0.403570 0.986906
C5    C     C_R   0.256582 0.699019 0.262611 0.303324
C6    C     C_R   0.787630 0.324870 0.780792 0.285801
C7    C     C_R   0.200829 0.658731 0.343682 -0.277180
C8    C     C_R   0.829199 0.353559 0.689891 -0.308995
H1    H     H_    0.213822 0.689000 0.413000 0.190939
H2    H     H_    0.834971 0.306050 0.633050 0.202812
C9    C     C_R   0.129929 0.579076 0.336705 -0.042355
C10   C     C_R   0.873687 0.441246 0.673797 -0.021571
C11   C     C_R   0.113672 0.539139 0.246048 0.492141
C12   C     C_R   0.873012 0.502389 0.749889 0.434309
C13   C     C_R   0.166426 0.580887 0.165209 -0.235204
C14   C     C_R   0.829339 0.473892 0.839609 -0.251275
H3    H     H_    0.150901 0.550929 0.096063 0.221187
H4    H     H_    0.828222 0.521350 0.896923 0.217006
C15   C     C_R   0.237063 0.660687 0.171870 0.178779
C16   C     C_R   0.786253 0.386034 0.856352 0.196006
C17   C     C_R   0.937360 0.545298 0.427786 0.373746
C18   C     C_R   0.063524 0.461596 0.577067 0.396348
C19   C     C_R   0.872044 0.502463 0.503129 -0.173405
C20   C     C_R   0.128464 0.501364 0.499424 -0.150509
C21   C     C_R   0.935432 0.465361 0.581362 -0.146955
C22   C     C_R   0.065477 0.542158 0.423472 -0.151844
C23   C     C_R   0.382565 0.092873 0.472771 0.465003
C24   C     C_R   0.565513 0.910578 0.430307 0.495582
C25   C     C_R   0.382500 0.185380 0.475061 0.429651
C26   C     C_R   0.576755 0.818978 0.434681 0.473825
C27   C     C_R   0.490598 0.234325 0.501353 -0.253802
C28   C     C_R   0.503885 0.766904 0.499544 -0.267270
C29   C     C_R   0.595821 0.191307 0.526444 -0.217005
C30   C     C_R   0.429435 0.807722 0.565309 -0.230775
H5    H     H_    0.677980 0.230170 0.545238 0.189345
H6    H     H_    0.375542 0.767419 0.616146 0.220747
C31   C     C_R   0.596339 0.099141 0.528651 0.372269
C32   C     C_R   0.425012 0.899800 0.567717 0.353064
C33   C     C_R   0.489516 0.049175 0.500785 -0.214367
C34   C     C_R   0.491954 0.951815 0.498781 -0.196177
C35   C     C_R   0.590599 0.545499 0.105233 -0.131355
C36   C     C_R   0.444476 0.429732 0.893819 -0.164888
H7    H     H_    0.665258 0.581009 0.068123 0.182279
H8    H     H_    0.402772 0.372548 0.930874 0.204660
C37   C     C_R   0.588704 0.547649 0.205648 0.565906
C38   C     C_R   0.442658 0.431174 0.793272 0.537965
N1    N     N_R   0.500000 0.500020 0.258690 -0.302185
N2    N     N_R   0.500000 0.499980 0.741310 -0.296520
C39   C     C_R   0.409582 0.452695 0.208183 0.516291
C40   C     C_R   0.556557 0.568938 0.791388 0.524339
C41   C     C_R   0.406540 0.454551 0.107471 -0.194629
C42   C     C_R   0.551714 0.571230 0.891844 -0.186513
H9    H     H_    0.330942 0.419622 0.071960 0.190324
H10   H     H_    0.593066 0.628487 0.927249 0.202779
C43   C     C_R   0.498276 0.500046 0.053736 0.033968
C44   C     C_R   0.497746 0.500489 0.945429 0.007411
N3    N     N_R   0.282949 0.703747 0.085782 0.172413
O9    O     O_R   0.283432 0.789609 0.076667 -0.202072
O10   O     O_R   0.306420 0.657098 0.011044 -0.338532
N4    N     N_R   0.740409 0.360526 0.949728 0.156658
O11   O     O_R   0.649165 0.302335 0.959271 -0.272863
O12   O     O_R   0.781331 0.401959 0.025122 -0.314271
N5    N     N_R   0.705918 0.057491 0.558929 0.182762
O13   O     O_R   0.699222 0.986666 0.613090 -0.257827
O14   O     O_R   0.812983 0.096438 0.542510 -0.271392
N6    N     N_R   0.352407 0.939107 0.640314 0.170838
O15   O     O_R   0.390939 0.011933 0.681677 -0.244945
O16   O     O_R   0.254485 0.896640 0.673483 -0.264264
O17   O     O_3   0.678878 0.600493 0.246579 -0.636237
H11   H     H_    0.651157 0.615385 0.310375 0.389599
O18   O     O_3   0.381613 0.360796 0.750371 -0.657561
H12   H     H_    0.344218 0.383399 0.691677 0.391681
O19   O     O_3   0.316229 0.402990 0.251874 -0.685045
H13   H     H_    0.344197 0.383316 0.314666 0.374291
O20   O     O_3   0.620899 0.638056 0.746644 -0.659614
H14   H     H_    0.661832 0.613969 0.690754 0.363372
N7    N     N_R   0.334174 0.777601 0.273879 0.161971
O21   O     O_R   0.439145 0.785946 0.229855 -0.247692
O22   O     O_R   0.306800 0.836311 0.336505 -0.375139
N8    N     N_R   0.756926 0.232442 0.797197 0.189202
O23   O     O_R   0.802414 0.191367 0.870396 -0.204166
O24   O     O_R   0.697406 0.186500 0.732749 -0.280824
O25   O     O_3   0.046793 0.460222 0.232635 -0.627413
H15   H     H_    0.028800 0.431082 0.295163 0.354122
O26   O     O_3   0.915144 0.589898 0.740721 -0.660454
H16   H     H_    0.933647 0.604429 0.672945 0.337826
O27   O     O_3   0.873284 0.592794 0.361025 -0.674992
H17   H     H_    0.927218 0.640003 0.331259 0.360399
O28   O     O_3   0.128422 0.419784 0.648187 -0.709244
H18   H     H_    0.074635 0.376269 0.683710 0.356074
O29   O     O_3   0.275783 0.048393 0.442997 -0.589344
H19   H     H_    0.289013 0.984740 0.435314 0.362020
O30   O     O_3   0.631588 0.957387 0.360127 -0.594561
H20   H     H_    0.600643 0.017476 0.352518 0.335257
O31   O     O_3   0.274912 0.224722 0.450553 -0.624819
H21   H     H_    0.281511 0.288766 0.464580 0.305157
O32   O     O_3   0.661500 0.783015 0.375472 -0.607115
H22   H     H_    0.694128 0.731013 0.408915 0.314142

loop_
_geom_bond_atom_site_label_1
_geom_bond_atom_site_label_2
_geom_bond_distance
_ccdc_geom_bond_type
C23   O29   1.383917 S    
N7    O21   1.301375 A    
C6    N8    1.434896 S    
O25   H15   0.988907 S    
N5    O14   1.301715 A    
N5    O13   1.301386 A    
C32   N6    1.441029 S    
O26   H16   0.988669 S    
O27   H17   0.989355 S    
C38   O18   1.371830 S    
C31   C33   1.415512 A    
C9    C22   1.490491 S    
O20   H14   0.983673 S    
O5    C3    1.302342 A    
C10   C21   1.490491 S    
O29   H19   0.986809 S    
O1    C1    1.297477 A    
N6    O16   1.301661 A    
O18   H12   0.981633 S    
C39   O19   1.374062 S    
N1    C39   1.388988 A    
C6    C16   1.413958 A    
C23   C33   1.422851 A    
C40   C42   1.407007 A    
C35   C43   1.397152 A    
O4    Cu1   1.950313 S    
C41   H9    1.082095 S    
C42   H10   1.081776 S    
C7    H1    1.083976 S    
C15   N3    1.438701 S    
O28   H18   0.988212 S    
C30   H6    1.083998 S    
O32   H22   0.990350 S    
C17   C19   1.404736 A    
N4    O11   1.301288 A    
C8    H2    1.082339 S    
C26   C28   1.411812 A    
Cu1   Cu2   2.697462 S    
C27   C29   1.391176 A    
O2    C2    1.302084 A    
C28   C30   1.397752 A    
C16   N4    1.439359 S    
C36   H8    1.081962 S    
C5    C15   1.414069 A    
N2    C40   1.383256 A    
C13   C15   1.402678 A    
C39   C41   1.408935 A    
C42   C44   1.402169 A    
N3    O9    1.301296 A    
C18   C21   1.404726 A    
N6    O15   1.301351 A    
C31   N5    1.440954 S    
C25   C27   1.413085 A    
C12   O26   1.382133 S    
Cu1   N2    2.026384 S    
C7    C9    1.402658 A    
C11   O25   1.381791 S    
C35   H7    1.082107 S    
C18   C20   1.408136 A    
O7    Cu2   1.981554 S    
C24   O30   1.383574 S    
C37   O17   1.367320 S    
N8    O24   1.299722 A    
O19   H13   0.977170 S    
O6    C4    1.308431 A    
C6    C8    1.405535 A    
O7    C3    1.296066 A    
O3    Cu2   1.950313 S    
O8    C4    1.291128 A    
C26   O32   1.378726 S    
O4    C2    1.296924 A    
C14   C16   1.402420 A    
C37   N1    1.386593 A    
C10   C12   1.419077 A    
O1    Cu1   1.955960 S    
C43   C44   1.514791 S    
C36   C44   1.400509 A    
C5    N7    1.434264 S    
C25   O31   1.384377 S    
Cu2   N1    2.026382 S    
C1    C27   1.450392 S    
O6    Cu2   1.981582 S    
C8    C10   1.403168 A    
C3    C20   1.464751 S    
C12   C14   1.397191 A    
O3    C1    1.294597 A    
O8    Cu1   1.981552 S    
C40   O20   1.372729 S    
C5    C7    1.403893 A    
C24   C34   1.420463 A    
C17   O27   1.381461 S    
C13   H3    1.083215 S    
O31   H21   0.988927 S    
C14   H4    1.083296 S    
C18   O28   1.385107 S    
C9    C11   1.419079 A    
C29   H5    1.082127 S    
C24   C26   1.395770 A    
N8    O23   1.301310 A    
C36   C38   1.406337 A    
C32   C34   1.415420 A    
C19   C21   1.418747 A    
C20   C22   1.416365 A    
C38   N2    1.383815 A    
C35   C37   1.405464 A    
C11   C13   1.397192 A    
O2    Cu2   1.955961 S    
O17   H11   0.975124 S    
C41   C43   1.399427 A    
O5    Cu1   1.981582 S    
C23   C25   1.398283 A    
C33   C34   1.472982 S    
C2    C28   1.462937 S    
O30   H20   0.988732 S    
N7    O22   1.300509 A    
C17   C22   1.404169 A    
N4    O12   1.301503 A    
N3    O10   1.301363 A    
C4    C19   1.466857 S    
C29   C31   1.392496 A    
C30   C32   1.395087 A    
