data_mof_unit_33132.cif
_audit_creation_date              2012-12-11T14:20:58-0500
_audit_creation_method            fapswitch 2.2
_symmetry_space_group_name_H-M    P1
_symmetry_Int_Tables_number       1
_space_group_crystal_system       triclinic
_cell_length_a                    11.638084
_cell_length_b                    11.594884
_cell_length_c                    19.531344
_cell_angle_alpha                 91.02442
_cell_angle_beta                  90.637914
_cell_angle_gamma                 59.63527
_cell_volume                      2273.69416453

loop_
_atom_site_label
_atom_site_type_symbol
_atom_type_description
_atom_site_fract_x
_atom_site_fract_y
_atom_site_fract_z
_atom_type_partial_charge
C1    C     C_R   0.640603 0.117626 0.599086 0.538468
C2    C     C_1   0.653176 0.150066 0.668510 0.005579
C3    C     C_R   0.669563 0.655040 0.197799 0.041671
C4    C     C_R   0.612519 0.746625 0.598603 0.536213
C5    C     C_R   0.545401 0.700827 0.229561 0.080793
C6    C     C_R   0.545617 0.670023 0.298396 -0.004763
C7    C     C_R   0.776435 0.605964 0.309605 -0.155017
C8    C     C_R   0.785705 0.601505 0.238527 -0.158818
C9    C     C_R   0.423915 0.759767 0.192963 0.272319
C10   C     C_R   0.316990 0.752251 0.219658 -0.151147
C11   C     C_R   0.323843 0.701765 0.284231 -0.152734
C12   C     C_1   0.641960 0.704447 0.667989 0.005694
C13   C     C_R   0.436539 0.662511 0.323955 -0.063491
C14   C     C_R   0.652867 0.654257 0.339979 0.015459
C15   C     C_R   0.159053 0.196707 0.190152 0.007473
C16   C     C_R   0.241835 0.145467 0.598221 0.539955
C17   C     C_R   0.169246 0.293690 0.230103 0.028833
C18   C     C_R   0.153470 0.294458 0.301340 0.036453
C19   C     C_R   0.192026 0.067990 0.292396 -0.147635
C20   C     C_R   0.179064 0.081444 0.221717 -0.136144
C21   C     C_R   0.193341 0.390519 0.201418 -0.067799
C22   C     C_R   0.179379 0.497881 0.240861 -0.100868
C23   C     C_1   0.126132 0.197837 0.859277 0.006774
C24   C     C_R   0.136718 0.512841 0.308358 -0.121085
C25   C     C_R   0.122171 0.412923 0.338276 -0.080311
C26   C     C_R   0.179267 0.173772 0.333388 -0.008504
C27   C     C_R   0.734106 0.220906 0.208577 -0.049437
C28   C     C_R   0.643029 0.109752 0.400409 0.586598
C29   C     C_R   0.821524 0.094965 0.238518 -0.047247
C30   C     C_R   0.770387 0.051886 0.289759 0.024074
C31   C     C_R   0.600800 0.284991 0.311980 0.200906
C32   C     C_R   0.625276 0.316244 0.246770 -0.093728
C33   C     C_R   0.942760 0.999305 0.207712 -0.110438
C34   C     C_1   0.171757 0.170894 0.727623 -0.030316
C35   C     C_R   0.971033 0.867935 0.199900 0.203661
C36   C     C_R   0.908094 0.824946 0.242479 -0.051641
C37   C     C_R   0.812491 0.913610 0.289033 0.208215
C38   C     C_R   0.671531 0.149992 0.334022 0.022111
C39   C     C_R   0.081191 0.230907 0.928594 0.551252
C40   C     C_R   0.619446 0.729958 0.405228 0.563238
C41   C     C_R   0.683706 0.603501 0.929474 0.556876
C42   C     C_R   0.708195 0.206382 0.930279 0.561943
C43   C     C_R   0.088534 0.234226 0.123819 0.527064
C44   C     C_R   0.684233 0.609864 0.126602 0.583899
C45   C     C_1   0.149880 0.181860 0.798887 -0.029205
C46   C     C_R   0.744988 0.238379 0.134251 0.553028
C47   C     C_R   0.240011 0.143373 0.402156 0.541527
C48   C     C_1   0.669247 0.645898 0.860171 0.007155
C49   C     C_1   0.654984 0.683949 0.728466 -0.030314
C50   C     C_1   0.662674 0.666476 0.799764 -0.029975
C51   C     C_1   0.195910 0.161951 0.667338 0.004424
C52   C     C_1   0.678364 0.190850 0.860882 0.005885
C53   C     C_1   0.658588 0.167473 0.728996 -0.030464
C54   C     C_1   0.665487 0.180737 0.800349 -0.030179
Cr1   Cr    Cr6+3 0.404720 0.198220 0.499960 1.046750
Cr2   Cr    Cr6+3 0.698290 0.897110 0.500380 1.031827
Cr3   Cr    Cr6+3 0.396970 0.904720 0.499610 1.026740
Cr4   Cr    Cr6+3 0.926180 0.151990 0.028120 1.013906
Cr5   Cr    Cr6+3 0.921330 0.451820 0.027470 1.050134
Cr6   Cr    Cr6+3 0.626260 0.446870 0.028710 1.048452
H1    H     H_    0.196814 0.571771 0.218062 0.166696
H2    H     H_    0.116668 0.600627 0.338083 0.094944
H3    H     H_    0.533585 0.375974 0.398041 0.319605
H4    H     H_    0.994529 0.031167 0.175645 0.144028
H5    H     H_    0.560186 0.414839 0.226355 0.157796
H6    H     H_    0.061950 0.840089 0.113163 0.322023
H7    H     H_    0.820834 0.787026 0.346942 0.322679
H8    H     H_    0.326133 0.846943 0.109855 0.313374
H9    H     H_    0.239233 0.699901 0.304937 0.122009
H10   H     H_    0.225259 0.382605 0.148856 0.153835
H11   H     H_    0.088020 0.428290 0.390774 0.122109
H12   H     H_    0.928081 0.723994 0.237157 0.136955
H13   H     H_    0.883596 0.554400 0.215541 0.148947
H14   H     H_    0.227619 0.789265 0.190865 0.132548
H15   H     H_    0.437895 0.625901 0.374665 0.173786
H16   H     H_    0.215007 0.974149 0.314886 0.146366
H17   H     H_    0.184994 0.002181 0.190635 0.118072
H18   H     H_    0.863185 0.578015 0.340889 0.096524
O1    O     O_R   0.267740 0.231960 0.575440 -0.512148
O2    O     O_R   0.596130 0.579390 0.952730 -0.498068
O3    O     O_R   0.639060 0.321160 0.958670 -0.489581
O4    O     O_R   0.527280 0.186640 0.570530 -0.501636
O5    O     O_R   0.821240 0.124200 0.104370 -0.502463
O6    O     O_R   0.036890 0.167040 0.097840 -0.541847
O7    O     O_R   0.056180 0.349610 0.102880 -0.522032
O8    O     O_R   0.797660 0.564870 0.097950 -0.503771
O9    O     O_R   0.595880 0.584250 0.104270 -0.488921
O10   O     O_R   0.638830 0.325670 0.099150 -0.493975
O11   O     O_3   0.824590 0.350230 0.028100 -0.290055
O12   O     O_R   0.685970 0.784660 0.430010 -0.478321
O13   O     O_R   0.728090 0.003450 0.576380 -0.509815
O14   O     O_R   0.682970 0.789190 0.570490 -0.501816
O15   O     O_R   0.499290 0.771880 0.575530 -0.510106
O16   O     O_R   0.285330 0.030870 0.569730 -0.496262
O17   O     O_R   0.270980 0.227080 0.423890 -0.507259
O18   O     O_R   0.530280 0.182120 0.430050 -0.481434
O19   O     O_R   0.731330 0.998570 0.424830 -0.492834
O20   O     O_3   0.501252 0.385998 0.350183 -0.706848
O21   O     O_3   0.043545 0.786596 0.145658 -0.727156
O22   O     O_3   0.746948 0.866411 0.324777 -0.653940
O23   O     O_R   0.502530 0.767000 0.423990 -0.533848
O24   O     O_3   0.412496 0.823135 0.131751 -0.679453
O25   O     O_R   0.288330 0.026350 0.429250 -0.496306
O26   O     O_3   0.499990 0.000020 0.499980 -0.249622
O27   O     O_R   0.821500 0.119340 0.952830 -0.495769
O28   O     O_R   0.037130 0.162530 0.957360 -0.494437
O29   O     O_R   0.056440 0.344740 0.951340 -0.499592
O30   O     O_R   0.797900 0.560360 0.957470 -0.487069

loop_
_geom_bond_atom_site_label_1
_geom_bond_atom_site_label_2
_ccdc_geom_bond_type
C28   O19   A    
C39   O28   A    
C23   C45   T    
C41   O30   A    
C27   C29   A    
C10   H14   S    
C19   C20   A    
C18   C26   A    
C16   C51   S    
C41   O2    A    
C12   C49   T    
Cr6   O10   S    
C7    C8    A    
C53   C54   S    
C39   O29   A    
C42   O3    A    
C34   C51   T    
C20   H17   S    
C36   C37   A    
H8    O24   S    
H3    O20   S    
C5    C6    A    
C44   O8    A    
C29   C33   A    
C30   C38   A    
C1    C2    S    
Cr5   O11   S    
C31   O20   S    
C19   C26   A    
C40   O23   A    
Cr2   O13   S    
C13   H15   S    
C9    O24   S    
C25   H11   S    
C4    C12   S    
C44   O9    A    
C9    C10   A    
C4    O14   A    
Cr2   O12   S    
C1    O13   A    
Cr3   O15   S    
C21   C22   A    
C43   O6    A    
C19   H16   S    
C18   C25   A    
Cr2   O19   S    
C35   O21   S    
C42   O27   A    
Cr6   O9    S    
C52   C54   T    
C46   O10   A    
C7    C14   A    
C15   C20   A    
Cr3   O25   S    
C3    C44   S    
C47   O25   A    
C43   O7    A    
C24   C25   A    
Cr2   O26   S    
Cr1   O17   S    
C3    C8    A    
C1    O4    A    
Cr6   O11   S    
Cr1   O26   S    
Cr5   O29   S    
C46   O5    A    
C30   C37   A    
Cr4   O28   S    
C35   C36   A    
H6    O21   S    
Cr5   O7    S    
C5    C9    A    
C29   C30   A    
Cr4   O6    S    
C6    C14   A    
Cr1   O1    S    
Cr6   O3    S    
C31   C32   A    
C28   C38   S    
C17   C18   A    
C34   C45   S    
Cr1   O4    S    
H7    O22   S    
C7    H18   S    
C26   C47   S    
C27   C46   S    
Cr3   O16   S    
C22   C24   A    
C15   C17   A    
Cr3   O26   S    
Cr6   O2    S    
C24   H2    S    
C27   C32   A    
Cr1   O18   S    
C3    C5    A    
C2    C53   T    
C11   H9    S    
Cr3   O23   S    
C16   O16   A    
Cr5   O30   S    
C31   C38   A    
C21   H10   S    
C28   O18   A    
Cr4   O27   S    
C16   O1    A    
Cr5   O8    S    
C15   C43   S    
Cr4   O5    S    
C6    C13   A    
C11   C13   A    
C33   H4    S    
C23   C39   S    
C48   C50   T    
C8    H13   S    
C33   C35   A    
C41   C48   S    
Cr4   O11   S    
C17   C21   A    
C10   C11   A    
C14   C40   S    
C4    O15   A    
Cr2   O14   S    
C49   C50   S    
C47   O17   A    
C40   O12   A    
C37   O22   S    
C36   H12   S    
C42   C52   S    
C32   H5    S    
C22   H1    S    
