data_mof_unit_57279.cif
_audit_creation_date              2012-12-11T18:34:42-0500
_audit_creation_method            fapswitch 2.2
_symmetry_space_group_name_H-M    P1
_symmetry_Int_Tables_number       1
_space_group_crystal_system       triclinic
_cell_length_a                    8.422293
_cell_length_b                    14.723118
_cell_length_c                    22.94119
_cell_angle_alpha                 94.943104
_cell_angle_beta                  89.795128
_cell_angle_gamma                 93.283795
_cell_volume                      2829.52635084

loop_
_atom_site_label
_atom_site_type_symbol
_atom_type_description
_atom_site_fract_x
_atom_site_fract_y
_atom_site_fract_z
_atom_type_partial_charge
Ba1   Ba    Ba6+2 0.846250 0.544220 0.470860 1.703763
Ba2   Ba    Ba6+2 0.343570 0.455860 0.529140 1.741985
C1    C     C_3   0.693306 0.791499 0.236797 -0.208805
C2    C     C_3   0.632298 0.742840 0.288991 0.751366
C3    C     C_3   0.583138 0.285928 0.349771 0.480753
C4    C     C_3   0.632449 0.246376 0.289092 0.248380
C5    C     C_3   0.043465 0.215259 0.693972 0.308694
C6    C     C_3   0.091385 0.205446 0.757027 0.248271
C7    C     C_3   0.548439 0.215612 0.678705 0.377419
C8    C     C_3   0.516534 0.131687 0.712556 0.174771
C9    C     C_R   0.374101 0.448665 0.322895 -0.269948
C10   C     C_R   0.185269 0.531412 0.928911 -0.018031
C11   C     C_R   0.143990 0.524420 0.868476 0.586547
C12   C     C_3   0.020675 0.831759 0.322520 0.668401
C13   C     C_R   0.881277 0.468980 0.892039 0.589205
C14   C     C_R   0.929520 0.457048 0.950207 -0.075792
C15   C     C_R   0.080733 0.492885 0.969256 -0.115036
C16   C     C_R   0.330807 0.573932 0.949846 -0.047546
C17   C     C_R   0.370038 0.578793 0.009488 -0.107187
C18   C     C_R   0.270501 0.535571 0.049602 -0.030043
C19   C     C_R   0.127856 0.490295 0.028784 -0.058534
C20   C     C_R   0.830032 0.410708 0.989627 0.412614
C21   C     C_R   0.886971 0.400146 0.046607 -0.145431
C22   C     C_R   0.033270 0.441485 0.067112 -0.068371
C23   C     C_3   0.091362 0.895707 0.277367 0.598200
C24   C     C_R   0.089206 0.431819 0.124526 0.598920
C25   C     C_R   0.310255 0.536993 0.109919 0.567196
C26   C     C_2   0.835121 0.416154 0.765672 -0.074104
C27   C     C_3   0.794314 0.398507 0.701418 -0.097019
C28   C     C_1   0.002973 0.515893 0.682867 0.110391
C29   C     C_2   0.031634 0.535169 0.740186 -0.081191
C30   C     C_2   0.948786 0.480745 0.786069 0.178224
C31   C     C_R   0.439499 0.484462 0.225744 -0.065536
C32   C     C_R   0.486712 0.482092 0.284818 -0.032109
C33   C     C_R   0.211918 0.446768 0.310800 -0.048259
C34   C     C_3   0.192699 0.749043 0.614658 0.398644
C35   C     C_R   0.162241 0.461919 0.254070 -0.092709
C36   C     C_R   0.275575 0.475149 0.208608 0.205458
C37   C     C_2   0.890585 0.455973 0.661853 -0.185234
C38   C     C_R   0.685750 0.944125 0.542263 0.428339
C39   C     C_R   0.495248 0.808690 0.514443 0.034627
C40   C     C_R   0.335265 0.782773 0.502168 -0.334888
C41   C     C_R   0.229942 0.839875 0.480424 0.048634
C42   C     C_R   0.282496 0.929559 0.474304 -0.085134
C43   C     C_R   0.437830 0.963236 0.491512 -0.091027
C44   C     C_R   0.543005 0.904283 0.515947 -0.066594
C45   C     C_3   0.219107 0.845568 0.643975 0.289392
C46   C     C_R   0.631854 0.094616 0.508804 -0.113200
C47   C     C_R   0.730779 0.038142 0.538342 -0.076530
C48   C     C_R   0.679052 0.189993 0.507411 0.068019
C49   C     C_R   0.825021 0.223916 0.531284 0.138365
C50   C     C_R   0.925516 0.166841 0.557370 -0.004543
C51   C     C_R   0.878884 0.075164 0.560981 -0.199983
C52   C     C_R   0.490567 0.053793 0.482097 0.405896
C53   C     C_3   0.139755 0.248310 0.376002 0.652576
C54   C     C_3   0.178378 0.206571 0.314499 -0.284432
C55   C     C_3   0.629506 0.665048 0.647778 0.639838
C56   C     C_3   0.542653 0.690212 0.705311 -0.349245
H1    H     H_    0.724344 0.748977 0.323465 0.025724
H2    H     H_    0.275169 0.840797 0.687547 0.004891
H3    H     H_    0.303245 0.885599 0.617343 0.018153
H4    H     H_    0.245393 0.285789 0.395704 0.058686
H5    H     H_    0.072049 0.168625 0.294371 0.189105
H6    H     H_    0.274453 0.158422 0.316902 0.129825
H7    H     H_    0.218098 0.260441 0.285917 0.027488
H8    H     H_    0.567997 0.603226 0.625875 0.091830
H9    H     H_    0.729297 0.863723 0.250827 0.074154
H10   H     H_    0.591113 0.757203 0.725750 0.087212
H11   H     H_    0.558587 0.638194 0.736670 0.144705
H12   H     H_    0.414035 0.695065 0.697721 0.097326
H13   H     H_    0.598032 0.790672 0.203300 0.114061
H14   H     H_    0.457055 0.295577 0.345882 -0.232226
H15   H     H_    0.652264 0.350948 0.362148 0.004675
H16   H     H_    0.572736 0.177481 0.279451 0.093279
H17   H     H_    0.592267 0.290206 0.255335 -0.050379
H18   H     H_    0.794323 0.755865 0.216163 0.137462
H19   H     H_    0.223405 0.890800 0.277721 0.068761
H20   H     H_    0.017245 0.287323 0.690604 -0.003530
H21   H     H_    0.936556 0.169409 0.682856 -0.035088
H22   H     H_    0.192787 0.255912 0.768275 0.060698
H23   H     H_    0.132297 0.135753 0.760160 0.016343
H24   H     H_    0.679547 0.224882 0.673464 -0.124279
H25   H     H_    0.493433 0.202645 0.634587 0.077593
H26   H     H_    0.386883 0.119195 0.718335 0.095331
H27   H     H_    0.906276 0.857889 0.338542 -0.002294
H28   H     H_    0.571905 0.143439 0.756797 0.060880
H29   H     H_    0.816441 0.359654 0.075328 0.117636
H30   H     H_    0.481715 0.613675 0.023729 0.117329
H31   H     H_    0.531761 0.499503 0.194700 0.137658
H32   H     H_    0.413837 0.605109 0.920284 0.131186
H33   H     H_    0.099951 0.597920 0.754064 0.114552
H34   H     H_    0.779067 0.368532 0.793824 0.145591
H35   H     H_    0.036348 0.461965 0.245728 0.143833
H36   H     H_    0.411481 0.433274 0.365459 0.021886
H37   H     H_    0.870791 0.442381 0.615182 0.123790
H38   H     H_    0.290598 0.714652 0.508381 0.012111
H39   H     H_    0.200742 0.970153 0.453315 0.107944
H40   H     H_    0.961626 0.032888 0.580345 0.125810
H41   H     H_    0.311001 0.722492 0.604525 -0.139375
H42   H     H_    0.114884 0.750659 0.575883 0.040228
N1    N     N_R   0.991663 0.492907 0.849462 -0.433111
N2    N     N_R   0.224566 0.481878 0.147188 -0.421215
O1    O     O_2   0.901900 0.448470 0.362340 -0.451821
O2    O     O_3   0.635017 0.740836 0.614567 -0.597115
O3    O     O_3   0.129845 0.835990 0.368411 -0.668424
O4    O     O_2   0.287790 0.551560 0.637690 -0.500190
O5    O     O_3   0.047460 0.550640 0.566640 -0.478668
O6    O     O_3   0.544140 0.380990 0.608030 -0.474248
O7    O     O_3   0.114038 0.695086 0.652955 -0.646371
O8    O     O_3   0.640350 0.387150 0.474440 -0.446546
O9    O     O_3   0.136890 0.332750 0.580830 -0.441147
O10   O     O_2   0.255267 0.173217 0.548413 -0.478649
O11   O     O_3   0.169465 0.191787 0.656684 -0.633013
O12   O     O_3   0.142240 0.449440 0.433360 -0.505374
O13   O     O_3   0.549340 0.612930 0.525560 -0.531382
O14   O     O_2   0.396530 0.270940 0.479440 -0.442272
O15   O     O_3   0.598288 0.221974 0.390316 -0.592648
O16   O     O_2   0.482873 0.471175 0.710110 -0.451012
O17   O     O_3   0.482727 0.292203 0.709005 -0.608843
O18   O     O_2   0.245542 0.545100 0.833166 -0.581314
O19   O     O_2   0.739876 0.460144 0.879972 -0.547299
O20   O     O_2   0.018584 0.376641 0.153505 -0.609542
O21   O     O_2   0.419494 0.588995 0.129000 -0.604883
O22   O     O_3   0.645560 0.619080 0.391970 -0.517171
O23   O     O_2   0.814428 0.554052 0.294105 -0.459856
O24   O     O_3   0.013259 0.305255 0.373919 -0.606141
O25   O     O_3   0.596298 0.652263 0.268380 -0.609117
O26   O     O_2   0.793170 0.729090 0.520590 -0.392244
O27   O     O_3   0.052800 0.667320 0.419180 -0.482864
O28   O     O_2   0.899852 0.828580 0.444436 -0.489466
P1    P     P_3+3 0.074990 0.420800 0.372080 0.976302
P2    P     P_3+3 0.618830 0.715330 0.538180 1.059888
P3    P     P_3+3 0.064674 0.788779 0.432979 0.990706
P4    P     P_3+3 0.114710 0.579280 0.627920 1.023246
P5    P     P_3+3 0.120401 0.214554 0.585588 0.998280
P6    P     P_3+3 0.643507 0.569721 0.316034 0.971892
P7    P     P_3+3 0.578853 0.269748 0.462996 1.078838
P8    P     P_3+3 0.576329 0.390168 0.683362 1.011019
O29   O     O_3   0.072442 0.887818 0.646942 -0.642169
C57   C     C_3   0.062069 0.947871 0.698077 0.291976
H43   H     H_    0.990510 0.005193 0.687381 0.044163
H44   H     H_    0.179797 0.979117 0.713711 0.036843
C58   C     C_3   0.976022 0.898174 0.746006 -0.196627
H45   H     H_    0.857048 0.870881 0.729707 0.135323
H46   H     H_    0.044985 0.839859 0.757088 0.123023
C59   C     C_3   0.954948 0.962013 0.801032 -0.506539
H47   H     H_    0.072867 0.988450 0.818688 0.132422
H48   H     H_    0.891492 0.924213 0.834794 0.146114
H49   H     H_    0.883932 0.020127 0.791139 0.166619
O30   O     O_3   0.095386 0.178436 0.411631 -0.752191
H50   H     H_    0.991752 0.149822 0.397014 0.318663
O31   O     O_3   0.784282 0.645021 0.660435 -0.781554
H51   H     H_    0.834592 0.700052 0.682628 0.315495
O32   O     O_3   0.491973 0.784411 0.307158 -0.692756
C60   C     C_3   0.450305 0.761957 0.363499 0.230318
H52   H     H_    0.390766 0.820088 0.384085 0.104263
H53   H     H_    0.554213 0.762918 0.393110 0.021949
C61   C     C_3   0.340598 0.673186 0.360596 -0.203097
H54   H     H_    0.222249 0.688056 0.349021 0.161173
H55   H     H_    0.359098 0.629054 0.321036 0.096329
C62   C     C_3   0.352194 0.619312 0.415458 -0.318406
H56   H     H_    0.435653 0.656582 0.444304 0.109611
H57   H     H_    0.405280 0.555307 0.408549 0.106508
H58   H     H_    0.252472 0.599658 0.442430 0.162388
O33   O     O_3   0.797085 0.238745 0.286078 -0.710826
H59   H     H_    0.843686 0.298057 0.274573 0.313592
O34   O     O_3   0.957771 0.217223 0.793915 -0.685687
C63   C     C_3   0.003863 0.253169 0.850958 0.244450
H60   H     H_    0.894953 0.276104 0.873815 0.117328
H61   H     H_    0.087069 0.314618 0.850238 0.037692
C64   C     C_3   0.074290 0.181184 0.886181 -0.208056
H62   H     H_    0.987437 0.121745 0.887569 0.134025
H63   H     H_    0.185452 0.157612 0.865204 0.104751
C65   C     C_3   0.112570 0.220185 0.948652 -0.485830
H64   H     H_    0.196169 0.281336 0.948428 0.136065
H65   H     H_    0.168666 0.167988 0.972625 0.146075
H66   H     H_    0.002028 0.239406 0.971915 0.149984
O35   O     O_3   0.575518 0.054419 0.681700 -0.761024
H67   H     H_    0.692181 0.057947 0.688365 0.291264
O36   O     O_3   0.691009 0.363853 0.968135 -0.622592
C66   C     C_3   0.562052 0.370163 0.007807 0.293852
H68   H     H_    0.458296 0.390990 0.983470 0.089851
H69   H     H_    0.581929 0.423079 0.045294 0.018532
C67   C     C_3   0.518641 0.276168 0.029165 -0.226124
H70   H     H_    0.477263 0.228423 0.991395 0.131351
H71   H     H_    0.624581 0.248031 0.048051 0.127194
C68   C     C_3   0.387953 0.281192 0.075301 -0.472596
H72   H     H_    0.428261 0.327046 0.114058 0.140688
H73   H     H_    0.358345 0.212028 0.089483 0.154074
H74   H     H_    0.279357 0.306962 0.056876 0.137457
O37   O     O_3   0.997759 0.741236 0.297602 -0.756349
H75   H     H_    0.091750 0.726272 0.273209 0.280070
O38   O     O_3   0.874260 0.312815 0.524476 -0.723065
H76   H     H_    0.961255 0.309727 0.495224 0.327350
O39   O     O_3   0.775102 0.892957 0.575494 -0.668353
H77   H     H_    0.791393 0.928062 0.614021 0.317624
O40   O     O_3   0.416484 0.097267 0.440178 -0.688835
H78   H     H_    0.303673 0.099781 0.450862 0.352843
O41   O     O_3   0.023511 0.872264 0.221100 -0.690184
C69   C     C_3   0.141631 0.851608 0.178859 0.247725
H79   H     H_    0.218676 0.798440 0.193053 0.045165
H80   H     H_    0.216239 0.914552 0.171651 0.071319
C70   C     C_3   0.061257 0.814483 0.121394 -0.168223
H81   H     H_    0.987058 0.751527 0.128575 0.126364
H82   H     H_    0.982567 0.865988 0.106462 0.132433
C71   C     C_3   0.183633 0.791775 0.073913 -0.497557
H83   H     H_    0.254678 0.854508 0.064074 0.135646
H84   H     H_    0.121911 0.762187 0.033357 0.144857
H85   H     H_    0.264716 0.741198 0.088306 0.170624
O42   O     O_3   0.062934 0.986730 0.295667 -0.741298
H86   H     H_    0.947605 0.994257 0.290354 0.309298

loop_
_geom_bond_atom_site_label_1
_geom_bond_atom_site_label_2
_ccdc_geom_bond_type
C58   C59   S    
C2    O32   S    
C64   H62   S    
C53   H4    S    
O33   H59   S    
C60   H53   S    
C39   C40   A    
C17   C18   A    
C57   C58   S    
C55   H8    S    
C53   C54   S    
Ba1   P2    S    
C11   O18   D    
O35   H67   S    
C48   P7    S    
C5    C6    S    
C43   C44   A    
C42   C43   A    
C38   C44   A    
C27   P8    S    
C64   H63   S    
Ba2   P4    S    
C52   O40   S    
C40   H38   S    
C5    H21   S    
C26   C27   S    
C33   C35   A    
C57   H44   S    
Ba1   Ba2   S    
O5    P4    S    
Ba1   O27   S    
C3    C4    S    
C71   H84   S    
C13   C14   A    
C55   O31   S    
Ba2   O5    S    
C56   H12   S    
C67   H70   S    
C34   C45   S    
C16   C17   A    
O12   P1    S    
C8    H26   S    
C41   P3    S    
C65   H64   S    
C68   H74   S    
C61   C62   S    
C45   H2    S    
Ba2   O14   S    
C12   O3    S    
C8    H28   S    
C40   C41   A    
C69   H79   S    
C28   P4    S    
C10   C15   A    
C21   C22   A    
Ba1   O26   S    
C7    C8    S    
Ba1   O1    S    
C7    H24   S    
C63   H61   S    
C4    O33   S    
O41   C69   S    
C21   H29   S    
O8    P7    S    
C60   C61   S    
C61   H55   S    
O40   H78   S    
O26   P2    D    
C20   C21   A    
C62   H57   S    
C4    H16   S    
C59   H48   S    
O13   P2    S    
C66   H69   S    
C64   C65   S    
O15   P7    S    
Ba2   O9    S    
O22   P6    S    
O37   H75   S    
C16   H32   S    
C70   C71   S    
C26   C30   D    
O25   P6    S    
C20   O36   S    
C17   H30   S    
C49   O38   S    
O34   C63   S    
C25   O21   D    
C71   H83   S    
C14   C15   A    
C48   C49   A    
C66   H68   S    
Ba2   O4    S    
C13   N1    Am   
C6    H23   S    
C3    O15   S    
C8    O35   S    
C46   C52   A    
C1    H13   S    
C41   C42   A    
C35   C36   A    
C23   O41   S    
C6    O34   S    
C31   H31   S    
Ba1   O8    S    
C59   H49   S    
C70   H82   S    
Ba2   O13   S    
O4    P4    D    
C29   C30   S    
C53   O24   S    
C32   P6    S    
C39   C44   A    
C27   C37   S    
C54   H6    S    
C31   C32   A    
C54   H5    S    
C35   H35   S    
C34   H42   S    
C57   H43   S    
C46   C48   A    
C65   H66   S    
C37   H37   S    
O32   C60   S    
C7    H25   S    
C5    H20   S    
O27   P3    S    
C12   O37   S    
O23   P6    D    
C56   H10   S    
C63   H60   S    
Ba1   O5    S    
C43   C52   A    
O38   H76   S    
C29   H33   S    
O11   P5    S    
C61   H54   S    
C7    O17   S    
C23   H19   S    
C24   O20   D    
O28   P3    D    
C45   O29   S    
Ba1   O12   S    
O10   P5    D    
C11   N1    Am   
C1    C2    S    
C33   P1    S    
C34   O7    S    
C62   H58   S    
C50   C51   A    
C9    H36   S    
C53   O30   S    
O3    P3    S    
C59   H47   S    
C66   C67   S    
C54   H7    S    
C58   H46   S    
C55   O2    S    
Ba2   O8    S    
C14   C20   A    
C13   O19   D    
C2    O25   S    
O7    P4    S    
O30   H50   S    
O17   P8    S    
C9    C32   A    
C1    H9    S    
C12   H27   S    
C22   C24   A    
Ba1   P1    S    
C45   H3    S    
C39   P2    S    
O14   P7    D    
O29   C57   S    
C56   H11   S    
C18   C25   A    
C51   H40   S    
C3    H14   S    
Ba1   O13   S    
C25   N2    Am   
C31   C36   A    
C67   C68   S    
C5    O11   S    
C9    C33   A    
C58   H45   S    
Ba1   O22   S    
C49   C50   A    
C36   N2    S    
C62   H56   S    
C24   N2    Am   
O6    P8    S    
Ba2   O12   S    
C71   H85   S    
O9    P5    S    
C55   C56   S    
C28   C29   D    
O24   P1    S    
C69   C70   S    
C46   C47   A    
C2    H1    S    
Ba2   O6    S    
C65   H65   S    
C67   H71   S    
C28   C37   D    
C34   H41   S    
C42   H39   S    
C12   C23   S    
C3    H15   S    
C23   O42   S    
C15   C19   A    
C68   H73   S    
C47   C51   A    
O39   H77   S    
C26   H34   S    
C68   H72   S    
C10   C11   A    
C18   C19   A    
O42   H86   S    
O2    P2    S    
C19   C22   A    
C10   C16   A    
C60   H52   S    
C6    H22   S    
C50   P5    S    
C1    H18   S    
C30   N1    S    
O31   H51   S    
C63   C64   S    
C70   H81   S    
O16   P8    D    
O1    P1    D    
C69   H80   S    
O36   C66   S    
C38   C47   A    
C38   O39   S    
C4    H17   S    
