data_mof_unit_68130.cif
_audit_creation_date              2013-03-05T15:58:27-0500
_audit_creation_method            fapswitch 2.2
_symmetry_space_group_name_H-M    P1
_symmetry_Int_Tables_number       1
_space_group_crystal_system       triclinic
_cell_length_a                    7.400942
_cell_length_b                    13.363996
_cell_length_c                    16.937349
_cell_angle_alpha                 89.999942
_cell_angle_beta                  89.999913
_cell_angle_gamma                 90.001012
_cell_volume                      1675.20813778

loop_
_atom_site_label
_atom_site_type_symbol
_atom_site_description
_atom_site_fract_x
_atom_site_fract_y
_atom_site_fract_z
_atom_type_partial_charge
O1    O     O_R   0.388780 0.834790 0.412340 -0.573907
O2    O     O_R   0.111220 0.165210 0.912340 -0.573907
O3    O     O_R   0.888780 0.665210 0.587660 -0.573867
O4    O     O_R   0.611220 0.334790 0.087660 -0.573867
O5    O     O_R   0.059040 0.845930 0.587040 -0.564866
O6    O     O_R   0.440960 0.154070 0.087040 -0.564867
O7    O     O_R   0.559040 0.654070 0.412960 -0.565011
O8    O     O_R   0.940960 0.345930 0.912960 -0.565011
C1    C     C_R   0.227179 0.871001 0.612273 1.033650
C2    C     C_R   0.272821 0.128999 0.112273 1.033650
C3    C     C_R   0.727179 0.628987 0.387736 1.033670
C4    C     C_R   0.772822 0.371013 0.887736 1.033670
O9    O     O_R   0.059070 0.845930 0.412970 -0.541780
O10   O     O_R   0.440930 0.154070 0.912970 -0.541780
O11   O     O_R   0.559070 0.654070 0.587030 -0.541799
O12   O     O_R   0.940930 0.345930 0.087030 -0.541799
O13   O     O_R   0.888760 0.665210 0.412340 -0.597746
O14   O     O_R   0.611240 0.334790 0.912340 -0.597747
O15   O     O_R   0.388760 0.834790 0.587660 -0.597802
O16   O     O_R   0.111240 0.165210 0.087660 -0.597802
C5    C     C_R   0.226784 0.868687 0.385460 1.029079
C6    C     C_R   0.273216 0.131313 0.885460 1.029079
C7    C     C_R   0.726781 0.631302 0.614533 1.029224
C8    C     C_R   0.773219 0.368698 0.114533 1.029224
O17   O     O_3   0.222280 0.690700 0.500000 -0.264305
O18   O     O_3   0.277720 0.309300 0.000000 -0.264305
O19   O     O_3   0.722280 0.809300 0.500000 -0.264323
O20   O     O_3   0.777720 0.190700 0.000000 -0.264323
V1    V     V_3+5 0.947430 0.761000 0.500000 1.313358
V2    V     V_3+5 0.552570 0.239000 0.000000 1.313358
V3    V     V_3+5 0.447430 0.739000 0.500000 1.313273
V4    V     V_3+5 0.052570 0.261000 0.000000 1.313273
C9    C     C_3   0.900294 0.591384 0.740228 0.213392
C10   C     C_3   0.599706 0.408616 0.240228 0.213390
C11   C     C_3   0.400453 0.908720 0.259831 0.213555
C12   C     C_3   0.099547 0.091280 0.759831 0.213555
H1    H     H_    0.017943 0.592029 0.702014 0.209695
H2    H     H_    0.482057 0.407970 0.202015 0.209695
H3    H     H_    0.517995 0.908116 0.298102 0.209821
H4    H     H_    0.982005 0.091884 0.798102 0.209822
C13   C     C_3   0.934130 0.511744 0.806640 0.166704
C14   C     C_3   0.565871 0.488255 0.306640 0.166704
C15   C     C_3   0.434286 0.988422 0.193460 0.166593
C16   C     C_3   0.065714 0.011578 0.693460 0.166593
H5    H     H_    0.044776 0.461704 0.786256 0.152007
H6    H     H_    0.455224 0.538295 0.286257 0.152006
H7    H     H_    0.544630 0.038576 0.213948 0.152301
H8    H     H_    0.955370 0.961424 0.713949 0.152302
H9    H     H_    0.853478 0.321171 0.740609 0.259608
H10   H     H_    0.646519 0.678828 0.240609 0.259609
H11   H     H_    0.352375 0.179074 0.259447 0.259454
H12   H     H_    0.147626 0.820925 0.759447 0.259454
C17   C     C_3   0.759525 0.445944 0.665265 0.579234
C18   C     C_3   0.740474 0.554056 0.165265 0.579235
C19   C     C_3   0.259307 0.054058 0.334742 0.579153
C20   C     C_3   0.240694 0.945942 0.834742 0.579153
C21   C     C_3   0.568291 0.573538 0.743642 0.110205
C22   C     C_3   0.931709 0.426463 0.243642 0.110206
C23   C     C_3   0.068444 0.926341 0.256279 0.110347
C24   C     C_3   0.431556 0.073659 0.756279 0.110347
C25   C     C_3   0.735434 0.561204 0.687601 -0.405175
C26   C     C_3   0.764566 0.438796 0.187601 -0.405175
C27   C     C_3   0.235451 0.938786 0.312392 -0.405025
C28   C     C_3   0.264549 0.061214 0.812392 -0.405024
H13   H     H_    0.550121 0.653836 0.758566 0.160749
H14   H     H_    0.949879 0.346165 0.258566 0.160748
H15   H     H_    0.050383 0.846025 0.241389 0.160888
H16   H     H_    0.449617 0.153975 0.741388 0.160888
C29   C     C_3   0.762836 0.443562 0.817563 -0.310630
C30   C     C_3   0.737164 0.556438 0.317563 -0.310630
C31   C     C_3   0.262825 0.056445 0.182439 -0.310484
C32   C     C_3   0.237175 0.943555 0.682439 -0.310486
C33   C     C_3   0.746955 0.379724 0.741151 -0.569897
C34   C     C_3   0.753044 0.620276 0.241150 -0.569899
C35   C     C_3   0.246392 0.120247 0.258857 -0.570027
C36   C     C_3   0.253608 0.879753 0.758857 -0.570026
C37   C     C_3   0.588571 0.509749 0.820300 0.133518
C38   C     C_3   0.911429 0.490251 0.320299 0.133518
C39   C     C_3   0.088827 0.990065 0.179584 0.133349
C40   C     C_3   0.411172 0.009935 0.679583 0.133350
H17   H     H_    0.469735 0.459285 0.825855 0.175166
H18   H     H_    0.030266 0.540716 0.325854 0.175165
H19   H     H_    0.969830 0.040365 0.173877 0.175361
H20   H     H_    0.530170 0.959635 0.673877 0.175361
H21   H     H_    0.616579 0.338102 0.742372 0.221589
H22   H     H_    0.883418 0.661899 0.242371 0.221589
H23   H     H_    0.115684 0.161496 0.257614 0.221652
H24   H     H_    0.384316 0.838504 0.757614 0.221652
Br1   Br    Br    0.589088 0.393801 0.588392 -0.232639
Br2   Br    Br    0.910911 0.606199 0.088392 -0.232638
Br3   Br    Br    0.088894 0.106015 0.411710 -0.232700
Br4   Br    Br    0.411106 0.893984 0.911710 -0.232701
O21   O     O_3   0.887366 0.690774 0.767767 -0.710223
H25   H     H_    0.812349 0.692495 0.815977 0.398878
O22   O     O_3   0.612635 0.309225 0.267767 -0.710223
H26   H     H_    0.687652 0.307505 0.315977 0.398878
O23   O     O_3   0.387719 0.809335 0.232270 -0.710557
H27   H     H_    0.313107 0.807618 0.183951 0.399051
O24   O     O_3   0.112280 0.190665 0.732270 -0.710556
H28   H     H_    0.186892 0.192381 0.683951 0.399051
Br5   Br    Br    0.041832 0.569521 0.901041 -0.273954
Br6   Br    Br    0.458172 0.430478 0.401041 -0.273952
Br7   Br    Br    0.542638 0.930809 0.099146 -0.274510
Br8   Br    Br    0.957361 0.069191 0.599146 -0.274511
Br9   Br    Br    0.990067 0.418867 0.613809 -0.316107
Br10  Br    Br    0.509932 0.581133 0.113809 -0.316107
Br11  Br    Br    0.489921 0.081337 0.386093 -0.316142
Br12  Br    Br    0.010079 0.918662 0.886094 -0.316142
Br13  Br    Br    0.344187 0.539458 0.694530 -0.489250
Br14  Br    Br    0.155813 0.460542 0.194528 -0.489249
Br15  Br    Br    0.844285 0.960481 0.305312 -0.489474
Br16  Br    Br    0.655715 0.039519 0.805311 -0.489475
Br17  Br    Br    0.571058 0.593824 0.913586 -0.306218
Br18  Br    Br    0.928946 0.406177 0.413585 -0.306218
Br19  Br    Br    0.072027 0.905924 0.086324 -0.306106
Br20  Br    Br    0.427972 0.094076 0.586324 -0.306105

loop_
_geom_bond_atom_site_label_1
_geom_bond_atom_site_label_2
_geom_bond_distance
_ccdc_geom_bond_type
O17   V3    1.786963 S    
C31   C35   1.554678 S    
C4    C29   1.535612 S    
O1    C5    1.360120 A    
O21   H25   0.987695 S    
C20   C36   1.563190 S    
C39   Br19  1.942914 S    
O19   V1    1.786984 S    
O13   V1    2.007910 S    
C29   C37   1.564596 S    
O3    C7    1.360134 A    
O22   H26   0.987693 S    
C10   C14   1.568676 S    
C1    C32   1.535575 S    
O1    V3    2.007885 S    
C32   C36   1.554678 S    
O15   V3    2.007917 S    
C31   C39   1.564459 S    
O23   H27   0.987529 S    
C16   Br8   1.946192 S    
C3    C30   1.535613 S    
O7    C3    1.357720 A    
O9    V1    2.035612 S    
H11   C35   1.110576 S    
C18   Br2   1.942145 S    
H10   C34   1.110837 S    
O4    C8    1.360135 A    
C30   C38   1.564594 S    
C14   C30   1.572135 S    
O2    V4    2.007887 S    
C14   H6    1.112203 S    
O3    V1    2.007874 S    
C30   C34   1.554550 S    
C20   Br12  1.949979 S    
C19   Br3   1.942244 S    
C23   H15   1.110641 S    
C18   C34   1.563267 S    
C17   C25   1.596110 S    
C1    O15   1.355745 A    
C21   Br13  1.910557 S    
C40   Br20  1.942913 S    
C2    O16   1.355745 A    
C19   C27   1.596111 S    
O2    C6    1.360120 A    
C23   Br15  1.910535 S    
C20   C28   1.596112 S    
C29   C33   1.554550 S    
O14   V2    2.007907 S    
C11   C15   1.568724 S    
C36   H24   1.113614 S    
C40   H20   1.112135 S    
C19   C35   1.563190 S    
C2    C31   1.535575 S    
O11   C7    1.360228 A    
O12   C8    1.360227 A    
C22   Br14  1.910556 S    
C38   Br18  1.943110 S    
O10   V2    2.035617 S    
C37   Br17  1.943112 S    
C14   Br6   1.946273 S    
C22   H14   1.110642 S    
O5    V1    2.035647 S    
O7    V3    2.035663 S    
C18   Br10  1.949806 S    
O8    V4    2.035663 S    
C21   C37   1.560453 S    
C12   H4    1.084895 S    
C15   C31   1.572124 S    
C10   O22   1.411018 S    
C23   C39   1.560586 S    
O18   V4    1.786963 S    
C18   C26   1.596110 S    
C9    H1    1.084957 S    
C19   Br11  1.949979 S    
C11   H3    1.084895 S    
O5    C1    1.357720 A    
C24   Br16  1.910534 S    
C38   H18   1.112288 S    
C9    O21   1.411018 S    
O24   H28   0.987529 S    
C37   H17   1.112288 S    
O8    C4    1.357720 A    
O9    C5    1.360242 A    
C34   H22   1.113933 S    
O11   V3    2.035630 S    
C33   H21   1.113934 S    
C22   C26   1.567904 S    
C35   H23   1.113613 S    
O6    V2    2.035644 S    
C17   Br1   1.942146 S    
H9    C33   1.110840 S    
C12   C16   1.568725 S    
C10   C26   1.563922 S    
C13   C29   1.572136 S    
O16   V4    2.007917 S    
C24   C40   1.560588 S    
C8    C26   1.553471 S    
C10   H2    1.084957 S    
C17   C33   1.563266 S    
C21   H13   1.110643 S    
H12   C36   1.110577 S    
C3    O13   1.355750 A    
O6    C2    1.357719 A    
C21   C25   1.567902 S    
O12   V4    2.035629 S    
C23   C27   1.568009 S    
C24   C28   1.568007 S    
C9    C13   1.568676 S    
O10   C6    1.360243 A    
O20   V2    1.786984 S    
C32   C40   1.564460 S    
C12   C28   1.563726 S    
C39   H19   1.112134 S    
C13   Br5   1.946279 S    
C16   C32   1.572124 S    
C12   O24   1.410973 S    
C15   Br7   1.946193 S    
C5    C27   1.553484 S    
C22   C38   1.560452 S    
C6    C28   1.553487 S    
C17   Br9   1.949807 S    
C7    C25   1.553471 S    
C24   H16   1.110642 S    
C9    C25   1.563921 S    
C4    O14   1.355750 A    
C13   H5    1.112205 S    
C11   C27   1.563727 S    
C11   O23   1.410971 S    
C20   Br4   1.942243 S    
C15   H7    1.112012 S    
O4    V2    2.007876 S    
C16   H8    1.112012 S    
