data_mof_unit_9555.cif
_audit_creation_date              2012-12-11T15:55:40-0500
_audit_creation_method            fapswitch 2.2
_symmetry_space_group_name_H-M    P1
_symmetry_Int_Tables_number       1
_space_group_crystal_system       triclinic
_cell_length_a                    6.938251
_cell_length_b                    14.54406
_cell_length_c                    16.091467
_cell_angle_alpha                 89.990431
_cell_angle_beta                  89.967668
_cell_angle_gamma                 90.033422
_cell_volume                      1623.79482985

loop_
_atom_site_label
_atom_site_type_symbol
_atom_type_description
_atom_site_fract_x
_atom_site_fract_y
_atom_site_fract_z
_atom_type_partial_charge
O1    O     O_R   0.505680 0.583900 0.413320 -0.540082
O2    O     O_R   0.176010 0.594950 0.586080 -0.543107
O3    O     O_R   0.005680 0.416100 0.586680 -0.536711
C1    C     C_R   0.345043 0.617136 0.615050 0.686292
O4    O     O_R   0.175960 0.594930 0.413930 -0.543116
O5    O     O_R   0.005640 0.416080 0.413300 -0.540680
C2    C     C_R   0.345068 0.617171 0.385012 0.687808
O6    O     O_R   0.505720 0.583920 0.586700 -0.540175
O7    O     O_3   0.339190 0.441320 0.500000 -0.370210
V1    V     V_3+5 0.064350 0.510890 0.500000 1.397303
O8    O     O_R   0.675920 0.405050 0.413920 -0.543934
C3    C     C_R   0.844979 0.382790 0.384994 0.684714
O9    O     O_R   0.675960 0.405070 0.586070 -0.543318
C4    C     C_R   0.844731 0.382981 0.614865 0.697577
V2    V     V_3+5 0.564340 0.489110 0.500000 1.393992
O10   O     O_3   0.839370 0.558680 0.500000 -0.369714
C5    C     C_R   0.006854 0.317653 0.741718 0.102561
C6    C     C_R   0.852659 0.317512 0.685491 -0.112693
C7    C     C_R   0.701346 0.255140 0.700730 -0.176989
H1    H     H_    0.579212 0.252475 0.659209 0.132892
C8    C     C_R   0.712606 0.190985 0.766216 -0.175804
H2    H     H_    0.598233 0.141103 0.773339 0.127104
C9    C     C_R   0.875837 0.187003 0.818251 -0.111602
C10   C     C_R   0.018486 0.253870 0.806261 0.103904
C11   C     C_3   0.230020 0.242072 0.794632 -0.408769
C12   C     C_3   0.217518 0.311984 0.724703 -0.397910
H3    H     H_    0.266784 0.171748 0.772819 0.166823
H4    H     H_    0.313771 0.266966 0.849031 0.177273
H5    H     H_    0.248069 0.282500 0.662352 0.171060
H6    H     H_    0.293188 0.377537 0.738830 0.169694
C13   C     C_R   0.046762 0.225053 0.217247 -0.157166
C14   C     C_R   0.035637 0.288603 0.282467 -0.152003
H7    H     H_    0.168293 0.317586 0.306380 0.118668
C15   C     C_R   0.856169 0.314446 0.316152 -0.046436
C16   C     C_R   0.688143 0.274953 0.282699 -0.157565
H8    H     H_    0.547480 0.293110 0.306829 0.116482
C17   C     C_R   0.699268 0.211401 0.217480 -0.151565
H9    H     H_    0.566612 0.182419 0.193566 0.118757
C18   C     C_R   0.878737 0.185556 0.183798 -0.046605
C19   C     C_R   0.188104 0.724314 0.717831 -0.157649
H10   H     H_    0.047421 0.705662 0.694092 0.116630
C20   C     C_R   0.199205 0.787881 0.783030 -0.152618
C21   C     C_R   0.378708 0.814322 0.816229 -0.046939
C22   C     C_R   0.546790 0.775400 0.782336 -0.158069
H11   H     H_    0.687474 0.794052 0.806075 0.116564
C23   C     C_R   0.535688 0.711833 0.717137 -0.152255
H12   H     H_    0.668383 0.683326 0.692845 0.118797
C24   C     C_R   0.356190 0.685423 0.683915 -0.047503
C25   C     C_R   0.188259 0.724557 0.282463 -0.156690
H13   H     H_    0.047601 0.706035 0.306368 0.116878
C26   C     C_R   0.199368 0.788112 0.217245 -0.151452
C27   C     C_R   0.378832 0.814384 0.183843 -0.046799
C28   C     C_R   0.546878 0.775331 0.217558 -0.156633
H14   H     H_    0.687530 0.793857 0.193651 0.116883
C29   C     C_R   0.535768 0.711772 0.282779 -0.151449
H15   H     H_    0.668411 0.683139 0.306928 0.118998
C30   C     C_R   0.356300 0.685503 0.316181 -0.047042
O11   O     O_R   0.229200 0.915950 0.913350 -0.540775
O12   O     O_R   0.559090 0.905000 0.086080 -0.543149
O13   O     O_R   0.729280 0.083880 0.086680 -0.540376
C31   C     C_R   0.390013 0.882724 0.115016 0.687553
O14   O     O_R   0.558920 0.904980 0.913920 -0.543887
O15   O     O_R   0.729110 0.083860 0.913300 -0.539544
C32   C     C_R   0.389871 0.882699 0.885024 0.683564
O16   O     O_R   0.229360 0.915970 0.086730 -0.540457
O17   O     O_3   0.395680 0.058580 0.000030 -0.368462
V3    V     V_3+5 0.670570 0.989070 0.999990 1.396758
O18   O     O_R   0.058820 0.094950 0.913870 -0.539802
C33   C     C_R   0.889761 0.116855 0.884949 0.697322
O19   O     O_R   0.058990 0.094970 0.086020 -0.543570
C34   C     C_R   0.889933 0.117203 0.114963 0.685970
V4    V     V_3+5 0.170560 0.010930 0.999930 1.398497
O20   O     O_3   0.895590 0.941310 0.999960 -0.370227
H16   H     H_    0.066511 0.816389 0.807321 0.118500
H17   H     H_    0.066718 0.816743 0.193100 0.118964
H18   H     H_    0.187424 0.206897 0.193117 0.116716

loop_
_geom_bond_atom_site_label_1
_geom_bond_atom_site_label_2
_ccdc_geom_bond_type
C29   H15   S    
C9    C33   S    
C7    H1    S    
C1    O6    A    
C28   H14   S    
C22   H11   S    
C11   H4    S    
O14   V3    S    
C5    C12   S    
C7    C8    A    
C26   H17   S    
C6    C7    A    
C27   C31   S    
O5    C3    A    
V2    O10   S    
C25   C30   A    
C15   C16   A    
C4    C6    S    
O14   C32   A    
O12   V3    S    
O8    V2    S    
O17   V4    S    
O15   C33   A    
O13   V3    S    
O18   C33   A    
C25   C26   A    
C9    C10   A    
O19   C34   A    
V3    O20   S    
O7    V1    S    
C19   C20   A    
O17   V3    S    
O9    C4    A    
C22   C23   A    
C21   C32   S    
C23   C24   A    
C28   C29   A    
C8    C9    A    
O11   C32   A    
O15   V3    S    
O12   C31   A    
C5    C10   A    
C20   H16   S    
C26   C27   A    
C10   C11   S    
O4    C2    A    
O13   C34   A    
C11   C12   S    
C16   H8    S    
C14   C15   A    
O2    C1    A    
C21   C22   A    
C17   H9    S    
C13   C14   A    
O18   V4    S    
C5    C6    A    
O3    C4    A    
O1    V2    S    
C19   H10   S    
C12   H6    S    
O6    V2    S    
O9    V2    S    
C20   C21   A    
C3    C15   S    
O2    V1    S    
C27   C28   A    
C1    C24   S    
C19   C24   A    
C23   H12   S    
C16   C17   A    
O1    C2    A    
V4    O20   S    
O5    V1    S    
O8    C3    A    
C11   H3    S    
O16   V4    S    
C14   H7    S    
C29   C30   A    
O7    V2    S    
O4    V1    S    
C17   C18   A    
O3    V1    S    
V1    O10   S    
O11   V4    S    
C13   H18   S    
C13   C18   A    
C31   O16   A    
C12   H5    S    
C25   H13   S    
C18   C34   S    
O19   V4    S    
C8    H2    S    
C2    C30   S    
