data_mof_unit_68171.cif
_audit_creation_date              2013-03-05T16:02:49-0500
_audit_creation_method            fapswitch 2.2
_symmetry_space_group_name_H-M    P1
_symmetry_Int_Tables_number       1
_space_group_crystal_system       triclinic
_cell_length_a                    7.210808
_cell_length_b                    14.888143
_cell_length_c                    16.240147
_cell_angle_alpha                 89.997852
_cell_angle_beta                  88.74326
_cell_angle_gamma                 90.000619
_cell_volume                      1743.05037533

loop_
_atom_site_label
_atom_site_type_symbol
_atom_site_description
_atom_site_fract_x
_atom_site_fract_y
_atom_site_fract_z
_atom_type_partial_charge
O1    O     O_R   0.611670 0.415650 0.164070 -0.543309
O2    O     O_R   0.388330 0.915650 0.835930 -0.543385
O3    O     O_R   0.940950 0.405490 0.337780 -0.542807
O4    O     O_R   0.059050 0.905490 0.662220 -0.542848
O5    O     O_R   0.111350 0.584350 0.338470 -0.569821
O6    O     O_R   0.888650 0.084350 0.661530 -0.569758
C1    C     C_R   0.771262 0.384246 0.366657 1.156663
C2    C     C_R   0.228741 0.884226 0.633366 1.156630
O7    O     O_R   0.941380 0.404630 0.164680 -0.531372
O8    O     O_R   0.058620 0.904630 0.835320 -0.531279
O9    O     O_R   0.111780 0.583470 0.164130 -0.552655
O10   O     O_R   0.888220 0.083470 0.835870 -0.552356
C3    C     C_R   0.775686 0.380122 0.137960 1.028982
C4    C     C_R   0.224305 0.880089 0.861998 1.028599
O11   O     O_R   0.611240 0.416530 0.338400 -0.590395
O12   O     O_R   0.388760 0.916530 0.661600 -0.590295
O13   O     O_3   0.778020 0.558680 0.251290 -0.258926
O14   O     O_3   0.221980 0.058680 0.748710 -0.258981
V1    V     V_3+5 0.052840 0.489110 0.251260 1.409695
V2    V     V_3+5 0.947160 0.989110 0.748740 1.409782
O15   O     O_R   0.441500 0.594510 0.164760 -0.563581
O16   O     O_R   0.558500 0.094510 0.835240 -0.563940
C5    C     C_R   0.275177 0.616910 0.136147 1.041654
C6    C     C_R   0.724811 0.116848 0.863897 1.042419
O17   O     O_R   0.441080 0.595370 0.337860 -0.539240
O18   O     O_R   0.558920 0.095370 0.662140 -0.539586
C7    C     C_R   0.272179 0.613578 0.369342 1.116703
C8    C     C_R   0.727822 0.113620 0.630695 1.116343
V3    V     V_3+5 0.552850 0.510890 0.251270 1.394033
V4    V     V_3+5 0.447150 0.010890 0.748730 1.393843
O19   O     O_3   0.277800 0.441320 0.251250 -0.243185
O20   O     O_3   0.722200 0.941320 0.748750 -0.243212
C9    C     C_3   0.075615 0.678139 0.490151 -0.018073
C10   C     C_3   0.924365 0.178151 0.509875 -0.018183
H1    H     H_    0.973951 0.690589 0.442718 0.220333
H2    H     H_    0.026074 0.190563 0.557287 0.220323
C11   C     C_3   0.052299 0.754714 0.557996 0.440389
C12   C     C_3   0.947716 0.254743 0.442044 0.440480
H3    H     H_    0.166791 0.901694 0.463464 0.241612
H4    H     H_    0.833237 0.401757 0.536590 0.241634
C13   C     C_3   0.284674 0.782667 0.404885 0.423739
C14   C     C_3   0.715517 0.282710 0.595190 0.423861
C15   C     C_3   0.405793 0.669170 0.510678 0.168064
C16   C     C_3   0.594185 0.169224 0.489395 0.168470
C17   C     C_3   0.262603 0.684428 0.441151 -0.547857
C18   C     C_3   0.737405 0.184472 0.558906 -0.548141
H5    H     H_    0.375910 0.606335 0.542845 0.230556
H6    H     H_    0.624068 0.106377 0.457251 0.230498
C19   C     C_3   0.239356 0.811007 0.564293 -0.509467
C20   C     C_3   0.760664 0.311039 0.435753 -0.509401
C21   C     C_3   0.278576 0.854542 0.476744 0.031203
C22   C     C_3   0.721494 0.354575 0.523316 0.031172
C23   C     C_3   0.403959 0.745368 0.576224 0.141903
C24   C     C_3   0.596057 0.245397 0.423829 0.141796
H7    H     H_    0.530774 0.784789 0.569030 0.225347
H8    H     H_    0.469227 0.284820 0.430975 0.225341
H9    H     H_    0.874116 0.611768 0.796830 0.244391
H10   H     H_    0.125220 0.111864 0.203477 0.244627
C25   C     C_R   0.357398 0.927781 0.038288 0.250781
C26   C     C_R   0.641894 0.427546 0.961524 0.250629
C27   C     C_R   0.467873 0.936294 0.109267 0.137738
C28   C     C_R   0.530951 0.435770 0.890658 0.138535
C29   C     C_R   0.568835 0.862404 0.136814 0.355180
C30   C     C_R   0.429724 0.361791 0.863534 0.355696
C31   C     C_R   0.517268 0.777387 0.111885 -0.167913
C32   C     C_R   0.481714 0.276885 0.888535 -0.167621
C33   C     C_R   0.363706 0.764332 0.062645 0.013288
C34   C     C_R   0.635789 0.264085 0.937504 0.013367
C35   C     C_R   0.312498 0.837693 0.010486 -0.002933
C36   C     C_R   0.687077 0.337553 0.989506 -0.003034
C37   C     C_R   0.276454 0.678301 0.059927 -0.112041
C38   C     C_R   0.723482 0.178187 0.940142 -0.111385
C39   C     C_R   0.184377 0.656230 0.985768 -0.007244
C40   C     C_R   0.815601 0.156172 0.014297 -0.007254
C41   C     C_R   0.133607 0.729144 0.931672 -0.053214
C42   C     C_R   0.866353 0.229142 0.068335 -0.053209
C43   C     C_R   0.218543 0.816683 0.936558 -0.094973
C44   C     C_R   0.781363 0.316680 0.063404 -0.094536
C45   C     C_R   0.145327 0.565241 0.958737 0.377420
C46   C     C_R   0.854509 0.065195 0.041437 0.377893
C47   C     C_R   0.048821 0.553491 0.885292 -0.187288
C48   C     C_R   0.950892 0.053516 0.114923 -0.187990
C49   C     C_R   0.969746 0.624748 0.845662 -0.022757
C50   C     C_R   0.029865 0.124805 0.154531 -0.022793
C51   C     C_R   0.993943 0.710972 0.874523 0.371341
C52   C     C_R   0.005895 0.210996 0.125546 0.371482
H11   H     H_    0.597929 0.721831 0.133668 0.225559
H12   H     H_    0.400992 0.221223 0.867021 0.225502
H13   H     H_    0.016605 0.487324 0.862481 0.222779
H14   H     H_    0.982973 0.987374 0.137842 0.222842
N1    N     N_R   0.450956 0.788308 0.350548 0.289841
O21   O     O_R   0.438633 0.760125 0.275420 -0.431993
O22   O     O_R   0.616241 0.801899 0.377913 -0.219944
N2    N     N_R   0.549342 0.288445 0.649596 0.289969
O23   O     O_R   0.562009 0.260764 0.724853 -0.431625
O24   O     O_R   0.383946 0.301595 0.622291 -0.220295
Br1   Br    Br    0.477494 0.941293 0.474430 -0.315938
Br2   Br    Br    0.522410 0.441233 0.525675 -0.316074
N3    N     N_R   0.303408 0.010180 0.996559 0.245480
O25   O     O_R   0.156143 0.016036 0.953285 -0.428997
O26   O     O_R   0.398796 0.083593 0.004122 -0.366265
N4    N     N_R   0.696046 0.510118 0.002914 0.245517
O27   O     O_R   0.600978 0.583557 0.994908 -0.365905
O28   O     O_R   0.842754 0.516040 0.046536 -0.428978
Br3   Br    Br    0.483151 0.047205 0.168391 -0.347558
Br4   Br    Br    0.516043 0.546233 0.830875 -0.345912
N5    N     N_R   0.727303 0.871078 0.188253 0.271009
O29   O     O_R   0.869193 0.818538 0.175333 -0.345249
O30   O     O_R   0.726806 0.924943 0.251334 -0.216690
N6    N     N_R   0.270917 0.370240 0.812303 0.270887
O31   O     O_R   0.270792 0.423975 0.749169 -0.216907
O32   O     O_R   0.128985 0.317856 0.825670 -0.346277
N7    N     N_R   0.192297 0.482837 0.001616 0.233577
O33   O     O_R   0.108565 0.408357 0.983043 -0.392710
O34   O     O_R   0.331163 0.476300 0.050108 -0.408543
N8    N     N_R   0.807429 0.982723 0.998678 0.233710
O35   O     O_R   0.890922 0.908224 0.017422 -0.392670
O36   O     O_R   0.668996 0.976211 0.949937 -0.408302
N9    N     N_R   0.043377 0.585674 0.521781 0.281093
O37   O     O_R   0.096989 0.559072 0.593922 -0.255676
O38   O     O_R   0.973610 0.526090 0.473299 -0.362787
N10   N     N_R   0.956514 0.085689 0.478223 0.281116
O39   O     O_R   0.902904 0.059129 0.406068 -0.255674
O40   O     O_R   0.026279 0.026076 0.526681 -0.362569
Br5   Br    Br    0.771436 0.781011 0.869347 -0.299204
Br6   Br    Br    0.228576 0.280917 0.130663 -0.299311
N11   N     N_R   0.981657 0.717940 0.637079 0.284819
O41   O     O_R   0.049189 0.741852 0.706906 -0.422447
O42   O     O_R   0.827656 0.672678 0.639121 -0.272394
N12   N     N_R   0.018372 0.217982 0.362960 0.284769
O43   O     O_R   0.950870 0.241923 0.293135 -0.422556
O44   O     O_R   0.172376 0.172724 0.360920 -0.272507
Br7   Br    Br    0.859501 0.837063 0.524042 -0.368066
Br8   Br    Br    0.140531 0.337093 0.475993 -0.368196
Br9   Br    Br    0.076728 0.811699 0.332546 -0.307471
Br10  Br    Br    0.923750 0.311656 0.667435 -0.306579
Br11  Br    Br    0.647098 0.642499 0.472809 -0.358181
Br12  Br    Br    0.352861 0.142479 0.527189 -0.358105
Br13  Br    Br    0.428320 0.698123 0.686680 -0.298174
Br14  Br    Br    0.571836 0.198046 0.313406 -0.297942

loop_
_geom_bond_atom_site_label_1
_geom_bond_atom_site_label_2
_geom_bond_distance
_ccdc_geom_bond_type
C21   Br1   1.929902 S    
H3    C21   1.093937 S    
C29   C31   1.382362 A    
O6    C8    1.345744 A    
C52   Br6   1.916955 S    
C9    C17   1.553362 S    
C35   C43   1.426191 A    
O4    C2    1.338614 A    
V1    O19   1.771327 S    
C8    C18   1.572606 S    
C20   C24   1.552910 S    
C40   C42   1.448622 A    
C12   N12   1.476474 S    
C26   C28   1.421215 A    
C42   C44   1.443140 A    
O3    C1    1.338632 A    
C32   H12   1.075444 S    
C36   C44   1.426492 A    
C32   C34   1.393497 A    
O12   V4    2.044352 S    
O13   V3    1.772710 S    
N8    O35   1.301296 A    
C14   Br10  1.973373 S    
O7    V1    2.062671 S    
C14   C18   1.583436 S    
C4    C43   1.535169 S    
C22   Br2   1.929886 S    
C27   C29   1.398072 A    
O7    C3    1.331058 A    
N6    O31   1.300491 A    
C28   C30   1.397883 A    
O13   V1    2.236036 S    
O5    C7    1.345793 A    
C51   Br5   1.916930 S    
C15   C23   1.555543 S    
C24   Br14  1.938352 S    
C46   N8    1.454459 S    
O8    V2    2.062618 S    
C31   C33   1.393630 A    
C20   C22   1.582574 S    
N5    O29   1.301276 A    
H9    C49   1.079694 S    
O3    V1    2.031074 S    
O14   V4    1.772724 S    
C27   Br3   1.914551 S    
O14   V2    2.236015 S    
N2    O24   1.296363 A    
C47   H13   1.079559 S    
C7    C17   1.572887 S    
N9    O38   1.295134 A    
C2    O12   1.340218 A    
C40   C46   1.453615 A    
N5    O30   1.300974 A    
N2    O23   1.294901 A    
C26   N4    1.458485 S    
C29   N5    1.436012 S    
C47   C49   1.371455 A    
C16   C18   1.563195 S    
O11   V3    2.044285 S    
C23   H7    1.090686 S    
O17   V3    2.039467 S    
C24   H8    1.090738 S    
C25   C27   1.421157 A    
C12   C20   1.593183 S    
C5    C37   1.538542 S    
C46   C48   1.404953 A    
O8    C4    1.330892 A    
N1    O21   1.295135 A    
C37   C39   1.426316 A    
C10   C12   1.591833 S    
C1    O11   1.340259 A    
C19   C21   1.582365 S    
H4    C22   1.093968 S    
O15   V3    2.053725 S    
C9    C11   1.591839 S    
C33   C35   1.435425 A    
C30   C32   1.382011 A    
N12   O44   1.298745 A    
N11   O42   1.298737 A    
H10   C50   1.079687 S    
N1    O22   1.296984 A    
C11   C19   1.593192 S    
C30   N6    1.435669 S    
N3    O25   1.289131 A    
C26   C36   1.454035 A    
C34   C38   1.427715 A    
O9    V1    2.032221 S    
O10   V2    2.032300 S    
O1    V3    2.041994 S    
C39   C45   1.453460 A    
C31   H11   1.075448 S    
N4    O28   1.289040 A    
C15   C17   1.563251 S    
C25   C35   1.453974 A    
C10   C18   1.553476 S    
C38   C40   1.426181 A    
C13   N1    1.475463 S    
C9    N9    1.485834 S    
C48   C50   1.371364 A    
O15   C5    1.337893 A    
O16   C6    1.337853 A    
O1    C3    1.355128 A    
C39   C41   1.448549 A    
N10   O40   1.295158 A    
N11   O41   1.293852 A    
C42   C52   1.410559 A    
C13   Br9   1.972967 S    
C6    C38   1.538464 S    
C45   C47   1.404968 A    
N7    O33   1.301188 A    
V2    O20   1.771313 S    
C3    C44   1.535501 S    
C16   Br12  1.875230 S    
O16   V4    2.053780 S    
C49   C51   1.379011 A    
C14   N2    1.475590 S    
C1    C20   1.564957 S    
C50   C52   1.379009 A    
N9    O37   1.303363 A    
O18   V4    2.039390 S    
O5    V1    2.054469 S    
C13   C21   1.583272 S    
O17   C7    1.338251 A    
O6    V2    2.054402 S    
O10   C6    1.348714 A    
O18   C8    1.338149 A    
C48   H14   1.079583 S    
O2    V4    2.041916 S    
C45   N7    1.454323 S    
N12   O43   1.293838 A    
V3    O19   2.237500 S    
C41   C51   1.410606 A    
V4    O20   2.237522 S    
C19   C23   1.552883 S    
C25   N3    1.458529 S    
O9    C5    1.348736 A    
C9    H1    1.090840 S    
C10   H2    1.090730 S    
N8    O36   1.291148 A    
C15   Br11  1.875261 S    
C33   C37   1.428124 A    
C12   Br8   1.942640 S    
N4    O27   1.298544 A    
O2    C4    1.355152 A    
C11   Br7   1.942563 S    
N6    O32   1.301166 A    
C23   Br13  1.938344 S    
O4    V2    2.031149 S    
C16   C24   1.555434 S    
C10   N10   1.485862 S    
C28   Br4   1.913974 S    
C41   C43   1.442947 A    
C34   C36   1.435331 A    
C13   C17   1.583421 S    
N7    O34   1.291093 A    
N10   O39   1.303383 A    
C15   H5    1.090646 S    
C2    C19   1.564870 S    
N3    O26   1.298656 A    
C16   H6    1.090658 S    
C14   C22   1.583272 S    
C11   N11   1.476475 S    
