data_mof_unit_66223.cif
_audit_creation_date              2013-03-05T15:41:44-0500
_audit_creation_method            fapswitch 2.2
_symmetry_space_group_name_H-M    P1
_symmetry_Int_Tables_number       1
_space_group_crystal_system       triclinic
_cell_length_a                    46.876635
_cell_length_b                    46.893833
_cell_length_c                    46.857863
_cell_angle_alpha                 89.95679
_cell_angle_beta                  89.953474
_cell_angle_gamma                 90.017406
_cell_volume                      103004.06224

loop_
_atom_site_label
_atom_site_type_symbol
_atom_site_description
_atom_site_fract_x
_atom_site_fract_y
_atom_site_fract_z
_atom_type_partial_charge
O1    O     O_R   0.253860 0.712350 0.069100 -0.556024
O2    O     O_R   0.930900 0.287650 0.253860 -0.555843
O3    O     O_R   0.746140 0.712350 0.930900 -0.555952
O4    O     O_R   0.069100 0.287650 0.746140 -0.557326
O5    O     O_R   0.253860 0.287650 0.930900 -0.556427
O6    O     O_R   0.930900 0.712350 0.746140 -0.556073
O7    O     O_R   0.746140 0.287650 0.069100 -0.559596
O8    O     O_R   0.069100 0.712350 0.253860 -0.555801
O9    O     O_R   0.287650 0.069100 0.746140 -0.558300
O10   O     O_R   0.712350 0.253860 0.069100 -0.554202
O11   O     O_R   0.287650 0.930900 0.253860 -0.557476
O12   O     O_R   0.712350 0.746140 0.930900 -0.558859
O13   O     O_R   0.712350 0.930900 0.746140 -0.559348
O14   O     O_R   0.287650 0.746140 0.069100 -0.559892
O15   O     O_R   0.712350 0.069100 0.253860 -0.555454
O16   O     O_R   0.287650 0.253860 0.930900 -0.561940
O17   O     O_R   0.930900 0.746140 0.712350 -0.559368
O18   O     O_R   0.746140 0.069100 0.287650 -0.561052
O19   O     O_R   0.069100 0.253860 0.712350 -0.557729
O20   O     O_R   0.253860 0.930900 0.287650 -0.560740
O21   O     O_R   0.069100 0.746140 0.287650 -0.557536
O22   O     O_R   0.253860 0.069100 0.712350 -0.557599
O23   O     O_R   0.930900 0.253860 0.287650 -0.562676
O24   O     O_R   0.746140 0.930900 0.712350 -0.559415
O25   O     O_R   0.753860 0.212350 0.069100 -0.558249
O26   O     O_R   0.930900 0.787650 0.753860 -0.559478
O27   O     O_R   0.246140 0.212350 0.930900 -0.559827
O28   O     O_R   0.069100 0.787650 0.246140 -0.558557
O29   O     O_R   0.753860 0.787650 0.930900 -0.559135
O30   O     O_R   0.930900 0.212350 0.246140 -0.559497
O31   O     O_R   0.246140 0.787650 0.069100 -0.556689
O32   O     O_R   0.069100 0.212350 0.753860 -0.556164
O33   O     O_R   0.787650 0.069100 0.246140 -0.551629
O34   O     O_R   0.212350 0.753860 0.069100 -0.559240
O35   O     O_R   0.787650 0.930900 0.753860 -0.559365
O36   O     O_R   0.212350 0.246140 0.930900 -0.561712
O37   O     O_R   0.212350 0.930900 0.246140 -0.559050
O38   O     O_R   0.787650 0.246140 0.069100 -0.554961
O39   O     O_R   0.212350 0.069100 0.753860 -0.556703
O40   O     O_R   0.787650 0.753860 0.930900 -0.558713
O41   O     O_R   0.930900 0.246140 0.212350 -0.558267
O42   O     O_R   0.246140 0.069100 0.787650 -0.558731
O43   O     O_R   0.069100 0.753860 0.212350 -0.555501
O44   O     O_R   0.753860 0.930900 0.787650 -0.559371
O45   O     O_R   0.069100 0.246140 0.787650 -0.558336
O46   O     O_R   0.753860 0.069100 0.212350 -0.562123
O47   O     O_R   0.930900 0.753860 0.787650 -0.559908
O48   O     O_R   0.246140 0.930900 0.212350 -0.561003
O49   O     O_R   0.753860 0.712350 0.569100 -0.559496
O50   O     O_R   0.430900 0.287650 0.753860 -0.562190
O51   O     O_R   0.246140 0.712350 0.430900 -0.558394
O52   O     O_R   0.569100 0.287650 0.246140 -0.560302
O53   O     O_R   0.753860 0.287650 0.430900 -0.557973
O54   O     O_R   0.430900 0.712350 0.246140 -0.561194
O55   O     O_R   0.246140 0.287650 0.569100 -0.554469
O56   O     O_R   0.569100 0.712350 0.753860 -0.557257
O57   O     O_R   0.287650 0.569100 0.246140 -0.557411
O58   O     O_R   0.712350 0.753860 0.569100 -0.562655
O59   O     O_R   0.287650 0.430900 0.753860 -0.560936
O60   O     O_R   0.712350 0.246140 0.430900 -0.559959
O61   O     O_R   0.712350 0.430900 0.246140 -0.561007
O62   O     O_R   0.287650 0.246140 0.569100 -0.556824
O63   O     O_R   0.712350 0.569100 0.753860 -0.557584
O64   O     O_R   0.287650 0.753860 0.430900 -0.557629
O65   O     O_R   0.430900 0.246140 0.712350 -0.557940
O66   O     O_R   0.246140 0.569100 0.287650 -0.559406
O67   O     O_R   0.569100 0.753860 0.712350 -0.557059
O68   O     O_R   0.753860 0.430900 0.287650 -0.558488
O69   O     O_R   0.569100 0.246140 0.287650 -0.555700
O70   O     O_R   0.753860 0.569100 0.712350 -0.557649
O71   O     O_R   0.430900 0.753860 0.287650 -0.560443
O72   O     O_R   0.246140 0.430900 0.712350 -0.557095
O73   O     O_R   0.253860 0.212350 0.569100 -0.559470
O74   O     O_R   0.430900 0.787650 0.253860 -0.557568
O75   O     O_R   0.746140 0.212350 0.430900 -0.557566
O76   O     O_R   0.569100 0.787650 0.746140 -0.556301
O77   O     O_R   0.253860 0.787650 0.430900 -0.558468
O78   O     O_R   0.430900 0.212350 0.746140 -0.559454
O79   O     O_R   0.746140 0.787650 0.569100 -0.554212
O80   O     O_R   0.569100 0.212350 0.253860 -0.561858
O81   O     O_R   0.787650 0.569100 0.746140 -0.555024
O82   O     O_R   0.212350 0.253860 0.569100 -0.562717
O83   O     O_R   0.787650 0.430900 0.253860 -0.558600
O84   O     O_R   0.212350 0.746140 0.430900 -0.558491
O85   O     O_R   0.212350 0.430900 0.746140 -0.561329
O86   O     O_R   0.787650 0.746140 0.569100 -0.557733
O87   O     O_R   0.212350 0.569100 0.253860 -0.557928
O88   O     O_R   0.787650 0.253860 0.430900 -0.559820
O89   O     O_R   0.430900 0.746140 0.212350 -0.557034
O90   O     O_R   0.746140 0.569100 0.787650 -0.555316
O91   O     O_R   0.569100 0.253860 0.212350 -0.555885
O92   O     O_R   0.253860 0.430900 0.787650 -0.555936
O93   O     O_R   0.569100 0.746140 0.787650 -0.556218
O94   O     O_R   0.253860 0.569100 0.212350 -0.558902
O95   O     O_R   0.430900 0.253860 0.787650 -0.555518
O96   O     O_R   0.746140 0.430900 0.212350 -0.559824
O97   O     O_R   0.212310 0.753880 0.010160 -0.588824
O98   O     O_R   0.989840 0.246120 0.212310 -0.586404
O99   O     O_R   0.787690 0.753880 0.989840 -0.590762
O100  O     O_R   0.010160 0.246120 0.787690 -0.589099
O101  O     O_R   0.212310 0.246120 0.989840 -0.587924
O102  O     O_R   0.989840 0.753880 0.787690 -0.590315
O103  O     O_R   0.787690 0.246120 0.010160 -0.589408
O104  O     O_R   0.010160 0.753880 0.212310 -0.588206
O105  O     O_R   0.246120 0.010160 0.787690 -0.589682
O106  O     O_R   0.753880 0.212310 0.010160 -0.588869
O107  O     O_R   0.246120 0.989840 0.212310 -0.587580
O108  O     O_R   0.753880 0.787690 0.989840 -0.589737
O109  O     O_R   0.753880 0.989840 0.787690 -0.588257
O110  O     O_R   0.246120 0.787690 0.010160 -0.587915
O111  O     O_R   0.753880 0.010160 0.212310 -0.588850
O112  O     O_R   0.246120 0.212310 0.989840 -0.586312
O113  O     O_R   0.989840 0.787690 0.753880 -0.589928
O114  O     O_R   0.787690 0.010160 0.246120 -0.587401
O115  O     O_R   0.010160 0.212310 0.753880 -0.587880
O116  O     O_R   0.212310 0.989840 0.246120 -0.586733
O117  O     O_R   0.010160 0.787690 0.246120 -0.590589
O118  O     O_R   0.212310 0.010160 0.753880 -0.587003
O119  O     O_R   0.989840 0.212310 0.246120 -0.587480
O120  O     O_R   0.787690 0.989840 0.753880 -0.587893
O121  O     O_R   0.712310 0.253880 0.010160 -0.590209
O122  O     O_R   0.989840 0.746120 0.712310 -0.586395
O123  O     O_R   0.287690 0.253880 0.989840 -0.587659
O124  O     O_R   0.010160 0.746120 0.287690 -0.589109
O125  O     O_R   0.712310 0.746120 0.989840 -0.587716
O126  O     O_R   0.989840 0.253880 0.287690 -0.586679
O127  O     O_R   0.287690 0.746120 0.010160 -0.590243
O128  O     O_R   0.010160 0.253880 0.712310 -0.588168
O129  O     O_R   0.746120 0.010160 0.287690 -0.590375
O130  O     O_R   0.253880 0.712310 0.010160 -0.588668
O131  O     O_R   0.746120 0.989840 0.712310 -0.589173
O132  O     O_R   0.253880 0.287690 0.989840 -0.586254
O133  O     O_R   0.253880 0.989840 0.287690 -0.588555
O134  O     O_R   0.746120 0.287690 0.010160 -0.588728
O135  O     O_R   0.253880 0.010160 0.712310 -0.589981
O136  O     O_R   0.746120 0.712310 0.989840 -0.584477
O137  O     O_R   0.989840 0.287690 0.253880 -0.588489
O138  O     O_R   0.287690 0.010160 0.746120 -0.587965
O139  O     O_R   0.010160 0.712310 0.253880 -0.588733
O140  O     O_R   0.712310 0.989840 0.746120 -0.589485
O141  O     O_R   0.010160 0.287690 0.746120 -0.590197
O142  O     O_R   0.712310 0.010160 0.253880 -0.587595
O143  O     O_R   0.989840 0.712310 0.746120 -0.585646
O144  O     O_R   0.287690 0.989840 0.253880 -0.586780
O145  O     O_R   0.712310 0.753880 0.510160 -0.588614
O146  O     O_R   0.489840 0.246120 0.712310 -0.586755
O147  O     O_R   0.287690 0.753880 0.489840 -0.589247
O148  O     O_R   0.510160 0.246120 0.287690 -0.587861
O149  O     O_R   0.712310 0.246120 0.489840 -0.587177
O150  O     O_R   0.489840 0.753880 0.287690 -0.586421
O151  O     O_R   0.287690 0.246120 0.510160 -0.589325
O152  O     O_R   0.510160 0.753880 0.712310 -0.588538
O153  O     O_R   0.246120 0.510160 0.287690 -0.590027
O154  O     O_R   0.753880 0.712310 0.510160 -0.586044
O155  O     O_R   0.246120 0.489840 0.712310 -0.588704
O156  O     O_R   0.753880 0.287690 0.489840 -0.586855
O157  O     O_R   0.753880 0.489840 0.287690 -0.587477
O158  O     O_R   0.246120 0.287690 0.510160 -0.587882
O159  O     O_R   0.753880 0.510160 0.712310 -0.590644
O160  O     O_R   0.246120 0.712310 0.489840 -0.586301
O161  O     O_R   0.489840 0.287690 0.753880 -0.588799
O162  O     O_R   0.287690 0.510160 0.246120 -0.588223
O163  O     O_R   0.510160 0.712310 0.753880 -0.589846
O164  O     O_R   0.712310 0.489840 0.246120 -0.584902
O165  O     O_R   0.510160 0.287690 0.246120 -0.589392
O166  O     O_R   0.712310 0.510160 0.753880 -0.589284
O167  O     O_R   0.489840 0.712310 0.246120 -0.586771
O168  O     O_R   0.287690 0.489840 0.753880 -0.589897
O169  O     O_R   0.212310 0.253880 0.510160 -0.588983
O170  O     O_R   0.489840 0.746120 0.212310 -0.585650
O171  O     O_R   0.787690 0.253880 0.489840 -0.590865
O172  O     O_R   0.510160 0.746120 0.787690 -0.588824
O173  O     O_R   0.212310 0.746120 0.489840 -0.587386
O174  O     O_R   0.489840 0.253880 0.787690 -0.589882
O175  O     O_R   0.787690 0.746120 0.510160 -0.589151
O176  O     O_R   0.510160 0.253880 0.212310 -0.586617
O177  O     O_R   0.746120 0.510160 0.787690 -0.589681
O178  O     O_R   0.253880 0.212310 0.510160 -0.586312
O179  O     O_R   0.746120 0.489840 0.212310 -0.587640
O180  O     O_R   0.253880 0.787690 0.489840 -0.588961
O181  O     O_R   0.253880 0.489840 0.787690 -0.588041
O182  O     O_R   0.746120 0.787690 0.510160 -0.587667
O183  O     O_R   0.253880 0.510160 0.212310 -0.588196
O184  O     O_R   0.746120 0.212310 0.489840 -0.587334
O185  O     O_R   0.489840 0.787690 0.253880 -0.589925
O186  O     O_R   0.787690 0.510160 0.746120 -0.590135
O187  O     O_R   0.510160 0.212310 0.253880 -0.587944
O188  O     O_R   0.212310 0.489840 0.746120 -0.586573
O189  O     O_R   0.510160 0.787690 0.746120 -0.590416
O190  O     O_R   0.212310 0.510160 0.253880 -0.586551
O191  O     O_R   0.489840 0.212310 0.746120 -0.588974
O192  O     O_R   0.787690 0.489840 0.253880 -0.586633
H1    H     H_    0.478733 0.170561 0.265351 0.165635
H2    H     H_    0.738840 0.825808 0.473844 0.160243
H3    H     H_    0.528184 0.176451 0.741470 0.159322
H4    H     H_    0.262470 0.826654 0.525259 0.158786
H5    H     H_    0.475946 0.827270 0.737648 0.161871
H6    H     H_    0.744983 0.182424 0.534122 0.155049
H7    H     H_    0.524473 0.827236 0.262848 0.162278
H8    H     H_    0.257744 0.178128 0.469776 0.163261
H9    H     H_    0.822262 0.257406 0.529371 0.158298
H10   H     H_    0.174725 0.473318 0.260612 0.161909
H11   H     H_    0.827519 0.736729 0.475905 0.161545
H12   H     H_    0.170167 0.520905 0.733490 0.158893
H13   H     H_    0.169777 0.733150 0.520807 0.157969
H14   H     H_    0.825321 0.526624 0.260601 0.162230
H15   H     H_    0.171791 0.263852 0.476997 0.162928
H16   H     H_    0.828062 0.476428 0.735487 0.159655
H17   H     H_    0.740375 0.528552 0.175813 0.171821
H18   H     H_    0.526072 0.261181 0.825793 0.159843
H19   H     H_    0.263426 0.476327 0.172283 0.162447
H20   H     H_    0.472712 0.739681 0.824745 0.162517
H21   H     H_    0.262522 0.524212 0.827216 0.161611
H22   H     H_    0.471514 0.258991 0.176454 0.163371
H23   H     H_    0.738601 0.473860 0.826022 0.160775
H24   H     H_    0.530047 0.741590 0.177340 0.160852
H25   H     H_    0.977717 0.671287 0.264583 0.164254
H26   H     H_    0.738527 0.325969 0.973767 0.159452
H27   H     H_    0.033793 0.682775 0.746107 0.158960
H28   H     H_    0.260507 0.325095 0.026779 0.161582
H29   H     H_    0.973802 0.325538 0.739524 0.161728
H30   H     H_    0.742491 0.678424 0.030715 0.161900
H31   H     H_    0.022679 0.328503 0.264104 0.164502
H32   H     H_    0.262342 0.673343 0.974951 0.159817
H33   H     H_    0.327343 0.262849 0.024143 0.163925
H34   H     H_    0.676811 0.971034 0.258890 0.161400
H35   H     H_    0.326620 0.738268 0.975126 0.162365
H36   H     H_    0.674199 0.026066 0.738675 0.160927
H37   H     H_    0.669035 0.731719 0.019539 0.158653
H38   H     H_    0.326083 0.025801 0.261346 0.161834
H39   H     H_    0.672510 0.262845 0.976250 0.161325
H40   H     H_    0.326790 0.974870 0.737393 0.159608
H41   H     H_    0.741013 0.028502 0.676256 0.158378
H42   H     H_    0.026269 0.261026 0.325681 0.160705
H43   H     H_    0.262325 0.975904 0.672718 0.161904
H44   H     H_    0.972150 0.740282 0.324219 0.160447
H45   H     H_    0.261425 0.025901 0.326010 0.162403
H46   H     H_    0.977354 0.264951 0.671263 0.158179
H47   H     H_    0.735631 0.977306 0.328528 0.161963
H48   H     H_    0.020643 0.730893 0.669500 0.158299
H49   H     H_    0.981828 0.168399 0.769700 0.155972
H50   H     H_    0.237966 0.826229 0.974199 0.159868
H51   H     H_    0.024299 0.172739 0.237223 0.163738
H52   H     H_    0.761640 0.826380 0.025470 0.159351
H53   H     H_    0.971603 0.823626 0.241095 0.160085
H54   H     H_    0.239506 0.174928 0.026897 0.160690
H55   H     H_    0.024449 0.826983 0.762027 0.161873
H56   H     H_    0.759941 0.175422 0.972489 0.160124
H57   H     H_    0.826471 0.761592 0.025257 0.163818
H58   H     H_    0.173949 0.974082 0.761827 0.160342
H59   H     H_    0.827049 0.237394 0.975167 0.159731
H60   H     H_    0.177304 0.029416 0.241628 0.162477
H61   H     H_    0.170940 0.235119 0.021917 0.164815
H62   H     H_    0.825353 0.026818 0.760416 0.160713
H63   H     H_    0.172781 0.762264 0.975953 0.162283
H64   H     H_    0.822868 0.970772 0.241637 0.163516
H65   H     H_    0.236113 0.023282 0.171871 0.162546
H66   H     H_    0.025252 0.762351 0.826624 0.159228
H67   H     H_    0.761637 0.974507 0.173711 0.160705
H68   H     H_    0.967879 0.243487 0.819868 0.156907
H69   H     H_    0.761192 0.026818 0.825545 0.159668
H70   H     H_    0.975003 0.762240 0.173183 0.161420
H71   H     H_    0.237911 0.975530 0.826992 0.161533
H72   H     H_    0.026457 0.239141 0.174410 0.161557
H73   H     H_    0.473237 0.674941 0.760294 0.160602
H74   H     H_    0.240297 0.324128 0.471921 0.161072
H75   H     H_    0.522099 0.670934 0.234735 0.162623
H76   H     H_    0.766948 0.329622 0.521762 0.157952
H77   H     H_    0.474496 0.326280 0.238182 0.161284
H78   H     H_    0.242671 0.679062 0.531470 0.157725
H79   H     H_    0.523916 0.327542 0.762946 0.163274
H80   H     H_    0.758122 0.677503 0.470528 0.163372
H81   H     H_    0.327141 0.762216 0.524275 0.162116
H82   H     H_    0.676335 0.471552 0.759200 0.161400
H83   H     H_    0.327615 0.236687 0.476037 0.160977
H84   H     H_    0.669133 0.519495 0.233108 0.159269
H85   H     H_    0.669705 0.232427 0.520535 0.158089
H86   H     H_    0.323647 0.528503 0.759356 0.160457
H87   H     H_    0.671338 0.764291 0.477591 0.165235
H88   H     H_    0.322960 0.470948 0.241399 0.161755
H89   H     H_    0.242545 0.530724 0.678404 0.156764
H90   H     H_    0.527163 0.760111 0.324858 0.162350
H91   H     H_    0.759026 0.471947 0.675888 0.158864
H92   H     H_    0.473091 0.239406 0.325144 0.160084
H93   H     H_    0.762355 0.524742 0.326907 0.163659
H94   H     H_    0.474525 0.762360 0.673463 0.159523
H95   H     H_    0.237218 0.475544 0.327235 0.162145
H96   H     H_    0.523348 0.235003 0.671428 0.159273
C1    C     C_R   0.426127 0.683951 0.815651 0.052132
C2    C     C_R   0.180705 0.319093 0.429673 0.049149
C3    C     C_R   0.571567 0.681311 0.181473 0.046960
C4    C     C_R   0.819221 0.316994 0.571541 0.063339
C5    C     C_R   0.426340 0.316059 0.183977 0.049006
C6    C     C_R   0.181305 0.681384 0.571318 0.063177
C7    C     C_R   0.569422 0.319881 0.819814 0.049014
C8    C     C_R   0.816746 0.683285 0.427022 0.048086
C9    C     C_R   0.320879 0.819873 0.568982 0.054356
C10   C     C_R   0.683213 0.426835 0.816824 0.058328
C11   C     C_R   0.316686 0.183747 0.426633 0.047759
C12   C     C_R   0.677152 0.565605 0.176569 0.038794
C13   C     C_R   0.683554 0.184179 0.573834 0.063811
C14   C     C_R   0.316490 0.572722 0.817281 0.051969
C15   C     C_R   0.678996 0.821099 0.431972 0.048310
C16   C     C_R   0.316872 0.427418 0.182887 0.049413
C17   C     C_R   0.181233 0.570437 0.680666 0.064932
C18   C     C_R   0.570775 0.818629 0.318975 0.048079
C19   C     C_R   0.818604 0.429589 0.679898 0.072856
C20   C     C_R   0.431983 0.178996 0.321129 0.048518
C21   C     C_R   0.818560 0.570947 0.318452 0.049854
C22   C     C_R   0.431009 0.820924 0.680159 0.054765
C23   C     C_R   0.180720 0.429625 0.319096 0.049645
C24   C     C_R   0.572174 0.181771 0.683233 0.081633
C25   C     C_R   0.930397 0.180755 0.820353 0.066326
C26   C     C_R   0.179635 0.819249 0.930439 0.054537
C27   C     C_R   0.070044 0.180649 0.180490 0.049064
C28   C     C_R   0.818399 0.818210 0.071041 0.051225
C29   C     C_R   0.926688 0.816309 0.183649 0.054284
C30   C     C_R   0.179331 0.179139 0.068409 0.048277
C31   C     C_R   0.069374 0.820402 0.819477 0.054028
C32   C     C_R   0.818286 0.181556 0.928610 0.054094
C33   C     C_R   0.180967 0.930009 0.819973 0.054105
C34   C     C_R   0.182282 0.071880 0.182143 0.047302
C35   C     C_R   0.817392 0.073023 0.816640 0.069065
C36   C     C_R   0.814891 0.925404 0.184677 0.049044
C37   C     C_R   0.930084 0.680590 0.319469 0.048803
C38   C     C_R   0.680859 0.318455 0.929319 0.055997
C39   C     C_R   0.073721 0.682738 0.684768 0.068742
C40   C     C_R   0.318530 0.318492 0.070879 0.050194
C41   C     C_R   0.931634 0.321549 0.679835 0.056877
C42   C     C_R   0.679235 0.677292 0.067591 0.069868
C43   C     C_R   0.068375 0.320721 0.320811 0.049021
C44   C     C_R   0.319511 0.681241 0.929828 0.055058
C45   C     C_R   0.681324 0.929115 0.318800 0.047732
C46   C     C_R   0.684249 0.073968 0.684198 0.055716
C47   C     C_R   0.318570 0.071114 0.318358 0.050467
C48   C     C_R   0.320040 0.931260 0.678905 0.054467
Cu1   Cu    Cu3+1 0.230070 0.730070 0.039640 1.040793
Cu2   Cu    Cu3+1 0.960360 0.269930 0.230070 1.043943
Cu3   Cu    Cu3+1 0.769930 0.730070 0.960360 1.044880
Cu4   Cu    Cu3+1 0.039640 0.269930 0.769930 1.038591
Cu5   Cu    Cu3+1 0.230070 0.269930 0.960360 1.041247
Cu6   Cu    Cu3+1 0.960360 0.730070 0.769930 1.041881
Cu7   Cu    Cu3+1 0.769930 0.269930 0.039640 1.040528
Cu8   Cu    Cu3+1 0.039640 0.730070 0.230070 1.044531
Cu9   Cu    Cu3+1 0.269930 0.039640 0.769930 1.040570
Cu10  Cu    Cu3+1 0.730070 0.230070 0.039640 1.040987
Cu11  Cu    Cu3+1 0.269930 0.960360 0.230070 1.042076
Cu12  Cu    Cu3+1 0.730070 0.769930 0.960360 1.038620
Cu13  Cu    Cu3+1 0.730070 0.960360 0.769930 1.037850
Cu14  Cu    Cu3+1 0.269930 0.769930 0.039640 1.041329
Cu15  Cu    Cu3+1 0.730070 0.039640 0.230070 1.040729
Cu16  Cu    Cu3+1 0.269930 0.230070 0.960360 1.039987
Cu17  Cu    Cu3+1 0.960360 0.769930 0.730070 1.039034
Cu18  Cu    Cu3+1 0.769930 0.039640 0.269930 1.042730
Cu19  Cu    Cu3+1 0.039640 0.230070 0.730070 1.039543
Cu20  Cu    Cu3+1 0.230070 0.960360 0.269930 1.041468
Cu21  Cu    Cu3+1 0.039640 0.769930 0.269930 1.040741
Cu22  Cu    Cu3+1 0.230070 0.039640 0.730070 1.041566
Cu23  Cu    Cu3+1 0.960360 0.230070 0.269930 1.040613
Cu24  Cu    Cu3+1 0.769930 0.960360 0.730070 1.037591
Cu25  Cu    Cu3+1 0.730070 0.730070 0.539640 1.041552
Cu26  Cu    Cu3+1 0.460360 0.269930 0.730070 1.038401
Cu27  Cu    Cu3+1 0.269930 0.730070 0.460360 1.040235
Cu28  Cu    Cu3+1 0.539640 0.269930 0.269930 1.041115
Cu29  Cu    Cu3+1 0.730070 0.269930 0.460360 1.037189
Cu30  Cu    Cu3+1 0.460360 0.730070 0.269930 1.040768
Cu31  Cu    Cu3+1 0.269930 0.269930 0.539640 1.043548
Cu32  Cu    Cu3+1 0.539640 0.730070 0.730070 1.041699
Cu33  Cu    Cu3+1 0.269930 0.539640 0.269930 1.040996
Cu34  Cu    Cu3+1 0.269930 0.460360 0.730070 1.038780
Cu35  Cu    Cu3+1 0.730070 0.460360 0.269930 1.041489
Cu36  Cu    Cu3+1 0.730070 0.539640 0.730070 1.039730
Cu37  Cu    Cu3+1 0.230070 0.230070 0.539640 1.040395
Cu38  Cu    Cu3+1 0.460360 0.769930 0.230070 1.042946
Cu39  Cu    Cu3+1 0.769930 0.230070 0.460360 1.036873
Cu40  Cu    Cu3+1 0.539640 0.769930 0.769930 1.042848
Cu41  Cu    Cu3+1 0.230070 0.769930 0.460360 1.038533
Cu42  Cu    Cu3+1 0.460360 0.230070 0.769930 1.038647
Cu43  Cu    Cu3+1 0.769930 0.769930 0.539640 1.042911
Cu44  Cu    Cu3+1 0.539640 0.230070 0.230070 1.042490
Cu45  Cu    Cu3+1 0.769930 0.539640 0.769930 1.042355
Cu46  Cu    Cu3+1 0.769930 0.460360 0.230070 1.044339
Cu47  Cu    Cu3+1 0.230070 0.460360 0.769930 1.040795
Cu48  Cu    Cu3+1 0.230070 0.539640 0.230070 1.042249
C49   C     C_R   0.222537 0.777466 0.078797 0.810811
C50   C     C_R   0.920941 0.222767 0.222751 0.806965
C51   C     C_R   0.777564 0.777570 0.921325 0.806210
C52   C     C_R   0.078621 0.222423 0.777613 0.810280
C53   C     C_R   0.222670 0.222677 0.920982 0.804762
C54   C     C_R   0.921172 0.777431 0.777445 0.805813
C55   C     C_R   0.777567 0.222372 0.078652 0.809643
C56   C     C_R   0.078644 0.777597 0.222418 0.810540
C57   C     C_R   0.222612 0.078875 0.777411 0.810757
C58   C     C_R   0.222688 0.920956 0.222696 0.806538
C59   C     C_R   0.777304 0.920980 0.777324 0.811148
C60   C     C_R   0.777356 0.078906 0.222562 0.810395
C61   C     C_R   0.722478 0.277585 0.078650 0.810076
C62   C     C_R   0.920872 0.722806 0.722794 0.813058
C63   C     C_R   0.277343 0.277292 0.921013 0.805647
C64   C     C_R   0.078591 0.722406 0.277646 0.809271
C65   C     C_R   0.722693 0.722700 0.920983 0.814652
C66   C     C_R   0.921088 0.277356 0.277451 0.803339
C67   C     C_R   0.277591 0.722461 0.078648 0.807819
C68   C     C_R   0.078724 0.277554 0.722432 0.811068
C69   C     C_R   0.722434 0.078667 0.277602 0.806008
C70   C     C_R   0.722761 0.920909 0.722786 0.808519
C71   C     C_R   0.277145 0.920829 0.277186 0.806546
C72   C     C_R   0.277593 0.078687 0.722429 0.807780
C73   C     C_R   0.722557 0.777383 0.578864 0.806628
C74   C     C_R   0.420924 0.222723 0.722757 0.811662
C75   C     C_R   0.277605 0.777624 0.421387 0.804757
C76   C     C_R   0.578759 0.222509 0.277498 0.806387
C77   C     C_R   0.722785 0.222769 0.420859 0.809900
C78   C     C_R   0.421167 0.777406 0.277441 0.805674
C79   C     C_R   0.277431 0.222549 0.578790 0.809219
C80   C     C_R   0.578629 0.777600 0.722370 0.809913
C81   C     C_R   0.222592 0.578849 0.277441 0.807944
C82   C     C_R   0.777447 0.722537 0.578838 0.808417
C83   C     C_R   0.222673 0.421010 0.722699 0.811207
C84   C     C_R   0.777520 0.277446 0.421174 0.805456
C85   C     C_R   0.777373 0.421116 0.277374 0.804460
C86   C     C_R   0.222514 0.277441 0.578801 0.807925
C87   C     C_R   0.777623 0.578572 0.722346 0.811558
C88   C     C_R   0.222691 0.722700 0.420941 0.811185
C89   C     C_R   0.421107 0.277442 0.777404 0.805107
C90   C     C_R   0.277440 0.578825 0.222597 0.807924
C91   C     C_R   0.578676 0.722436 0.777569 0.812111
C92   C     C_R   0.722683 0.420940 0.222684 0.805790
C93   C     C_R   0.578818 0.277455 0.222601 0.807784
C94   C     C_R   0.722565 0.578847 0.777434 0.815392
C95   C     C_R   0.420938 0.722700 0.222692 0.809196
C96   C     C_R   0.277568 0.421258 0.777483 0.805590
C97   C     C_R   0.277492 0.722547 0.000381 0.800538
C98   C     C_R   0.999565 0.277538 0.277543 0.803082
C99   C     C_R   0.722595 0.722570 0.999814 0.802275
C100  C     C_R   0.000443 0.277585 0.722467 0.800040
C101  C     C_R   0.277442 0.277439 0.999655 0.806684
C102  C     C_R   0.000178 0.722899 0.722941 0.804864
C103  C     C_R   0.722503 0.277499 0.000382 0.799020
C104  C     C_R   0.000382 0.722526 0.277490 0.799309
C105  C     C_R   0.277489 0.000384 0.722467 0.799400
C106  C     C_R   0.277421 0.999723 0.277410 0.804649
C107  C     C_R   0.722714 0.999867 0.722674 0.802609
C108  C     C_R   0.722584 0.000278 0.277420 0.798489
C109  C     C_R   0.777430 0.222574 0.000262 0.798907
C110  C     C_R   0.999632 0.777504 0.777466 0.797853
C111  C     C_R   0.222454 0.222451 0.999551 0.804773
C112  C     C_R   0.000217 0.777344 0.222664 0.800463
C113  C     C_R   0.777430 0.777419 0.999662 0.797818
C114  C     C_R   0.999667 0.222548 0.222525 0.805855
C115  C     C_R   0.222507 0.777454 0.000355 0.802956
C116  C     C_R   0.000419 0.222469 0.777589 0.796722
C117  C     C_R   0.777276 0.000139 0.222718 0.803926
C118  C     C_R   0.777144 0.000142 0.777108 0.804904
C119  C     C_R   0.222632 0.999777 0.222626 0.805144
C120  C     C_R   0.222569 0.000323 0.777476 0.802795
C121  C     C_R   0.777326 0.722677 0.500181 0.803835
C122  C     C_R   0.499603 0.277501 0.777497 0.800328
C123  C     C_R   0.222524 0.722527 0.499751 0.802192
C124  C     C_R   0.500159 0.277298 0.222694 0.803087
C125  C     C_R   0.777462 0.277398 0.499730 0.800472
C126  C     C_R   0.499837 0.722617 0.222585 0.803193
C127  C     C_R   0.222555 0.277447 0.500317 0.800732
C128  C     C_R   0.500155 0.722694 0.777290 0.800965
C129  C     C_R   0.277359 0.500240 0.222640 0.802452
C130  C     C_R   0.722448 0.777562 0.500459 0.801184
C131  C     C_R   0.277349 0.499768 0.777374 0.802257
C132  C     C_R   0.722697 0.222701 0.499926 0.802714
C133  C     C_R   0.722399 0.499549 0.222393 0.803500
C134  C     C_R   0.277311 0.222705 0.500136 0.802258
C135  C     C_R   0.722909 0.499868 0.777118 0.799865
C136  C     C_R   0.277514 0.777470 0.499638 0.799463
C137  C     C_R   0.499966 0.222743 0.722772 0.805675
C138  C     C_R   0.222552 0.500310 0.277445 0.801753
C139  C     C_R   0.500358 0.777510 0.722528 0.797787
C140  C     C_R   0.777431 0.499692 0.277421 0.805801
C141  C     C_R   0.500487 0.222429 0.277585 0.801497
C142  C     C_R   0.777214 0.500017 0.722707 0.794754
C143  C     C_R   0.499721 0.777413 0.277430 0.801707
C144  C     C_R   0.222540 0.499667 0.722486 0.803092
C145  C     C_R   0.445859 0.166390 0.297018 -0.011727
C146  C     C_R   0.704772 0.832299 0.443962 -0.009306
C147  C     C_R   0.559961 0.170765 0.709006 -0.019459
C148  C     C_R   0.295958 0.832005 0.556039 -0.011919
C149  C     C_R   0.443616 0.832275 0.705607 -0.007396
C150  C     C_R   0.711993 0.177018 0.565458 -0.019656
C151  C     C_R   0.557774 0.830728 0.294073 -0.008697
C152  C     C_R   0.290373 0.173159 0.438058 -0.012091
C153  C     C_R   0.828177 0.289795 0.561110 -0.005701
C154  C     C_R   0.169224 0.442105 0.293662 -0.012982
C155  C     C_R   0.829697 0.707183 0.441008 -0.006930
C156  C     C_R   0.166929 0.554634 0.702569 -0.025525
C157  C     C_R   0.166784 0.702754 0.555122 -0.016377
C158  C     C_R   0.830366 0.558243 0.293274 -0.011822
C159  C     C_R   0.168275 0.294722 0.443335 -0.008173
C160  C     C_R   0.831896 0.443905 0.703439 -0.013753
C161  C     C_R   0.705000 0.556484 0.167833 -0.020581
C162  C     C_R   0.556922 0.294507 0.831438 -0.010531
C163  C     C_R   0.293035 0.441504 0.169935 -0.008482
C164  C     C_R   0.439475 0.708441 0.828161 -0.013126
C165  C     C_R   0.292252 0.558924 0.829858 -0.006399
C166  C     C_R   0.438892 0.290763 0.172317 -0.012678
C167  C     C_R   0.707356 0.440534 0.829599 -0.011405
C168  C     C_R   0.560483 0.707897 0.171168 -0.003472
C169  C     C_R   0.944040 0.667844 0.295458 -0.010827
C170  C     C_R   0.705609 0.330805 0.942284 -0.016519
C171  C     C_R   0.064208 0.675108 0.712788 -0.007196
C172  C     C_R   0.293295 0.330243 0.058263 -0.010080
C173  C     C_R   0.942713 0.331549 0.706488 -0.007541
C174  C     C_R   0.707354 0.669395 0.058669 -0.015908
C175  C     C_R   0.055193 0.332843 0.296048 -0.010479
C176  C     C_R   0.295086 0.668652 0.943270 -0.009821
C177  C     C_R   0.330765 0.293814 0.057658 -0.011878
C178  C     C_R   0.670785 0.940442 0.292418 -0.011151
C179  C     C_R   0.331005 0.706646 0.942358 -0.011294
C180  C     C_R   0.671129 0.059860 0.707946 -0.016740
C181  C     C_R   0.665174 0.699547 0.052142 -0.020080
C182  C     C_R   0.330780 0.057863 0.293657 -0.013561
C183  C     C_R   0.668762 0.293735 0.942658 -0.009161
C184  C     C_R   0.332199 0.944199 0.703812 -0.012617
C185  C     C_R   0.710322 0.062331 0.673367 -0.008220
C186  C     C_R   0.056323 0.294962 0.332035 -0.010300
C187  C     C_R   0.294507 0.943740 0.667629 -0.007049
C188  C     C_R   0.941747 0.706642 0.330379 -0.009051
C189  C     C_R   0.293000 0.058822 0.329815 -0.010712
C190  C     C_R   0.945866 0.297932 0.666632 -0.006678
C191  C     C_R   0.705243 0.943175 0.331616 -0.006980
C192  C     C_R   0.056574 0.702309 0.668804 -0.014781
C193  C     C_R   0.947446 0.165660 0.800078 -0.022926
C194  C     C_R   0.204608 0.831400 0.943265 -0.011960
C195  C     C_R   0.057205 0.168789 0.205602 -0.011194
C196  C     C_R   0.793979 0.830877 0.057571 -0.007425
C197  C     C_R   0.938244 0.826990 0.209935 -0.008888
C198  C     C_R   0.205386 0.168252 0.056711 -0.009844
C199  C     C_R   0.056891 0.831758 0.793967 -0.008120
C200  C     C_R   0.792799 0.170086 0.941017 -0.011851
C201  C     C_R   0.830175 0.792959 0.058382 -0.009728
C202  C     C_R   0.168865 0.942902 0.794998 -0.012664
C203  C     C_R   0.830236 0.206574 0.941448 -0.007575
C204  C     C_R   0.171723 0.060499 0.208502 -0.012077
C205  C     C_R   0.166843 0.203446 0.054772 -0.010722
C206  C     C_R   0.829588 0.059676 0.792013 -0.009644
C207  C     C_R   0.168115 0.793962 0.943229 -0.007382
C208  C     C_R   0.826562 0.937841 0.210101 -0.008719
C209  C     C_R   0.206166 0.057813 0.169228 -0.006879
C210  C     C_R   0.056300 0.795612 0.831761 -0.012953
C211  C     C_R   0.790638 0.939129 0.171991 -0.003703
C212  C     C_R   0.938302 0.209354 0.827288 -0.023562
C213  C     C_R   0.792948 0.059646 0.829284 -0.017524
C214  C     C_R   0.941177 0.792939 0.170160 -0.009696
C215  C     C_R   0.206290 0.942714 0.831502 -0.006991
C216  C     C_R   0.057553 0.206023 0.168896 -0.011939
C217  C     C_R   0.438844 0.672262 0.790411 -0.007140
C218  C     C_R   0.206773 0.330025 0.441331 -0.010461
C219  C     C_R   0.556791 0.668122 0.204835 -0.003222
C220  C     C_R   0.797783 0.331915 0.555656 -0.025430
C221  C     C_R   0.439762 0.328509 0.208463 -0.008163
C222  C     C_R   0.209301 0.673243 0.562339 -0.018555
C223  C     C_R   0.556593 0.331736 0.794721 -0.011233
C224  C     C_R   0.790660 0.672474 0.438749 -0.012529
C225  C     C_R   0.332163 0.794336 0.556511 -0.007565
C226  C     C_R   0.671889 0.439150 0.791223 -0.015604
C227  C     C_R   0.329690 0.207495 0.440824 -0.005559
C228  C     C_R   0.663942 0.550852 0.199919 -0.001326
C229  C     C_R   0.668115 0.204032 0.556580 -0.019512
C230  C     C_R   0.328136 0.560435 0.791791 -0.008874
C231  C     C_R   0.666872 0.796371 0.445202 -0.012037
C232  C     C_R   0.327961 0.439295 0.208780 -0.010041
C233  C     C_R   0.209178 0.561475 0.672464 -0.016169
C234  C     C_R   0.558455 0.793049 0.330315 -0.013213
C235  C     C_R   0.792365 0.441201 0.669407 -0.011545
C236  C     C_R   0.443563 0.205098 0.331984 -0.008392
C237  C     C_R   0.793549 0.558046 0.330434 -0.011554
C238  C     C_R   0.443838 0.795925 0.668075 -0.012052
C239  C     C_R   0.205770 0.442474 0.331017 -0.008304
C240  C     C_R   0.557099 0.204069 0.668854 -0.017887
C241  C     C_R   0.468516 0.180434 0.283620 -0.225845
C242  C     C_R   0.718825 0.817527 0.465715 -0.245179
C243  C     C_R   0.536740 0.184613 0.721551 -0.249678
C244  C     C_R   0.281830 0.817598 0.534106 -0.247578
C245  C     C_R   0.466650 0.818331 0.718444 -0.239956
C246  C     C_R   0.723466 0.188276 0.540303 -0.248120
C247  C     C_R   0.534069 0.817661 0.281608 -0.236208
C248  C     C_R   0.278064 0.185998 0.461953 -0.230266
C249  C     C_R   0.815249 0.278056 0.536946 -0.246017
C250  C     C_R   0.183301 0.464750 0.280329 -0.237689
C251  C     C_R   0.817311 0.718751 0.465525 -0.238316
C252  C     C_R   0.180880 0.532085 0.716274 -0.246867
C253  C     C_R   0.180678 0.716304 0.532323 -0.248448
C254  C     C_R   0.816555 0.535351 0.280165 -0.237224
C255  C     C_R   0.181618 0.282209 0.466878 -0.234345
C256  C     C_R   0.817873 0.466230 0.717392 -0.250874
C257  C     C_R   0.719191 0.534979 0.182799 -0.191198
C258  C     C_R   0.534600 0.280895 0.817171 -0.247757
C259  C     C_R   0.281407 0.465903 0.182451 -0.236954
C260  C     C_R   0.463457 0.720642 0.815424 -0.234803
C261  C     C_R   0.280802 0.534432 0.817342 -0.239721
C262  C     C_R   0.462863 0.278617 0.185117 -0.232347
C263  C     C_R   0.720093 0.464000 0.816251 -0.247647
C264  C     C_R   0.537493 0.721054 0.184972 -0.234503
C265  C     C_R   0.967422 0.681280 0.282745 -0.230111
C266  C     C_R   0.719128 0.316949 0.964967 -0.246752
C267  C     C_R   0.040372 0.688498 0.724642 -0.235678
C268  C     C_R   0.280155 0.316434 0.035393 -0.240466
C269  C     C_R   0.965721 0.317618 0.719348 -0.235381
C270  C     C_R   0.721024 0.684554 0.036896 -0.230310
C271  C     C_R   0.032384 0.318950 0.282817 -0.228704
C272  C     C_R   0.281442 0.682639 0.965749 -0.246727
C273  C     C_R   0.317748 0.281524 0.033856 -0.231130
C274  C     C_R   0.684612 0.963342 0.279281 -0.237807
C275  C     C_R   0.317655 0.719028 0.965941 -0.238993
C276  C     C_R   0.683968 0.035912 0.720130 -0.243314
C277  C     C_R   0.679828 0.714632 0.030815 -0.254810
C278  C     C_R   0.316957 0.034962 0.280543 -0.237840
C279  C     C_R   0.681951 0.281574 0.966459 -0.241156
C280  C     C_R   0.317728 0.966039 0.718028 -0.245634
C281  C     C_R   0.721369 0.037158 0.684902 -0.246245
C282  C     C_R   0.034448 0.281018 0.317368 -0.242681
C283  C     C_R   0.281601 0.966707 0.681607 -0.238839
C284  C     C_R   0.964273 0.720058 0.316220 -0.242677
C285  C     C_R   0.280718 0.034934 0.316938 -0.235401
C286  C     C_R   0.967559 0.283446 0.681110 -0.251030
C287  C     C_R   0.717623 0.966880 0.318416 -0.236816
C288  C     C_R   0.033178 0.715741 0.681683 -0.250556
C289  C     C_R   0.969655 0.179718 0.785795 -0.254215
C290  C     C_R   0.218544 0.817210 0.965450 -0.245035
C291  C     C_R   0.033752 0.182118 0.218273 -0.230833
C292  C     C_R   0.780750 0.817062 0.034729 -0.248770
C293  C     C_R   0.963119 0.815142 0.221250 -0.241713
C294  C     C_R   0.219281 0.182941 0.034794 -0.243514
C295  C     C_R   0.033652 0.818051 0.781291 -0.239533
C296  C     C_R   0.779753 0.183884 0.964016 -0.243053
C297  C     C_R   0.817238 0.780745 0.034507 -0.232964
C298  C     C_R   0.182960 0.965260 0.781233 -0.242701
C299  C     C_R   0.817537 0.218599 0.965614 -0.241836
C300  C     C_R   0.185146 0.037180 0.221265 -0.233142
C301  C     C_R   0.180748 0.216729 0.031965 -0.226809
C302  C     C_R   0.816033 0.036314 0.779354 -0.240693
C303  C     C_R   0.181834 0.781360 0.966513 -0.238184
C304  C     C_R   0.814218 0.962213 0.221918 -0.230321
C305  C     C_R   0.218153 0.033731 0.182064 -0.235318
C306  C     C_R   0.034191 0.781649 0.817493 -0.250379
C307  C     C_R   0.779890 0.964331 0.183711 -0.242725
C308  C     C_R   0.962109 0.221794 0.814304 -0.243893
C309  C     C_R   0.779987 0.036326 0.815934 -0.247647
C310  C     C_R   0.964904 0.780529 0.183221 -0.238280
C311  C     C_R   0.218804 0.966150 0.817935 -0.240569
C312  C     C_R   0.035025 0.219461 0.183048 -0.238927
C313  C     C_R   0.463807 0.684181 0.779306 -0.243173
C314  C     C_R   0.220129 0.316024 0.463993 -0.239871
C315  C     C_R   0.533029 0.681370 0.217181 -0.233889
C316  C     C_R   0.783888 0.318529 0.532908 -0.250591
C317  C     C_R   0.464568 0.316464 0.219732 -0.240473
C318  C     C_R   0.221485 0.685645 0.538047 -0.241927
C319  C     C_R   0.533332 0.318218 0.781922 -0.232926
C320  C     C_R   0.778304 0.685517 0.462494 -0.231270
C321  C     C_R   0.318254 0.781489 0.533465 -0.237426
C322  C     C_R   0.685079 0.462777 0.778753 -0.240822
C323  C     C_R   0.317336 0.218860 0.465470 -0.241139
C324  C     C_R   0.679241 0.530082 0.215063 -0.247526
C325  C     C_R   0.681306 0.216702 0.532924 -0.247179
C326  C     C_R   0.315072 0.536877 0.779158 -0.240441
C327  C     C_R   0.680885 0.783004 0.467867 -0.226787
C328  C     C_R   0.314807 0.462863 0.221311 -0.237525
C329  C     C_R   0.221416 0.537362 0.685061 -0.243572
C330  C     C_R   0.535627 0.779918 0.316385 -0.236181
C331  C     C_R   0.779127 0.463726 0.683874 -0.251582
C332  C     C_R   0.465329 0.219121 0.317195 -0.245766
C333  C     C_R   0.781246 0.534232 0.317462 -0.231071
C334  C     C_R   0.465768 0.781776 0.682476 -0.245031
C335  C     C_R   0.218341 0.466060 0.317801 -0.236087
C336  C     C_R   0.534078 0.217582 0.682226 -0.251439
C337  C     C_R   0.316710 0.646118 0.183083 -0.136610
C338  C     C_R   0.818042 0.355399 0.318081 -0.137749
C339  C     C_R   0.683149 0.646219 0.816878 -0.131855
C340  C     C_R   0.182715 0.354446 0.682516 -0.128139
C341  C     C_R   0.317406 0.354539 0.817744 -0.136266
C342  C     C_R   0.817102 0.645904 0.682947 -0.135590
C343  C     C_R   0.682826 0.353837 0.182758 -0.123820
C344  C     C_R   0.182638 0.645719 0.317126 -0.134584
C345  C     C_R   0.353743 0.183208 0.682942 -0.128064
C346  C     C_R   0.646058 0.316714 0.182982 -0.136732
C347  C     C_R   0.354201 0.817199 0.317047 -0.135274
C348  C     C_R   0.646435 0.683333 0.816617 -0.133399
C349  C     C_R   0.646166 0.817060 0.683052 -0.133550
C350  C     C_R   0.353802 0.682868 0.182857 -0.124802
C351  C     C_R   0.644867 0.182039 0.318006 -0.134148
C352  C     C_R   0.354661 0.317763 0.818032 -0.132448
C353  C     C_R   0.817191 0.682897 0.646011 -0.131024
C354  C     C_R   0.682896 0.182987 0.353778 -0.128710
C355  C     C_R   0.183030 0.317331 0.645850 -0.133839
C356  C     C_R   0.317354 0.817219 0.354201 -0.136492
C357  C     C_R   0.182615 0.682623 0.354053 -0.125148
C358  C     C_R   0.317175 0.182982 0.645724 -0.135254
C359  C     C_R   0.817834 0.318110 0.354781 -0.133192
C360  C     C_R   0.682900 0.817412 0.645785 -0.134077
C361  C     C_R   0.817728 0.145595 0.182635 -0.132669
C362  C     C_R   0.817156 0.853992 0.817082 -0.126360
C363  C     C_R   0.183150 0.146249 0.816685 -0.134488
C364  C     C_R   0.182778 0.854005 0.182754 -0.126580
C365  C     C_R   0.854684 0.182532 0.182504 -0.132678
C366  C     C_R   0.146004 0.816908 0.182834 -0.135228
C367  C     C_R   0.853900 0.816937 0.816847 -0.134152
C368  C     C_R   0.146122 0.183063 0.816748 -0.135879
C369  C     C_R   0.817400 0.182894 0.145882 -0.134401
C370  C     C_R   0.182720 0.182728 0.854011 -0.125255
C371  C     C_R   0.182583 0.817421 0.145535 -0.133636
C372  C     C_R   0.816617 0.816511 0.853434 -0.133258
C373  C     C_R   0.316749 0.146323 0.682957 -0.133076
C374  C     C_R   0.316593 0.853413 0.316442 -0.131921
C375  C     C_R   0.682419 0.145715 0.317138 -0.135835
C376  C     C_R   0.682850 0.854255 0.682772 -0.130525
C377  C     C_R   0.853623 0.683242 0.683385 -0.130079
C378  C     C_R   0.146462 0.316888 0.683202 -0.131761
C379  C     C_R   0.854620 0.318012 0.317508 -0.131917
C380  C     C_R   0.145402 0.682350 0.317346 -0.137472
C381  C     C_R   0.316480 0.683216 0.146310 -0.136009
C382  C     C_R   0.682922 0.682942 0.853945 -0.126701
C383  C     C_R   0.683063 0.316602 0.146094 -0.137201
C384  C     C_R   0.318237 0.318434 0.855529 -0.131281
C385  C     C_R   0.399991 0.670865 0.828875 0.306242
C386  C     C_R   0.167249 0.332418 0.403720 0.303684
C387  C     C_R   0.597626 0.667755 0.168139 0.306639
C388  C     C_R   0.831512 0.329760 0.598250 0.343357
C389  C     C_R   0.400204 0.329178 0.170802 0.301065
C390  C     C_R   0.167955 0.668350 0.597353 0.361428
C391  C     C_R   0.595881 0.332701 0.832684 0.300162
C392  C     C_R   0.830126 0.669907 0.401106 0.300289
C393  C     C_R   0.333975 0.833209 0.595156 0.312028
C394  C     C_R   0.670822 0.399880 0.829150 0.303373
C395  C     C_R   0.330365 0.170103 0.400978 0.301889
C396  C     C_R   0.663625 0.591640 0.163471 0.325361
C397  C     C_R   0.670521 0.171326 0.600037 0.357801
C398  C     C_R   0.329327 0.599152 0.830162 0.309343
C399  C     C_R   0.666036 0.833947 0.405534 0.303951
C400  C     C_R   0.329725 0.401041 0.169951 0.303444
C401  C     C_R   0.167792 0.596334 0.667641 0.351910
C402  C     C_R   0.596668 0.832028 0.332450 0.299744
C403  C     C_R   0.830871 0.402251 0.668135 0.314050
C404  C     C_R   0.405231 0.166322 0.333592 0.304340
C405  C     C_R   0.831577 0.597246 0.331424 0.302503
C406  C     C_R   0.404824 0.834025 0.666864 0.312064
C407  C     C_R   0.167296 0.403665 0.332445 0.303067
C408  C     C_R   0.600672 0.171619 0.672469 0.314951
C409  C     C_R   0.904295 0.167384 0.833003 0.358842
C410  C     C_R   0.166699 0.832344 0.904107 0.311327
C411  C     C_R   0.096141 0.167427 0.167225 0.301337
C412  C     C_R   0.830565 0.830398 0.098072 0.311637
C413  C     C_R   0.900295 0.829127 0.170743 0.314333
C414  C     C_R   0.166402 0.166366 0.094902 0.303965
C415  C     C_R   0.095701 0.833302 0.832611 0.310728
C416  C     C_R   0.831629 0.168256 0.902620 0.331168
C417  C     C_R   0.167730 0.903781 0.832999 0.309978
C418  C     C_R   0.168756 0.097640 0.168570 0.299442
C419  C     C_R   0.829142 0.100647 0.828209 0.310484
C420  C     C_R   0.828034 0.899261 0.171535 0.305621
C421  C     C_R   0.903525 0.667755 0.332124 0.302934
C422  C     C_R   0.668590 0.330710 0.902312 0.322269
C423  C     C_R   0.101158 0.671311 0.672711 0.312881
C424  C     C_R   0.331131 0.331099 0.097551 0.304026
C425  C     C_R   0.905127 0.334153 0.666796 0.323946
C426  C     C_R   0.665913 0.664456 0.093842 0.319875
C427  C     C_R   0.094697 0.333766 0.333799 0.304287
C428  C     C_R   0.331789 0.668692 0.902976 0.311592
C429  C     C_R   0.667981 0.903186 0.332287 0.301098
C430  C     C_R   0.671203 0.100186 0.671226 0.332442
C431  C     C_R   0.331852 0.097247 0.331469 0.302907
C432  C     C_R   0.333298 0.905035 0.665870 0.312213
N1    N     N_R   0.353313 0.646571 0.853690 -0.499852
N2    N     N_R   0.143201 0.356459 0.356493 -0.498368
N3    N     N_R   0.642655 0.641513 0.142053 -0.491690
N4    N     N_R   0.855089 0.354552 0.645168 -0.497166
N5    N     N_R   0.353409 0.353501 0.146334 -0.498358
N6    N     N_R   0.146070 0.645754 0.646245 -0.492417
N7    N     N_R   0.645751 0.353679 0.854025 -0.496636
N8    N     N_R   0.854872 0.645155 0.354644 -0.498195
N9    N     N_R   0.357045 0.857110 0.642934 -0.501275
N10   N     N_R   0.355677 0.144704 0.355140 -0.498339
N11   N     N_R   0.648274 0.148560 0.648618 -0.491719
N12   N     N_R   0.643709 0.856225 0.356645 -0.497896
N13   N     N_R   0.854563 0.145955 0.854096 -0.492652
N14   N     N_R   0.143722 0.856095 0.856203 -0.500901
N15   N     N_R   0.143914 0.143989 0.143709 -0.498020
N16   N     N_R   0.852633 0.852569 0.147078 -0.497582
C433  C     C_R   0.341736 0.658080 0.195129 0.239976
C434  C     C_R   0.806039 0.343785 0.343633 0.230972
C435  C     C_R   0.658542 0.658511 0.804375 0.243719
C436  C     C_R   0.195077 0.342506 0.657607 0.238405
C437  C     C_R   0.341684 0.341688 0.804962 0.239361
C438  C     C_R   0.805275 0.657692 0.657697 0.241663
C439  C     C_R   0.658126 0.341654 0.195063 0.240374
C440  C     C_R   0.195200 0.658212 0.341594 0.241019
C441  C     C_R   0.341880 0.195536 0.657998 0.238086
C442  C     C_R   0.342867 0.805485 0.342663 0.235516
C443  C     C_R   0.658365 0.804811 0.658255 0.240020
C444  C     C_R   0.657465 0.194748 0.342452 0.238039
C445  C     C_R   0.843105 0.157190 0.194669 0.231436
C446  C     C_R   0.804504 0.841383 0.841444 0.241854
C447  C     C_R   0.158378 0.158369 0.804164 0.239986
C448  C     C_R   0.194898 0.842132 0.157781 0.241408
C449  C     C_R   0.842043 0.841990 0.804818 0.240354
C450  C     C_R   0.805083 0.158205 0.158217 0.239641
C451  C     C_R   0.158474 0.841347 0.195432 0.241892
C452  C     C_R   0.195252 0.158247 0.841616 0.240705
C453  C     C_R   0.842515 0.195149 0.157692 0.233895
C454  C     C_R   0.841453 0.804215 0.841324 0.241483
C455  C     C_R   0.157622 0.805088 0.157461 0.240274
C456  C     C_R   0.158039 0.195049 0.841791 0.241687
C457  C     C_R   0.841533 0.658398 0.695784 0.238457
C458  C     C_R   0.305687 0.343438 0.843575 0.229849
C459  C     C_R   0.157234 0.657174 0.305155 0.237795
C460  C     C_R   0.695314 0.341418 0.158268 0.240407
C461  C     C_R   0.842934 0.343287 0.305330 0.230251
C462  C     C_R   0.304003 0.658279 0.158349 0.236508
C463  C     C_R   0.158239 0.341992 0.695113 0.241962
C464  C     C_R   0.695310 0.658263 0.841758 0.241943
C465  C     C_R   0.341313 0.695422 0.158449 0.241046
C466  C     C_R   0.658187 0.841959 0.695353 0.237546
C467  C     C_R   0.343527 0.306346 0.843857 0.232486
C468  C     C_R   0.656343 0.156638 0.306060 0.236390
C469  C     C_R   0.658053 0.304097 0.158064 0.233557
C470  C     C_R   0.341232 0.158765 0.695444 0.242752
C471  C     C_R   0.658427 0.695484 0.841529 0.242754
C472  C     C_R   0.341433 0.841407 0.303900 0.234025
C473  C     C_R   0.304862 0.158025 0.657691 0.239842
C474  C     C_R   0.157733 0.694730 0.342028 0.241531
C475  C     C_R   0.695054 0.842594 0.657577 0.234401
C476  C     C_R   0.842206 0.305542 0.342097 0.239875
C477  C     C_R   0.695687 0.158886 0.340882 0.240557
C478  C     C_R   0.841524 0.695612 0.658599 0.240621
C479  C     C_R   0.304387 0.841436 0.341433 0.237371
C480  C     C_R   0.158706 0.304618 0.658515 0.243831
C481  C     C_R   0.477746 0.207122 0.292969 -0.037633
C482  C     C_R   0.707171 0.792895 0.477673 -0.037834
C483  C     C_R   0.524002 0.208222 0.708638 -0.026865
C484  C     C_R   0.292751 0.792432 0.522714 -0.033002
C485  C     C_R   0.477275 0.792751 0.707571 -0.032793
C486  C     C_R   0.708679 0.208626 0.524365 -0.024511
C487  C     C_R   0.523272 0.792046 0.292187 -0.037439
C488  C     C_R   0.291424 0.208601 0.475886 -0.037138
C489  C     C_R   0.792449 0.291686 0.523421 -0.026159
C490  C     C_R   0.207714 0.476874 0.292214 -0.036457
C491  C     C_R   0.791481 0.708445 0.476066 -0.037183
C492  C     C_R   0.207875 0.523120 0.707502 -0.024778
C493  C     C_R   0.207828 0.707736 0.523461 -0.027076
C494  C     C_R   0.792125 0.523230 0.292061 -0.036924
C495  C     C_R   0.207756 0.292253 0.476896 -0.036676
C496  C     C_R   0.791587 0.476253 0.707863 -0.029176
C497  C     C_R   0.706764 0.521969 0.206656 -0.048014
C498  C     C_R   0.522733 0.292510 0.792499 -0.036407
C499  C     C_R   0.291681 0.476289 0.208345 -0.036250
C500  C     C_R   0.475840 0.708614 0.791243 -0.034186
C501  C     C_R   0.291569 0.523741 0.791744 -0.034547
C502  C     C_R   0.475893 0.291332 0.208614 -0.036614
C503  C     C_R   0.709014 0.475364 0.791070 -0.033380
C504  C     C_R   0.523632 0.708026 0.207894 -0.040058
C505  C     C_R   0.977134 0.707648 0.292452 -0.036630
C506  C     C_R   0.707585 0.292324 0.977040 -0.031653
C507  C     C_R   0.024869 0.708866 0.709432 -0.030597
C508  C     C_R   0.292140 0.292158 0.023130 -0.036513
C509  C     C_R   0.977587 0.293069 0.707389 -0.032963
C510  C     C_R   0.707603 0.707203 0.022948 -0.031025
C511  C     C_R   0.022446 0.292738 0.292794 -0.037600
C512  C     C_R   0.292475 0.707770 0.977112 -0.032666
C513  C     C_R   0.707884 0.976696 0.292079 -0.036918
C514  C     C_R   0.708768 0.024229 0.708608 -0.030802
C515  C     C_R   0.292087 0.023333 0.292021 -0.036244
C516  C     C_R   0.292505 0.977381 0.707165 -0.033321
C517  C     C_R   0.977205 0.207639 0.792865 -0.022845
C518  C     C_R   0.207384 0.792286 0.977160 -0.033196
C519  C     C_R   0.023003 0.207713 0.207615 -0.037511
C520  C     C_R   0.792135 0.792071 0.023154 -0.035380
C521  C     C_R   0.976100 0.791555 0.208526 -0.032679
C522  C     C_R   0.207257 0.207169 0.022426 -0.038023
C523  C     C_R   0.022777 0.792643 0.792352 -0.032661
C524  C     C_R   0.792018 0.207902 0.976576 -0.032834
C525  C     C_R   0.207809 0.976999 0.792493 -0.033465
C526  C     C_R   0.208175 0.023626 0.208216 -0.038082
C527  C     C_R   0.791284 0.024563 0.791048 -0.031557
C528  C     C_R   0.791117 0.975660 0.208849 -0.036746
C529  C     C_1   0.397659 0.708495 0.208448 -0.067632
C530  C     C_1   0.792290 0.291868 0.398372 -0.057038
C531  C     C_1   0.601584 0.707983 0.792025 -0.061037
C532  C     C_1   0.208003 0.291807 0.601723 -0.062150
C533  C     C_1   0.398210 0.292111 0.791845 -0.058632
C534  C     C_1   0.791846 0.708094 0.601823 -0.062686
C535  C     C_1   0.601851 0.291922 0.208472 -0.055901
C536  C     C_1   0.208392 0.708431 0.397709 -0.067296
C537  C     C_1   0.291793 0.208128 0.601685 -0.057598
C538  C     C_1   0.708434 0.397666 0.208421 -0.069509
C539  C     C_1   0.292238 0.792363 0.398729 -0.053688
C540  C     C_1   0.708228 0.601908 0.791763 -0.061727
C541  C     C_1   0.708035 0.791680 0.601835 -0.057231
C542  C     C_1   0.291834 0.601874 0.208417 -0.056445
C543  C     C_1   0.708731 0.208625 0.397454 -0.064401
C544  C     C_1   0.292368 0.398503 0.791835 -0.054061
C545  C     C_1   0.792206 0.601237 0.707638 -0.054395
C546  C     C_1   0.601394 0.207870 0.292166 -0.058154
C547  C     C_1   0.208331 0.397929 0.708465 -0.064605
C548  C     C_1   0.398211 0.791721 0.291855 -0.054127
C549  C     C_1   0.208288 0.601807 0.291899 -0.059739
C550  C     C_1   0.397574 0.208523 0.708718 -0.063918
C551  C     C_1   0.791881 0.398355 0.291852 -0.047848
C552  C     C_1   0.601407 0.792147 0.707723 -0.056888
C553  C     C_1   0.897796 0.208635 0.208534 -0.053247
C554  C     C_1   0.791973 0.792020 0.898378 -0.062324
C555  C     C_1   0.101395 0.207958 0.792230 -0.058525
C556  C     C_1   0.208091 0.791996 0.101644 -0.060743
C557  C     C_1   0.898158 0.791763 0.791780 -0.062039
C558  C     C_1   0.792069 0.207604 0.101375 -0.055488
C559  C     C_1   0.101412 0.792221 0.207903 -0.059347
C560  C     C_1   0.208368 0.208395 0.897782 -0.070236
C561  C     C_1   0.208432 0.897720 0.208460 -0.068036
C562  C     C_1   0.208414 0.101989 0.791720 -0.059494
C563  C     C_1   0.791628 0.101873 0.207927 -0.055615
C564  C     C_1   0.791508 0.897765 0.791577 -0.067133
C565  C     C_1   0.897429 0.708850 0.708782 -0.059228
C566  C     C_1   0.291921 0.291639 0.898172 -0.053925
C567  C     C_1   0.101151 0.707794 0.292484 -0.055223
C568  C     C_1   0.708187 0.292247 0.101456 -0.053310
C569  C     C_1   0.898166 0.291651 0.292137 -0.057435
C570  C     C_1   0.292184 0.708146 0.101500 -0.056805
C571  C     C_1   0.101677 0.292032 0.707934 -0.064044
C572  C     C_1   0.708465 0.708492 0.897759 -0.063624
C573  C     C_1   0.708585 0.897657 0.708725 -0.058831
C574  C     C_1   0.707872 0.101381 0.292317 -0.058799
C575  C     C_1   0.292186 0.101559 0.707964 -0.060796
C576  C     C_1   0.290948 0.897279 0.291142 -0.055850
C577  C     C_1   0.377813 0.696824 0.196750 0.174654
C578  C     C_1   0.804277 0.303765 0.378794 0.181860
C579  C     C_1   0.621551 0.696417 0.803570 0.173077
C580  C     C_1   0.196346 0.303567 0.621501 0.176481
C581  C     C_1   0.378633 0.304024 0.803770 0.181807
C582  C     C_1   0.803566 0.696408 0.621632 0.176998
C583  C     C_1   0.621722 0.303598 0.196920 0.179594
C584  C     C_1   0.196631 0.696686 0.377936 0.175125
C585  C     C_1   0.303530 0.196459 0.621442 0.179606
C586  C     C_1   0.696751 0.377833 0.196700 0.173317
C587  C     C_1   0.304009 0.804135 0.378978 0.180765
C588  C     C_1   0.696619 0.621794 0.803385 0.176586
C589  C     C_1   0.696322 0.803454 0.621579 0.181285
C590  C     C_1   0.303466 0.621751 0.196857 0.179563
C591  C     C_1   0.697097 0.196958 0.377583 0.176226
C592  C     C_1   0.304262 0.378837 0.803631 0.182261
C593  C     C_1   0.803894 0.621046 0.695928 0.178808
C594  C     C_1   0.620859 0.195934 0.304172 0.180803
C595  C     C_1   0.196563 0.378252 0.696687 0.175428
C596  C     C_1   0.378440 0.803459 0.303515 0.182997
C597  C     C_1   0.196566 0.621551 0.303635 0.178245
C598  C     C_1   0.377696 0.196910 0.697105 0.175604
C599  C     C_1   0.803867 0.378940 0.303853 0.186009
C600  C     C_1   0.621286 0.803821 0.696069 0.177454
C601  C     C_1   0.878159 0.196866 0.196711 0.182408
C602  C     C_1   0.803505 0.803542 0.878361 0.172382
C603  C     C_1   0.121273 0.196332 0.803852 0.175094
C604  C     C_1   0.196348 0.803832 0.121322 0.177514
C605  C     C_1   0.878299 0.803423 0.803374 0.176327
C606  C     C_1   0.803816 0.195863 0.121157 0.179534
C607  C     C_1   0.121250 0.803889 0.196210 0.174529
C608  C     C_1   0.196636 0.196669 0.877996 0.172871
C609  C     C_1   0.196725 0.877923 0.196748 0.173275
C610  C     C_1   0.196836 0.121895 0.803306 0.178055
C611  C     C_1   0.803453 0.121548 0.196091 0.182702
C612  C     C_1   0.803216 0.877954 0.803246 0.173752
C613  C     C_1   0.877493 0.697293 0.697241 0.178005
C614  C     C_1   0.303994 0.303684 0.878803 0.182272
C615  C     C_1   0.120795 0.695954 0.304308 0.178121
C616  C     C_1   0.696637 0.303907 0.121327 0.178545
C617  C     C_1   0.878552 0.303555 0.304004 0.181106
C618  C     C_1   0.303767 0.696598 0.121450 0.176047
C619  C     C_1   0.121635 0.303660 0.696351 0.172039
C620  C     C_1   0.696789 0.696824 0.877936 0.175377
C621  C     C_1   0.696864 0.877914 0.697027 0.179667
C622  C     C_1   0.696044 0.121109 0.304046 0.177437
C623  C     C_1   0.303806 0.121479 0.696315 0.174452
C624  C     C_1   0.302434 0.877270 0.302634 0.180443
C625  C     C_R   0.365570 0.669854 0.865653 0.523352
C626  C     C_R   0.131181 0.333072 0.368550 0.520330
C627  C     C_R   0.632917 0.666869 0.131995 0.525784
C628  C     C_R   0.868052 0.331931 0.632753 0.529876
C629  C     C_R   0.365418 0.330082 0.134402 0.520288
C630  C     C_R   0.136249 0.671221 0.636453 0.536419
C631  C     C_R   0.632362 0.331814 0.867410 0.520155
C632  C     C_R   0.866531 0.668894 0.366306 0.520248
C633  C     C_R   0.333497 0.868789 0.630887 0.522648
C634  C     C_R   0.671001 0.363573 0.864129 0.525299
C635  C     C_R   0.331190 0.133822 0.366061 0.520027
C636  C     C_R   0.663868 0.627621 0.128177 0.518141
C637  C     C_R   0.669479 0.134727 0.634579 0.541020
C638  C     C_R   0.330281 0.634325 0.866178 0.522265
C639  C     C_R   0.667052 0.868315 0.368669 0.519421
C640  C     C_R   0.330297 0.365763 0.134055 0.520571
C641  C     C_R   0.135742 0.634896 0.670993 0.526532
C642  C     C_R   0.632539 0.867384 0.332406 0.519151
C643  C     C_R   0.867650 0.367815 0.667645 0.529714
C644  C     C_R   0.368304 0.132047 0.332398 0.519943
C645  C     C_R   0.867295 0.632771 0.331656 0.520338
C646  C     C_R   0.368705 0.869147 0.666525 0.523150
C647  C     C_R   0.131204 0.368491 0.333082 0.520283
C648  C     C_R   0.637598 0.137540 0.673153 0.523239
C649  C     C_R   0.869165 0.166068 0.868954 0.541037
C650  C     C_R   0.131619 0.832611 0.867973 0.522195
C651  C     C_R   0.131483 0.166941 0.131259 0.519289
C652  C     C_R   0.864971 0.829474 0.134830 0.523426
C653  C     C_R   0.829023 0.864348 0.135232 0.523506
C654  C     C_R   0.167413 0.867653 0.868116 0.522936
C655  C     C_R   0.829314 0.136093 0.863924 0.526611
C656  C     C_R   0.167647 0.132309 0.132024 0.519784
C657  C     C_R   0.132592 0.132690 0.167831 0.519466
C658  C     C_R   0.132069 0.868155 0.832646 0.522524
C659  C     C_R   0.864069 0.864075 0.171062 0.523018
C660  C     C_R   0.865557 0.135522 0.829329 0.529319
C661  C     C_R   0.367560 0.168216 0.367031 0.519997
C662  C     C_R   0.631517 0.832989 0.368842 0.519073
C663  C     C_R   0.637359 0.173136 0.637909 0.530852
C664  C     C_R   0.369022 0.833486 0.631359 0.523578
C665  C     C_R   0.829804 0.364290 0.634964 0.526642
C666  C     C_R   0.167233 0.367829 0.367860 0.520454
C667  C     C_R   0.830859 0.633764 0.366065 0.520332
C668  C     C_R   0.166007 0.631092 0.631191 0.546446
C669  C     C_R   0.631076 0.630062 0.166069 0.525009
C670  C     C_R   0.633698 0.365907 0.830763 0.521527
C671  C     C_R   0.364645 0.364791 0.170463 0.520433
C672  C     C_R   0.364285 0.635396 0.829380 0.523044
N17   N     N_R   0.388511 0.681978 0.853085 -0.306564
N18   N     N_R   0.143080 0.321338 0.392098 -0.303109
N19   N     N_R   0.610670 0.679840 0.145100 -0.312025
N20   N     N_R   0.856666 0.320175 0.608962 -0.297929
N21   N     N_R   0.388495 0.317976 0.146738 -0.305239
N22   N     N_R   0.147868 0.682839 0.612626 -0.320149
N23   N     N_R   0.607862 0.321215 0.856486 -0.303251
N24   N     N_R   0.854282 0.680964 0.389456 -0.302176
N25   N     N_R   0.321899 0.856565 0.607452 -0.305111
N26   N     N_R   0.683546 0.386348 0.851493 -0.314891
N27   N     N_R   0.318636 0.146603 0.388676 -0.305776
N28   N     N_R   0.674080 0.602790 0.138751 -0.348079
N29   N     N_R   0.679987 0.145758 0.610038 -0.316417
N30   N     N_R   0.318628 0.610597 0.854594 -0.298932
N31   N     N_R   0.678240 0.856961 0.392724 -0.302044
N32   N     N_R   0.318761 0.389480 0.145714 -0.301891
N33   N     N_R   0.147300 0.610918 0.682088 -0.313658
N34   N     N_R   0.609116 0.855404 0.320602 -0.303544
N35   N     N_R   0.855497 0.391371 0.678924 -0.308619
N36   N     N_R   0.392974 0.142785 0.321841 -0.302981
N37   N     N_R   0.855469 0.609173 0.320033 -0.302951
N38   N     N_R   0.392580 0.857770 0.678136 -0.295488
N39   N     N_R   0.143415 0.391729 0.321064 -0.302804
N40   N     N_R   0.613858 0.148977 0.684839 -0.307365
N41   N     N_R   0.894167 0.176199 0.858766 -0.315125
N42   N     N_R   0.142913 0.821069 0.891919 -0.296020
N43   N     N_R   0.107966 0.178665 0.143190 -0.302434
N44   N     N_R   0.854116 0.818729 0.110340 -0.308266
N45   N     N_R   0.888332 0.817636 0.146902 -0.307921
N46   N     N_R   0.142638 0.177879 0.106950 -0.305330
N47   N     N_R   0.108062 0.821136 0.855895 -0.306115
N48   N     N_R   0.857850 0.176651 0.893390 -0.313524
N49   N     N_R   0.817917 0.852998 0.111136 -0.305970
N50   N     N_R   0.179063 0.891478 0.856688 -0.295468
N51   N     N_R   0.817538 0.147830 0.887584 -0.314912
N52   N     N_R   0.179788 0.109221 0.144344 -0.302249
N53   N     N_R   0.178891 0.143701 0.108007 -0.302700
N54   N     N_R   0.816705 0.113543 0.851060 -0.316186
N55   N     N_R   0.178939 0.855504 0.891595 -0.305748
N56   N     N_R   0.817058 0.887660 0.147274 -0.300262
N57   N     N_R   0.145104 0.109809 0.180162 -0.304255
N58   N     N_R   0.108054 0.856933 0.821187 -0.296389
N59   N     N_R   0.851655 0.887081 0.183211 -0.309276
N60   N     N_R   0.889711 0.146905 0.818413 -0.317772
N61   N     N_R   0.852846 0.112860 0.816670 -0.312932
N62   N     N_R   0.887954 0.852615 0.182463 -0.304217
N63   N     N_R   0.144305 0.891540 0.820997 -0.305957
N64   N     N_R   0.108797 0.144295 0.179308 -0.303466
N65   N     N_R   0.890485 0.680160 0.354865 -0.303621
N66   N     N_R   0.643477 0.320889 0.891681 -0.300187
N67   N     N_R   0.113926 0.683964 0.649788 -0.326663
N68   N     N_R   0.354400 0.319163 0.110077 -0.302756
N69   N     N_R   0.892490 0.321454 0.643943 -0.308316
N70   N     N_R   0.644981 0.678520 0.108333 -0.319080
N71   N     N_R   0.107310 0.321712 0.356999 -0.302349
N72   N     N_R   0.354990 0.680553 0.890266 -0.297191
N73   N     N_R   0.319131 0.354355 0.110039 -0.303967
N74   N     N_R   0.678910 0.891716 0.356606 -0.303485
N75   N     N_R   0.319398 0.645668 0.890375 -0.306047
N76   N     N_R   0.680407 0.110361 0.645603 -0.312159
N77   N     N_R   0.675157 0.638955 0.104109 -0.299740
N78   N     N_R   0.319605 0.110143 0.354384 -0.302844
N79   N     N_R   0.682530 0.351699 0.887802 -0.316802
N80   N     N_R   0.321956 0.892731 0.642168 -0.296475
N81   N     N_R   0.649630 0.114064 0.684745 -0.319027
N82   N     N_R   0.107046 0.357236 0.321992 -0.304120
N83   N     N_R   0.356550 0.892630 0.678042 -0.304844
N84   N     N_R   0.891530 0.643966 0.320644 -0.303711
N85   N     N_R   0.356209 0.108684 0.320536 -0.302727
N86   N     N_R   0.892594 0.357706 0.678145 -0.301601
N87   N     N_R   0.644807 0.890528 0.320306 -0.304063
N88   N     N_R   0.113139 0.647378 0.683782 -0.296235
N89   N     N_R   0.391949 0.179016 0.356046 -0.303263
N90   N     N_R   0.642601 0.822097 0.393190 -0.305685
N91   N     N_R   0.613644 0.184575 0.649873 -0.322279
N92   N     N_R   0.357657 0.821871 0.607469 -0.295745
N93   N     N_R   0.392435 0.821884 0.643577 -0.304675
N94   N     N_R   0.649125 0.184936 0.614265 -0.320816
N95   N     N_R   0.608333 0.820924 0.356612 -0.302629
N96   N     N_R   0.355042 0.180594 0.389893 -0.301352
N97   N     N_R   0.817820 0.351436 0.611984 -0.322637
N98   N     N_R   0.178965 0.391360 0.355976 -0.303515
N99   N     N_R   0.818568 0.646225 0.388994 -0.304256
N100  N     N_R   0.176356 0.606181 0.641651 -0.316703
N101  N     N_R   0.176302 0.642078 0.606530 -0.318454
N102  N     N_R   0.819503 0.609875 0.354578 -0.303354
N103  N     N_R   0.179211 0.355645 0.391099 -0.303886
N104  N     N_R   0.817713 0.387821 0.646583 -0.309629
N105  N     N_R   0.642062 0.605635 0.177038 -0.299321
N106  N     N_R   0.608960 0.355415 0.820244 -0.301684
N107  N     N_R   0.352652 0.388211 0.182209 -0.305836
N108  N     N_R   0.387631 0.647327 0.817322 -0.298079
N109  N     N_R   0.352094 0.612073 0.817652 -0.307671
N110  N     N_R   0.387992 0.352778 0.182373 -0.300708
N111  N     N_R   0.646130 0.388920 0.818645 -0.303271
N112  N     N_R   0.608529 0.642978 0.178665 -0.303310
N113  N     N_R   0.355058 0.645093 0.219745 0.142633
O193  O     O_R   0.382696 0.642878 0.221272 -0.330492
O194  O     O_R   0.339781 0.635498 0.240894 -0.328675
N114  N     N_R   0.782425 0.358012 0.358407 0.150827
O195  O     O_R   0.776116 0.351788 0.384871 -0.336083
O196  O     O_R   0.768359 0.379086 0.346738 -0.337180
N115  N     N_R   0.645798 0.645609 0.779444 0.143165
O197  O     O_R   0.636691 0.661290 0.758409 -0.323813
O198  O     O_R   0.643034 0.618066 0.777698 -0.330135
N116  N     N_R   0.219607 0.356005 0.644376 0.146895
O199  O     O_R   0.222477 0.383613 0.644668 -0.330147
O200  O     O_R   0.239137 0.341025 0.631513 -0.328962
N117  N     N_R   0.353410 0.353258 0.778825 0.141122
O201  O     O_R   0.336831 0.361182 0.758020 -0.330802
O202  O     O_R   0.380926 0.355911 0.775615 -0.333074
N118  N     N_R   0.781520 0.643937 0.643583 0.144317
O203  O     O_R   0.760807 0.632558 0.658179 -0.328271
O204  O     O_R   0.780655 0.642279 0.615865 -0.328822
N119  N     N_R   0.645302 0.354805 0.219829 0.141165
O205  O     O_R   0.642274 0.382360 0.221127 -0.329758
O206  O     O_R   0.636833 0.339418 0.241379 -0.330848
N120  N     N_R   0.220688 0.646098 0.353972 0.141756
O207  O     O_R   0.222982 0.643181 0.381499 -0.330827
O208  O     O_R   0.241885 0.638113 0.337888 -0.328560
N121  N     N_R   0.354948 0.220565 0.645233 0.146194
O209  O     O_R   0.382482 0.224206 0.646049 -0.330281
O210  O     O_R   0.339671 0.239884 0.632435 -0.331051
N122  N     N_R   0.357501 0.782089 0.356982 0.147179
O211  O     O_R   0.343925 0.764307 0.373518 -0.333927
O212  O     O_R   0.385033 0.778999 0.354696 -0.335040
N123  N     N_R   0.645701 0.779730 0.645454 0.142483
O213  O     O_R   0.635872 0.759072 0.661236 -0.325857
O214  O     O_R   0.643653 0.777428 0.617858 -0.334904
N124  N     N_R   0.644397 0.219278 0.356030 0.145605
O215  O     O_R   0.644670 0.221953 0.383693 -0.330985
O216  O     O_R   0.631623 0.238903 0.341134 -0.331894
N125  N     N_R   0.857208 0.143365 0.218830 0.149678
O217  O     O_R   0.844019 0.124457 0.234702 -0.332331
O218  O     O_R   0.884222 0.147979 0.224223 -0.334531
N126  N     N_R   0.779325 0.854029 0.853958 0.141762
O219  O     O_R   0.757892 0.838119 0.861769 -0.326806
O220  O     O_R   0.777635 0.881442 0.857498 -0.326633
N127  N     N_R   0.145674 0.145517 0.779010 0.146779
O221  O     O_R   0.133014 0.161010 0.759779 -0.326646
O222  O     O_R   0.146299 0.118029 0.775236 -0.333532
N128  N     N_R   0.219600 0.855345 0.144886 0.142960
O223  O     O_R   0.240802 0.839984 0.135631 -0.327195
O224  O     O_R   0.221083 0.882947 0.142337 -0.329789
N129  N     N_R   0.855134 0.855372 0.780241 0.143663
O225  O     O_R   0.865454 0.840130 0.759449 -0.331611
O226  O     O_R   0.856874 0.883017 0.778484 -0.327254
N130  N     N_R   0.779839 0.145560 0.145758 0.141206
O227  O     O_R   0.758806 0.161438 0.136959 -0.327904
O228  O     O_R   0.777710 0.118030 0.142976 -0.333066
N131  N     N_R   0.146454 0.853447 0.221079 0.140922
O229  O     O_R   0.139188 0.837156 0.242397 -0.324896
O230  O     O_R   0.142970 0.880873 0.223413 -0.328726
N132  N     N_R   0.220249 0.145640 0.854476 0.141523
O231  O     O_R   0.241655 0.137369 0.838815 -0.327924
O232  O     O_R   0.221885 0.142557 0.882032 -0.328954
N133  N     N_R   0.855819 0.220024 0.144513 0.147432
O233  O     O_R   0.841301 0.237606 0.128623 -0.332178
O234  O     O_R   0.883018 0.224938 0.147428 -0.333495
N134  N     N_R   0.854122 0.779023 0.853906 0.143737
O235  O     O_R   0.838241 0.758527 0.863851 -0.327198
O236  O     O_R   0.881701 0.776467 0.855727 -0.332545
N135  N     N_R   0.144020 0.781010 0.143574 0.146339
O237  O     O_R   0.130882 0.761451 0.158258 -0.328423
O238  O     O_R   0.143983 0.778834 0.115881 -0.334594
N136  N     N_R   0.145069 0.219650 0.855020 0.140892
O239  O     O_R   0.136431 0.241125 0.839669 -0.327209
O240  O     O_R   0.141942 0.220806 0.882594 -0.332626
N137  N     N_R   0.854164 0.645885 0.721152 0.146353
O241  O     O_R   0.838498 0.633380 0.740385 -0.327741
O242  O     O_R   0.881625 0.646654 0.725223 -0.327216
N138  N     N_R   0.281539 0.357486 0.857729 0.151494
O243  O     O_R   0.268608 0.379412 0.846337 -0.337195
O244  O     O_R   0.273473 0.350127 0.883422 -0.334001
N139  N     N_R   0.143446 0.643042 0.281176 0.148621
O245  O     O_R   0.127244 0.656946 0.263469 -0.331610
O246  O     O_R   0.145961 0.615658 0.277447 -0.334272
N140  N     N_R   0.720437 0.354197 0.145749 0.140997
O247  O     O_R   0.741868 0.338474 0.137698 -0.327955
O248  O     O_R   0.722207 0.381722 0.142651 -0.328866
N141  N     N_R   0.856275 0.356760 0.280460 0.149579
O249  O     O_R   0.850977 0.383332 0.273809 -0.334605
O250  O     O_R   0.875314 0.343450 0.264971 -0.335540
N142  N     N_R   0.278800 0.645299 0.145525 0.148894
O251  O     O_R   0.261142 0.660128 0.130100 -0.331877
O252  O     O_R   0.273437 0.618257 0.148636 -0.336888
N143  N     N_R   0.145285 0.355027 0.719841 0.141355
O253  O     O_R   0.136692 0.339556 0.741256 -0.326047
O254  O     O_R   0.141841 0.382546 0.721015 -0.329579
N144  N     N_R   0.720211 0.645547 0.854697 0.143887
O255  O     O_R   0.741443 0.636765 0.839065 -0.324698
O256  O     O_R   0.721912 0.642777 0.882276 -0.323261
N145  N     N_R   0.354004 0.720581 0.145963 0.141034
O257  O     O_R   0.338209 0.742067 0.138209 -0.325363
O258  O     O_R   0.381506 0.722312 0.142557 -0.327947
N146  N     N_R   0.645301 0.854949 0.720351 0.144607
O259  O     O_R   0.632918 0.839533 0.739860 -0.328151
O260  O     O_R   0.645401 0.882508 0.723641 -0.331253
N147  N     N_R   0.357864 0.282951 0.858523 0.148604
O261  O     O_R   0.375338 0.265910 0.845309 -0.334277
O262  O     O_R   0.355129 0.279532 0.885979 -0.332804
N148  N     N_R   0.641204 0.141892 0.283307 0.148422
O263  O     O_R   0.654323 0.124961 0.265680 -0.332568
O264  O     O_R   0.613602 0.143885 0.281051 -0.335504
N149  N     N_R   0.644805 0.278957 0.145020 0.150500
O265  O     O_R   0.658817 0.262836 0.127042 -0.333268
O266  O     O_R   0.618213 0.272320 0.150309 -0.336315
N150  N     N_R   0.353546 0.146506 0.720839 0.140002
O267  O     O_R   0.337514 0.139804 0.742540 -0.325248
O268  O     O_R   0.380905 0.142132 0.722482 -0.326484
N151  N     N_R   0.645769 0.720476 0.854328 0.142727
O269  O     O_R   0.637269 0.741712 0.838579 -0.323408
O270  O     O_R   0.642723 0.722200 0.881878 -0.327478
N152  N     N_R   0.353629 0.853817 0.278077 0.147776
O271  O     O_R   0.368409 0.838591 0.260194 -0.333559
O272  O     O_R   0.350481 0.880781 0.272228 -0.332967
N153  N     N_R   0.280641 0.144503 0.643975 0.145334
O273  O     O_R   0.260950 0.131751 0.658850 -0.329356
O274  O     O_R   0.278426 0.144168 0.616285 -0.333079
N154  N     N_R   0.144904 0.719461 0.355172 0.142156
O275  O     O_R   0.136045 0.740789 0.339733 -0.325256
O276  O     O_R   0.142116 0.720897 0.382772 -0.329084
N155  N     N_R   0.719400 0.856439 0.644050 0.148405
O277  O     O_R   0.736997 0.842416 0.627791 -0.332363
O278  O     O_R   0.723669 0.883725 0.646843 -0.333293
N156  N     N_R   0.854799 0.280227 0.354463 0.141018
O279  O     O_R   0.838905 0.259038 0.362871 -0.331773
O280  O     O_R   0.882308 0.278256 0.357577 -0.330712
N157  N     N_R   0.722138 0.147701 0.352059 0.140916
O281  O     O_R   0.742841 0.140548 0.334944 -0.328661
O282  O     O_R   0.725879 0.144879 0.379427 -0.331681
N158  N     N_R   0.854083 0.720970 0.646214 0.143710
O283  O     O_R   0.838132 0.741366 0.636171 -0.329891
O284  O     O_R   0.881657 0.723829 0.644702 -0.329614
N159  N     N_R   0.278998 0.854050 0.353919 0.144182
O285  O     O_R   0.259453 0.838309 0.365852 -0.331133
O286  O     O_R   0.275207 0.881554 0.353700 -0.333664
N160  N     N_R   0.146343 0.279325 0.646070 0.141102
O287  O     O_R   0.139140 0.257778 0.662092 -0.323579
O288  O     O_R   0.142060 0.277764 0.618715 -0.333735
C673  C     C_2   0.438516 0.138222 0.285064 0.425086
H97   H     H_    0.452915 0.120375 0.288255 0.084655
O289  O     O_2   0.417503 0.135269 0.269976 -0.490367
C674  C     C_2   0.717993 0.859726 0.435679 0.435317
H98   H     H_    0.740596 0.860549 0.430667 0.077480
O290  O     O_2   0.704347 0.881881 0.436614 -0.491542
C675  C     C_2   0.568994 0.144129 0.723429 0.422225
H99   H     H_    0.570763 0.143617 0.746537 0.053857
O291  O     O_2   0.571741 0.121946 0.710086 -0.450493
C676  C     C_2   0.283918 0.860228 0.563290 0.435089
H100  H     H_    0.261308 0.862235 0.567882 0.075659
O292  O     O_2   0.298642 0.881675 0.561993 -0.490526
C677  C     C_2   0.434651 0.858871 0.719978 0.421322
H101  H     H_    0.450106 0.875910 0.722888 0.080852
O293  O     O_2   0.411185 0.860939 0.731093 -0.497589
C678  C     C_2   0.731728 0.159374 0.582718 0.417811
H102  H     H_    0.745503 0.144009 0.572199 0.073124
O294  O     O_2   0.734348 0.163260 0.608349 -0.483100
C679  C     C_2   0.567698 0.856895 0.279588 0.424983
H103  H     H_    0.554061 0.875593 0.279138 0.084423
O295  O     O_2   0.590120 0.857043 0.266309 -0.495359
C680  C     C_2   0.274060 0.149071 0.426022 0.431325
H104  H     H_    0.253268 0.152882 0.416582 0.078251
O296  O     O_2   0.282837 0.124665 0.428357 -0.483924
C681  C     C_2   0.850593 0.271783 0.574189 0.413430
H105  H     H_    0.866899 0.262232 0.560546 0.077701
O297  O     O_2   0.849840 0.265225 0.599433 -0.507507
C682  C     C_2   0.142422 0.433056 0.279766 0.436119
H106  H     H_    0.142669 0.426535 0.257543 0.078467
O298  O     O_2   0.119659 0.434936 0.292312 -0.485235
C683  C     C_2   0.855849 0.721768 0.431134 0.426228
H107  H     H_    0.874413 0.722573 0.444944 0.083864
O299  O     O_2   0.856083 0.734840 0.408589 -0.495782
C684  C     C_2   0.137261 0.560046 0.711997 0.441292
H108  H     H_    0.132119 0.559380 0.734602 0.074497
O300  O     O_2   0.118070 0.563387 0.694705 -0.468736
C685  C     C_2   0.136813 0.711411 0.560166 0.417224
H109  H     H_    0.130834 0.733686 0.558040 0.065435
O301  O     O_2   0.118265 0.693715 0.564778 -0.471672
C686  C     C_2   0.857198 0.567330 0.279403 0.436490
H110  H     H_    0.857068 0.573560 0.257085 0.079492
O302  O     O_2   0.879880 0.565809 0.292110 -0.485344
C687  C     C_2   0.141420 0.280924 0.434362 0.423360
H111  H     H_    0.123176 0.281001 0.448649 0.083910
O303  O     O_2   0.140182 0.267580 0.412034 -0.496081
C688  C     C_2   0.860980 0.437784 0.713992 0.435057
H112  H     H_    0.864548 0.434748 0.736686 0.069372
O304  O     O_2   0.881394 0.438329 0.697808 -0.481809
C689  C     C_2   0.720636 0.568726 0.143157 0.420257
H113  H     H_    0.715148 0.561942 0.121462 0.107613
O305  O     O_2   0.739661 0.586293 0.147021 -0.500250
C690  C     C_2   0.565602 0.280969 0.858572 0.433756
H114  H     H_    0.571445 0.258570 0.858865 0.070647
O306  O     O_2   0.564152 0.294071 0.881036 -0.484766
C691  C     C_2   0.278688 0.431980 0.143546 0.425385
H115  H     H_    0.278298 0.445928 0.125047 0.083511
O307  O     O_2   0.265329 0.409631 0.143025 -0.495941
C692  C     C_2   0.429696 0.722735 0.854481 0.434030
H116  H     H_    0.422255 0.744631 0.853530 0.078868
O308  O     O_2   0.431773 0.710855 0.877586 -0.484056
C693  C     C_2   0.277237 0.568776 0.855797 0.421821
H117  H     H_    0.274923 0.554383 0.873828 0.081348
O309  O     O_2   0.265199 0.591855 0.856304 -0.499769
C694  C     C_2   0.428119 0.275444 0.146994 0.432778
H118  H     H_    0.419972 0.253890 0.149260 0.078431
O310  O     O_2   0.430158 0.285999 0.123248 -0.483631
C695  C     C_2   0.720105 0.432301 0.857273 0.424621
H119  H     H_    0.743043 0.429461 0.858891 0.056317
O311  O     O_2   0.705542 0.430902 0.878840 -0.453696
C696  C     C_2   0.571202 0.723064 0.145670 0.412301
H120  H     H_    0.578782 0.744855 0.147610 0.060699
O312  O     O_2   0.569519 0.712175 0.122069 -0.468687
C697  C     C_2   0.935716 0.640387 0.282516 0.426278
H121  H     H_    0.949715 0.622067 0.284588 0.084094
O313  O     O_2   0.914297 0.638607 0.267817 -0.490902
C698  C     C_2   0.717926 0.358754 0.934296 0.427317
H122  H     H_    0.740838 0.360881 0.931622 0.062638
O314  O     O_2   0.702932 0.379989 0.932817 -0.459811
C699  C     C_2   0.077582 0.653065 0.730977 0.404065
H123  H     H_    0.084929 0.658646 0.752214 0.056233
O315  O     O_2   0.077898 0.628119 0.723563 -0.463953
C700  C     C_2   0.279480 0.357092 0.067311 0.434818
H124  H     H_    0.256993 0.357124 0.072873 0.077450
O316  O     O_2   0.292476 0.379648 0.066468 -0.489056
C701  C     C_2   0.931587 0.356346 0.722441 0.418277
H125  H     H_    0.945620 0.374281 0.726787 0.082096
O317  O     O_2   0.907749 0.355943 0.732931 -0.504445
C702  C     C_2   0.724000 0.645603 0.071079 0.418000
H126  H     H_    0.744649 0.649853 0.080802 0.074752
O318  O     O_2   0.715948 0.620960 0.068359 -0.478311
C703  C     C_2   0.063627 0.360216 0.282948 0.425173
H127  H     H_    0.049474 0.378467 0.284542 0.084562
O319  O     O_2   0.085340 0.361985 0.268648 -0.491939
C704  C     C_2   0.283047 0.640460 0.935862 0.432723
H128  H     H_    0.260291 0.638300 0.932155 0.076585
O320  O     O_2   0.298019 0.619158 0.936017 -0.493254
C705  C     C_2   0.357101 0.279498 0.067323 0.427687
H129  H     H_    0.375854 0.279660 0.053713 0.085439
O321  O     O_2   0.357356 0.265668 0.089410 -0.491716
C706  C     C_2   0.645351 0.929770 0.277182 0.433209
H130  H     H_    0.647425 0.921989 0.255465 0.077260
O322  O     O_2   0.621687 0.931628 0.287932 -0.486874
C707  C     C_2   0.357011 0.721580 0.932544 0.426376
H131  H     H_    0.374837 0.724073 0.947149 0.082636
O323  O     O_2   0.357759 0.733504 0.909384 -0.494505
C708  C     C_2   0.644066 0.068800 0.721429 0.424928
H132  H     H_    0.643528 0.073250 0.744169 0.057608
O324  O     O_2   0.621912 0.069369 0.707753 -0.454594
C709  C     C_2   0.634748 0.707203 0.056069 0.442454
H133  H     H_    0.628141 0.729341 0.054113 0.067312
O325  O     O_2   0.616595 0.688833 0.059541 -0.465299
C710  C     C_2   0.358064 0.066374 0.280323 0.436552
H134  H     H_    0.358539 0.072408 0.257957 0.078352
O326  O     O_2   0.380422 0.064588 0.293558 -0.483588
C711  C     C_2   0.642367 0.279251 0.933312 0.421195
H135  H     H_    0.624624 0.277267 0.948122 0.084277
O327  O     O_2   0.641085 0.267374 0.910173 -0.505242
C712  C     C_2   0.360539 0.937087 0.715689 0.437304
H136  H     H_    0.362746 0.932799 0.738349 0.077788
O328  O     O_2   0.381869 0.938170 0.700752 -0.489563
C713  C     C_2   0.728302 0.076062 0.651314 0.405076
H137  H     H_    0.736532 0.063437 0.633723 0.070925
O329  O     O_2   0.735938 0.100832 0.653809 -0.483258
C714  C     C_2   0.064713 0.281606 0.359365 0.436221
H138  H     H_    0.070045 0.259087 0.359981 0.077497
O330  O     O_2   0.063525 0.295021 0.381658 -0.489304
C715  C     C_2   0.280132 0.934671 0.641069 0.420260
H139  H     H_    0.277475 0.949952 0.623819 0.080845
O331  O     O_2   0.268818 0.911297 0.639225 -0.499127
C716  C     C_2   0.932086 0.721028 0.356734 0.434394
H140  H     H_    0.925990 0.743351 0.356028 0.077764
O332  O     O_2   0.933009 0.708757 0.379709 -0.489660
C717  C     C_2   0.277543 0.069706 0.355036 0.427437
H141  H     H_    0.275623 0.056423 0.373927 0.084880
O333  O     O_2   0.265022 0.092516 0.354093 -0.492767
C718  C     C_2   0.940194 0.287799 0.637279 0.429029
H142  H     H_    0.938230 0.265094 0.633170 0.071892
O334  O     O_2   0.939821 0.304442 0.617235 -0.492652
C719  C     C_2   0.718703 0.934442 0.358731 0.422869
H143  H     H_    0.718002 0.948683 0.376971 0.081844
O335  O     O_2   0.732431 0.912369 0.360220 -0.495698
C720  C     C_2   0.060576 0.708246 0.638033 0.433880
H144  H     H_    0.058049 0.729845 0.630072 0.062599
O336  O     O_2   0.064622 0.688898 0.621083 -0.461900
C721  C     C_2   0.944013 0.134922 0.793564 0.429491
H145  H     H_    0.947881 0.127277 0.772038 0.071494
O337  O     O_2   0.938741 0.117661 0.812362 -0.472718
C722  C     C_2   0.216936 0.859408 0.935596 0.436317
H146  H     H_    0.239550 0.861119 0.930891 0.077837
O338  O     O_2   0.202455 0.881022 0.936658 -0.490289
C723  C     C_2   0.066938 0.142513 0.219989 0.427573
H147  H     H_    0.053251 0.123836 0.220195 0.084985
O339  O     O_2   0.089229 0.142237 0.233448 -0.490929
C724  C     C_2   0.781432 0.858939 0.065354 0.429445
H148  H     H_    0.758295 0.860864 0.068635 0.071558
O340  O     O_2   0.796390 0.880477 0.065868 -0.491677
C725  C     C_2   0.925179 0.849776 0.227566 0.423860
H149  H     H_    0.937678 0.868693 0.233058 0.083336
O341  O     O_2   0.901357 0.846577 0.237946 -0.498528
C726  C     C_2   0.219119 0.141255 0.065510 0.436456
H150  H     H_    0.241662 0.141038 0.070807 0.077441
O342  O     O_2   0.206002 0.118771 0.064698 -0.490412
C727  C     C_2   0.066342 0.858032 0.779279 0.421093
H151  H     H_    0.051322 0.875461 0.776456 0.082572
O343  O     O_2   0.089739 0.859431 0.767905 -0.500412
C728  C     C_2   0.778491 0.143676 0.931421 0.418609
H152  H     H_    0.755791 0.143995 0.926787 0.060237
O344  O     O_2   0.791344 0.121047 0.930660 -0.460474
C729  C     C_2   0.856050 0.778080 0.068688 0.421120
H153  H     H_    0.875447 0.778428 0.055736 0.085453
O345  O     O_2   0.855322 0.763869 0.090652 -0.497276
C730  C     C_2   0.141062 0.935013 0.782389 0.436173
H154  H     H_    0.139745 0.929818 0.759858 0.076816
O346  O     O_2   0.119198 0.936407 0.796503 -0.488227
C731  C     C_2   0.855175 0.222295 0.930210 0.407689
H155  H     H_    0.873113 0.226751 0.944153 0.070176
O347  O     O_2   0.854933 0.232241 0.906122 -0.477108
C732  C     C_2   0.146864 0.071777 0.224243 0.433740
H156  H     H_    0.149747 0.080587 0.245460 0.078280
O348  O     O_2   0.122828 0.069403 0.214502 -0.483111
C733  C     C_2   0.139050 0.215920 0.062706 0.424776
H157  H     H_    0.120867 0.213201 0.048635 0.083972
O349  O     O_2   0.136782 0.230828 0.083935 -0.491656
C734  C     C_2   0.857125 0.067902 0.778976 0.417783
H158  H     H_    0.858403 0.071580 0.756135 0.058354
O350  O     O_2   0.878957 0.068288 0.793165 -0.461407
C735  C     C_2   0.141628 0.779467 0.934114 0.421170
H159  H     H_    0.124368 0.776725 0.949380 0.081572
O351  O     O_2   0.139875 0.768116 0.910746 -0.499940
C736  C     C_2   0.851331 0.926411 0.226024 0.425689
H160  H     H_    0.848239 0.917521 0.247423 0.077387
O352  O     O_2   0.875504 0.928576 0.216153 -0.487309
C737  C     C_2   0.220156 0.067036 0.142512 0.425037
H161  H     H_    0.220308 0.052893 0.124183 0.083826
O353  O     O_2   0.233460 0.089404 0.141513 -0.495642
C738  C     C_2   0.063635 0.783522 0.859971 0.436434
H162  H     H_    0.068039 0.760884 0.861973 0.073439
O354  O     O_2   0.062629 0.798251 0.881426 -0.488930
C739  C     C_2   0.774527 0.928167 0.147070 0.420430
H163  H     H_    0.771178 0.941950 0.128490 0.081327
O355  O     O_2   0.762799 0.904791 0.148081 -0.501722
C740  C     C_2   0.922065 0.228190 0.846760 0.419651
H164  H     H_    0.933454 0.241124 0.862242 0.074241
O356  O     O_2   0.896304 0.231159 0.844286 -0.478636
C741  C     C_2   0.780495 0.067668 0.857165 0.430280
H165  H     H_    0.757596 0.070528 0.859123 0.055184
O357  O     O_2   0.795310 0.068780 0.878554 -0.451316
C742  C     C_2   0.932988 0.780119 0.142399 0.428804
H166  H     H_    0.927984 0.757296 0.141247 0.078239
O358  O     O_2   0.933860 0.794352 0.120387 -0.490188
C743  C     C_2   0.221010 0.933294 0.857774 0.422459
H167  H     H_    0.224194 0.948440 0.875035 0.080574
O359  O     O_2   0.232119 0.909803 0.859302 -0.497986
C744  C     C_2   0.066448 0.219721 0.141902 0.436009
H168  H     H_    0.072815 0.241980 0.141877 0.078162
O360  O     O_2   0.064600 0.206953 0.119277 -0.485642
C745  C     C_2   0.427163 0.648155 0.773769 0.425856
H169  H     H_    0.440643 0.629903 0.769111 0.081639
O361  O     O_2   0.403493 0.649569 0.763001 -0.497466
C746  C     C_2   0.221366 0.356144 0.431374 0.433542
H170  H     H_    0.243382 0.355003 0.424259 0.078057
O362  O     O_2   0.209692 0.379352 0.433137 -0.488503
C747  C     C_2   0.564459 0.640270 0.217438 0.419606
H171  H     H_    0.549342 0.622706 0.216369 0.082844
O363  O     O_2   0.586487 0.637410 0.231030 -0.497946
C748  C     C_2   0.789981 0.362192 0.560436 0.437927
H172  H     H_    0.767717 0.368583 0.559281 0.066468
O364  O     O_2   0.808321 0.380387 0.563493 -0.465026
C749  C     C_2   0.428970 0.353681 0.224053 0.427098
H173  H     H_    0.442431 0.372391 0.226271 0.083231
O365  O     O_2   0.406074 0.352838 0.236470 -0.495380
C750  C     C_2   0.227851 0.653110 0.578071 0.414287
H174  H     H_    0.239607 0.636914 0.566410 0.072051
O366  O     O_2   0.231795 0.655695 0.603693 -0.476552
C751  C     C_2   0.566087 0.358217 0.780518 0.425379
H175  H     H_    0.552251 0.376778 0.780562 0.086171
O367  O     O_2   0.588249 0.358770 0.766820 -0.498962
C752  C     C_2   0.774698 0.647853 0.427306 0.433735
H176  H     H_    0.753430 0.650976 0.418708 0.077807
O368  O     O_2   0.784309 0.623738 0.429331 -0.481944
C753  C     C_2   0.358626 0.779840 0.565681 0.423013
H177  H     H_    0.375769 0.776802 0.550344 0.080038
O369  O     O_2   0.360466 0.768783 0.589198 -0.495032
C754  C     C_2   0.646234 0.428793 0.776151 0.431202
H178  H     H_    0.648006 0.421367 0.754287 0.066103
O370  O     O_2   0.622720 0.430559 0.787241 -0.474836
C755  C     C_2   0.355762 0.222252 0.430963 0.424310
H179  H     H_    0.374007 0.223927 0.445118 0.082743
O371  O     O_2   0.356210 0.234602 0.408017 -0.498393
C756  C     C_2   0.633834 0.555153 0.209008 0.435041
H180  H     H_    0.628481 0.554961 0.231795 0.075100
O372  O     O_2   0.614682 0.556932 0.191326 -0.494497
C757  C     C_2   0.637961 0.212063 0.561477 0.420209
H181  H     H_    0.631544 0.234211 0.559287 0.064837
O373  O     O_2   0.619780 0.193976 0.566017 -0.467066
C758  C     C_2   0.354053 0.570690 0.777036 0.430335
H182  H     H_    0.352746 0.577564 0.754949 0.077981
O374  O     O_2   0.377293 0.569547 0.788736 -0.490944
C759  C     C_2   0.639336 0.783532 0.436982 0.425557
H183  H     H_    0.620985 0.785897 0.450926 0.084876
O375  O     O_2   0.637476 0.768740 0.415634 -0.490894
C760  C     C_2   0.353221 0.428443 0.224178 0.431538
H184  H     H_    0.351026 0.421008 0.246015 0.078064
O376  O     O_2   0.376897 0.429717 0.213364 -0.488593
C761  C     C_2   0.227760 0.577218 0.652335 0.409764
H185  H     H_    0.239560 0.565590 0.636113 0.072112
O377  O     O_2   0.231825 0.602801 0.655012 -0.477373
C762  C     C_2   0.568015 0.778676 0.356695 0.435447
H186  H     H_    0.575270 0.756714 0.355801 0.077785
O378  O     O_2   0.565792 0.790482 0.379807 -0.483226
C763  C     C_2   0.777943 0.431991 0.642852 0.415119
H187  H     H_    0.754918 0.429314 0.642691 0.053479
O379  O     O_2   0.791092 0.429881 0.620459 -0.461372
C764  C     C_2   0.434881 0.218666 0.359122 0.435424
H188  H     H_    0.429911 0.241272 0.359568 0.076843
O380  O     O_2   0.435422 0.205296 0.381487 -0.491681
C765  C     C_2   0.778803 0.568158 0.356383 0.429392
H189  H     H_    0.778318 0.554744 0.375269 0.085481
O381  O     O_2   0.765359 0.590455 0.356144 -0.490214
C766  C     C_2   0.436493 0.783836 0.639883 0.436234
H190  H     H_    0.431864 0.761238 0.637950 0.078991
O382  O     O_2   0.437748 0.798502 0.618374 -0.490887
C767  C     C_2   0.220281 0.432562 0.357170 0.424689
H191  H     H_    0.221044 0.446341 0.375762 0.083169
O383  O     O_2   0.233279 0.410003 0.357399 -0.494878
C768  C     C_2   0.562750 0.212923 0.639050 0.430460
H192  H     H_    0.561914 0.235346 0.633332 0.058906
O384  O     O_2   0.566174 0.195197 0.620280 -0.458350

loop_
_geom_bond_atom_site_label_1
_geom_bond_atom_site_label_2
_geom_bond_distance
_ccdc_geom_bond_type
O12   C65   1.288410 A    
O176  Cu44  1.962228 S    
O79   C73   1.289109 A    
C745  H169  1.086250 S    
C537  C585  1.208066 T    
C322  C503  1.393368 A    
C8    C392  1.503934 S    
C650  N42   1.353690 A    
C332  C481  1.394317 A    
N13   C655  1.351061 A    
C339  C435  1.416744 A    
C727  O343  1.220746 D    
C222  C750  1.480343 S    
O85   C83   1.286783 A    
C149  C245  1.398631 A    
C19   C235  1.432500 A    
C217  C745  1.479044 S    
N6    C641  1.355192 A    
C223  C319  1.397008 A    
O7    C61   1.285273 A    
C270  C510  1.396824 A    
C295  C523  1.395153 A    
C416  N51   1.360682 A    
C36   C208  1.435502 A    
C249  C489  1.397626 A    
C271  C511  1.394613 A    
N155  O277  1.301300 A    
O21   C64   1.287327 A    
C533  C581  1.210946 T    
C472  N152  1.458483 S    
C189  C717  1.477128 S    
O53   C84   1.290963 A    
H7    C247  1.084856 S    
O132  Cu5   1.962455 S    
O94   Cu48  1.958940 S    
C86   C532  1.438875 S    
O107  C119  1.289522 A    
C152  C248  1.396154 A    
O97   Cu1   1.961649 S    
C661  N89   1.351610 A    
C407  N98   1.359469 A    
Cu8   Cu21  2.643407 S    
C365  C453  1.423882 A    
C696  O312  1.221059 D    
C153  C681  1.481203 S    
C747  H171  1.087616 S    
C706  H130  1.085585 S    
O10   Cu10  1.959892 S    
C246  C486  1.396096 A    
C765  O381  1.221018 D    
C651  N43   1.352733 A    
C639  N74   1.353102 A    
C698  H122  1.085743 S    
C272  C512  1.393106 A    
O156  C125  1.292484 A    
N139  O245  1.300377 A    
C200  C728  1.478743 S    
C461  N141  1.464826 S    
C755  O371  1.221025 D    
N10   C661  1.355491 A    
C337  C462  1.422532 A    
C323  C488  1.394094 A    
H67   C307  1.086249 S    
O154  Cu25  1.961467 S    
C92   C538  1.444062 S    
C746  O362  1.221128 D    
O13   C70   1.286548 A    
O41   C50   1.286582 A    
C756  H180  1.096674 S    
O33   C60   1.290418 A    
C155  C683  1.477437 S    
C137  C483  1.473704 S    
O71   Cu30  1.960000 S    
O72   Cu34  1.960590 S    
C364  C451  1.414605 A    
O98   C114  1.289578 A    
O124  Cu21  1.960798 S    
C309  C527  1.394479 A    
C704  H128  1.085623 S    
H73   C313  1.084805 S    
C341  C437  1.420221 A    
C199  C727  1.478499 S    
C221  C749  1.477853 S    
N127  O221  1.300861 A    
O67   C80   1.288481 A    
O86   C82   1.288623 A    
H77   C317  1.084860 S    
O18   C69   1.287892 A    
C560  C608  1.210712 T    
C672  N108  1.352064 A    
C241  C481  1.395053 A    
C128  C500  1.469765 S    
O68   C85   1.287232 A    
N124  O215  1.302447 A    
C449  N129  1.447126 S    
C273  C508  1.394033 A    
O51   C88   1.289328 A    
C451  N131  1.443558 S    
C360  C443  1.418227 A    
C43   C427  1.506119 S    
O52   C93   1.285581 A    
C645  N37   1.352603 A    
C374  C479  1.418371 A    
C214  C310  1.396877 A    
C741  H165  1.085643 S    
N120  O208  1.301915 A    
C724  H148  1.099075 S    
C374  C624  1.452859 S    
C18   C234  1.432811 A    
O142  Cu15  1.960726 S    
O75   Cu39  1.960463 S    
C321  C484  1.395436 A    
C652  N45   1.352121 A    
C22   C238  1.434379 A    
C729  H153  1.092872 S    
C223  C751  1.476795 S    
C411  N43   1.360621 A    
O13   Cu13  1.960689 S    
C721  O337  1.220890 D    
O54   C95   1.288780 A    
C290  C518  1.392470 A    
O149  Cu29  1.960409 S    
C26   C194  1.434443 A    
H58   C298  1.084687 S    
C291  C519  1.394189 A    
O20   Cu20  1.960185 S    
C239  C335  1.397164 A    
N11   C637  1.357047 A    
N123  O214  1.301290 A    
C716  H140  1.085657 S    
C632  N65   1.351173 A    
O38   C55   1.290190 A    
C292  C520  1.397599 A    
C320  C491  1.393993 A    
C38   C422  1.504272 S    
C378  C480  1.413767 A    
C310  C521  1.396590 A    
C428  N72   1.358280 A    
N117  O202  1.304359 A    
C373  C473  1.418993 A    
N142  O251  1.300671 A    
O144  Cu11  1.962681 S    
H54   C294  1.084786 S    
C67   C570  1.437196 S    
N9    C664  1.355523 A    
H55   C295  1.084674 S    
C263  C503  1.395098 A    
H42   C282  1.084732 S    
C105  C516  1.474434 S    
C186  C714  1.478747 S    
C11   C395  1.505261 S    
C358  C473  1.419652 A    
C181  C709  1.482231 S    
H12   C252  1.084628 S    
C219  C315  1.400443 A    
O136  Cu3   1.960294 S    
C357  C584  1.456398 S    
O38   Cu7   1.959657 S    
O42   Cu9   1.960300 S    
C384  C614  1.452922 S    
C16   C232  1.433276 A    
O111  C117  1.289292 A    
C11   C227  1.433657 A    
C167  C695  1.479324 S    
C16   C163  1.433277 A    
C39   C171  1.431430 A    
C754  H178  1.085442 S    
H66   C306  1.084647 S    
N138  O244  1.307714 A    
C553  C601  1.208266 T    
C148  C244  1.397579 A    
H39   C279  1.084695 S    
C479  N159  1.452082 S    
C46   C185  1.431430 A    
C364  C448  1.415023 A    
O52   Cu28  1.958490 S    
O129  C108  1.290131 A    
Cu32  Cu40  2.643407 S    
C203  C299  1.398101 A    
H74   C314  1.084833 S    
H47   C287  1.084852 S    
N9    C646  1.356845 A    
N134  O236  1.301287 A    
H78   C318  1.084601 S    
C639  N31   1.352508 A    
C401  N100  1.362279 A    
C640  N32   1.352256 A    
C708  O324  1.221040 D    
N5    C629  1.355133 A    
C353  C582  1.454201 S    
O60   C77   1.289351 A    
C341  C592  1.454359 S    
C681  O297  1.222468 D    
C183  C711  1.478144 S    
C664  N93   1.352502 A    
C187  C283  1.398516 A    
O178  Cu37  1.961467 S    
N147  O262  1.302557 A    
C669  N112  1.353583 A    
C723  O339  1.221004 D    
C38   C170  1.432426 A    
C435  N115  1.445520 S    
C258  C498  1.393876 A    
O151  C134  1.289893 A    
C125  C489  1.475434 S    
N155  O278  1.301744 A    
O128  C100  1.292451 A    
O93   Cu40  1.960237 S    
O114  Cu18  1.962268 S    
C417  N63   1.361151 A    
C381  C618  1.451288 S    
O75   C77   1.288217 A    
C725  H149  1.093963 S    
C49   C556  1.438452 S    
N116  O200  1.301918 A    
O116  Cu20  1.961852 S    
O106  Cu10  1.961467 S    
C343  C586  1.456141 S    
C41   C425  1.505882 S    
C36   C211  1.435681 A    
N15   C651  1.355872 A    
O19   Cu19  1.958809 S    
C185  C713  1.479858 S    
C375  C622  1.454832 S    
C670  N106  1.353045 A    
C649  N41   1.351158 A    
C218  C314  1.396787 A    
C146  C674  1.478954 S    
C190  C286  1.398773 A    
C37   C188  1.433088 A    
C260  C500  1.392470 A    
C719  H143  1.085542 S    
C146  C242  1.397491 A    
C351  C468  1.422136 A    
C423  N67   1.364483 A    
C122  C498  1.471953 S    
C129  C499  1.470311 S    
O91   Cu44  1.958809 S    
C717  O333  1.221031 D    
O3    Cu3   1.960463 S    
H15   C255  1.084822 S    
C649  N48   1.356032 A    
O192  C140  1.288998 A    
C377  C457  1.419166 A    
C426  N77   1.359804 A    
C165  C693  1.478460 S    
C415  N47   1.360831 A    
C197  C293  1.396557 A    
C416  N48   1.360687 A    
O169  Cu37  1.961649 S    
H82   C322  1.084852 S    
C710  O326  1.221113 D    
O131  Cu24  1.962176 S    
C9    C393  1.508087 S    
C371  C448  1.416508 A    
C232  C328  1.395430 A    
C156  C684  1.480907 S    
O22   Cu22  1.958940 S    
C645  N84   1.353059 A    
C370  C456  1.414656 A    
O173  C123  1.291857 A    
C408  N40   1.358485 A    
C100  C509  1.474879 S    
C220  C316  1.398721 A    
C745  O361  1.221069 D    
C14   C230  1.434162 A    
C641  N33   1.352081 A    
C88   C536  1.443656 S    
C738  O354  1.221050 D    
H70   C310  1.086942 S    
O50   C89   1.286550 A    
N160  O288  1.299684 A    
C77   C543  1.441792 S    
C543  C591  1.210433 T    
C181  C277  1.403009 A    
C6    C222  1.429897 A    
C169  C697  1.476215 S    
C695  H119  1.086209 S    
C556  C604  1.208891 T    
C306  C523  1.392894 A    
N146  O260  1.301629 A    
O96   C92   1.288486 A    
C188  C284  1.395999 A    
C726  H150  1.085708 S    
H10   C250  1.084792 S    
O160  Cu27  1.960294 S    
C380  C459  1.424305 A    
H86   C326  1.084810 S    
H72   C312  1.084766 S    
O141  C100  1.289147 A    
C654  N55   1.351697 A    
N151  O269  1.301793 A    
O149  C132  1.290882 A    
O118  C120  1.291044 A    
C715  O331  1.220645 D    
C330  C487  1.394559 A    
C337  C433  1.417968 A    
C395  N27   1.360206 A    
N125  O217  1.311282 A    
C402  N95   1.360981 A    
C279  C506  1.394560 A    
C211  C307  1.397486 A    
O91   C93   1.289728 A    
N160  O287  1.302650 A    
C170  C266  1.397776 A    
O23   Cu23  1.960000 S    
O48   Cu11  1.960590 S    
C133  C497  1.478670 S    
C82   C534  1.440385 S    
C174  C270  1.398007 A    
O153  Cu33  1.960929 S    
C56   C559  1.438654 S    
C43   C175  1.432398 A    
O166  C135  1.290625 A    
C730  O346  1.221087 D    
O21   Cu21  1.960237 S    
N143  O253  1.301403 A    
C767  O383  1.220984 D    
O40   Cu3   1.958419 S    
C397  N94   1.362930 A    
C382  C620  1.453314 S    
C701  H125  1.087053 S    
C635  N78   1.352187 A    
O16   Cu16  1.958419 S    
C187  C715  1.478474 S    
N113  O193  1.301803 A    
C746  H170  1.085621 S    
C420  N59   1.361084 A    
C744  O360  1.221079 D    
C353  C478  1.416223 A    
C264  C504  1.395246 A    
C151  C679  1.476727 S    
H83   C323  1.084866 S    
C627  N70   1.358471 A    
O8    Cu8   1.960122 S    
C763  O379  1.220575 D    
N135  O237  1.300777 A    
O81   C87   1.288977 A    
C372  C602  1.452403 S    
C151  C247  1.397370 A    
N149  O265  1.308822 A    
O88   Cu39  1.958419 S    
H61   C301  1.084770 S    
Cu35  Cu46  2.640853 S    
O24   C70   1.287724 A    
C686  O302  1.221117 D    
O3    C65   1.288535 A    
H49   C289  1.084523 S    
C18   C402  1.505987 S    
N16   C652  1.355580 A    
C759  H183  1.085586 S    
C159  C255  1.397468 A    
O154  C121  1.288957 A    
C741  O357  1.220930 D    
N120  O207  1.301496 A    
C42   C426  1.504270 S    
C286  C509  1.393778 A    
C26   C410  1.505818 S    
C19   C160  1.434493 A    
C253  C493  1.397636 A    
C729  O345  1.226129 D    
O99   C113  1.289298 A    
C30   C414  1.504866 S    
O48   C58   1.288205 A    
C1    C217  1.433398 A    
C40   C424  1.504142 S    
C365  C601  1.451633 S    
C111  C522  1.472185 S    
H5    C245  1.084624 S    
C216  C744  1.477885 S    
C571  C619  1.210647 T    
N113  O194  1.302021 A    
C220  C748  1.483364 S    
C346  C469  1.424680 A    
O43   C56   1.289405 A    
N1    C625  1.355600 A    
C726  O342  1.221061 D    
C177  C273  1.396475 A    
C196  C292  1.397067 A    
H29   C269  1.084558 S    
C227  C755  1.477868 S    
C21   C405  1.504666 S    
H17   C257  1.088037 S    
C376  C621  1.452584 S    
C460  N140  1.445005 S    
C28   C412  1.502760 S    
C227  C323  1.397537 A    
C334  C485  1.392960 A    
O160  C123  1.291692 A    
C102  C507  1.474209 S    
H68   C308  1.084589 S    
C165  C261  1.397267 A    
O175  C121  1.289961 A    
N2    C647  1.355843 A    
C548  C596  1.208461 T    
C657  N64   1.352527 A    
H51   C291  1.084830 S    
O43   Cu8   1.958809 S    
O124  C104  1.289776 A    
C319  C498  1.394358 A    
C150  C678  1.481612 S    
C180  C276  1.396197 A    
C351  C444  1.420607 A    
C740  O356  1.221219 D    
C679  H103  1.085474 S    
C636  N28   1.352941 A    
C637  N29   1.353024 A    
N138  O243  1.307531 A    
C391  N106  1.359492 A    
C371  C455  1.419125 A    
C683  O299  1.221002 D    
C24   C147  1.431915 A    
C89   C533  1.443329 S    
O28   Cu21  1.958490 S    
C630  N22   1.355706 A    
C115  C518  1.472426 S    
O103  C109  1.290905 A    
C668  N100  1.356514 A    
O113  Cu17  1.962471 S    
O133  Cu20  1.962582 S    
N11   C663  1.357091 A    
N134  O235  1.301345 A    
C208  C304  1.395883 A    
C379  C617  1.455504 S    
C708  H132  1.086205 S    
C168  C696  1.477625 S    
C734  O350  1.221040 D    
O105  Cu9   1.960929 S    
O74   Cu38  1.959559 S    
C193  C721  1.482382 S    
C408  N91   1.362958 A    
O161  C122  1.289400 A    
O180  C136  1.291763 A    
O16   C63   1.286628 A    
H6    C246  1.084574 S    
C737  H161  1.085541 S    
C238  C766  1.478771 S    
C109  C524  1.474117 S    
C539  C587  1.209936 T    
C352  C581  1.457502 S    
O108  Cu12  1.962455 S    
C735  H159  1.087096 S    
C627  N19   1.354468 A    
N133  O233  1.302924 A    
C343  C439  1.413364 A    
C405  N102  1.359563 A    
H44   C284  1.084798 S    
N129  O225  1.301778 A    
C215  C311  1.397832 A    
C693  H117  1.086334 S    
C399  N90   1.360619 A    
C720  H144  1.085664 S    
H79   C319  1.084813 S    
O130  C97   1.289990 A    
O40   C51   1.288776 A    
C393  N25   1.361159 A    
C725  O341  1.226772 D    
C345  C470  1.413852 A    
O2    Cu2   1.959559 S    
N116  O199  1.301652 A    
C676  O292  1.221074 D    
C397  N29   1.361598 A    
C79   C537  1.435893 S    
O57   C90   1.286178 A    
C404  N89   1.359803 A    
N4    C643  1.358134 A    
H87   C327  1.084738 S    
O174  Cu42  1.962465 S    
C427  N71   1.360584 A    
C250  C490  1.394322 A    
C65   C572  1.440503 S    
C367  C454  1.417540 A    
C354  C444  1.417028 A    
O182  Cu43  1.961859 S    
C68   C571  1.441457 S    
C261  C501  1.394594 A    
C389  N110  1.359146 A    
C476  N156  1.446884 S    
C644  N85   1.353426 A    
C467  N147  1.458626 S    
C206  C734  1.478598 S    
C355  C580  1.451962 S    
O31   C49   1.287323 A    
C466  N146  1.451986 S    
C59   C564  1.440327 S    
C544  C592  1.211183 T    
C431  N78   1.359553 A    
C423  N88   1.357984 A    
C57   C562  1.438112 S    
C557  C605  1.208599 T    
H37   C277  1.085017 S    
C433  N113  1.446288 S    
C22   C406  1.507749 S    
O37   Cu20  1.960689 S    
O135  Cu22  1.962291 S    
C213  C741  1.479456 S    
N157  O281  1.302639 A    
C237  C333  1.396547 A    
C121  C491  1.470638 S    
C33   C215  1.434241 A    
C226  C754  1.477337 S    
C710  H134  1.085561 S    
N158  O284  1.301375 A    
C228  C756  1.487724 S    
C375  C477  1.417063 A    
C2    C159  1.432961 A    
N132  O231  1.302050 A    
C660  N61   1.355513 A    
C302  C527  1.395682 A    
C702  O318  1.222392 D    
O118  Cu22  1.960726 S    
H65   C305  1.084880 S    
C45   C178  1.433355 A    
N128  O224  1.301628 A    
C166  C694  1.476819 S    
O171  C125  1.289058 A    
C738  H162  1.085532 S    
C536  C584  1.211235 T    
N13   C649  1.357980 A    
O33   Cu18  1.958736 S    
C658  N58   1.354094 A    
O44   Cu13  1.960185 S    
C28   C196  1.436189 A    
Cu4   Cu19  2.643407 S    
C464  N144  1.444555 S    
C20   C404  1.504894 S    
N146  O259  1.301195 A    
H32   C272  1.084652 S    
C175  C703  1.476079 S    
C369  C450  1.416308 A    
C680  O296  1.221182 D    
C282  C511  1.394549 A    
C415  N58   1.359473 A    
O186  C142  1.293266 A    
C161  C257  1.396917 A    
C281  C514  1.395729 A    
C644  N36   1.354223 A    
O69   Cu28  1.960237 S    
C345  C441  1.417729 A    
N131  O230  1.301130 A    
O168  Cu34  1.962681 S    
O178  C134  1.289612 A    
O110  Cu14  1.961859 S    
C119  C526  1.471750 S    
C172  C700  1.478247 S    
N125  O218  1.309466 A    
C420  N56   1.361883 A    
O187  C141  1.290199 A    
C91   C531  1.439517 S    
O161  Cu26  1.962471 S    
C61   C568  1.436583 S    
C206  C302  1.398956 A    
O119  Cu23  1.961551 S    
O179  C133  1.291027 A    
N118  O204  1.301859 A    
O61   C92   1.288727 A    
C358  C585  1.450331 S    
C475  N155  1.457224 S    
O188  C144  1.291110 A    
C730  H154  1.085501 S    
C463  N143  1.443972 S    
C214  C742  1.484157 S    
C739  O355  1.227061 D    
C363  C610  1.452470 S    
N152  O272  1.302043 A    
C350  C433  1.414164 A    
C411  N64   1.359892 A    
C58   C561  1.442287 S    
C265  C505  1.394237 A    
N119  O205  1.301404 A    
C558  C606  1.210744 T    
C81   C549  1.438219 S    
C568  C616  1.208008 T    
C7    C223  1.433019 A    
C108  C513  1.472121 S    
O82   C86   1.287335 A    
C9    C225  1.433951 A    
C701  O317  1.220563 D    
C171  C267  1.396860 A    
C363  C452  1.416014 A    
C441  N121  1.452054 S    
O147  Cu27  1.962547 S    
C672  N109  1.351269 A    
C236  C332  1.396905 A    
C33   C202  1.434276 A    
C168  C264  1.400127 A    
O159  C142  1.288742 A    
O142  C108  1.289822 A    
C22   C149  1.434001 A    
C7    C391  1.504922 S    
O119  C114  1.289715 A    
C230  C758  1.477501 S    
C40   C177  1.432783 A    
C156  C252  1.399389 A    
N10   C644  1.355873 A    
C473  N153  1.451085 S    
Cu28  Cu44  2.643407 S    
Cu13  Cu24  2.640853 S    
C405  N37   1.360229 A    
C104  C505  1.470879 S    
C718  O334  1.220827 D    
C12   C161  1.433299 A    
C732  O348  1.221125 D    
N149  O266  1.308132 A    
C656  N52   1.352542 A    
O172  Cu40  1.960798 S    
C686  H110  1.085609 S    
C344  C597  1.452994 S    
C126  C504  1.478555 S    
O18   Cu18  1.960300 S    
O103  Cu7   1.961883 S    
C4    C153  1.429336 A    
C159  C687  1.476814 S    
C432  N80   1.360455 A    
O39   C57   1.288745 A    
O191  C137  1.288324 A    
C666  N98   1.352183 A    
C689  H113  1.096198 S    
C671  N107  1.351280 A    
C18   C151  1.433637 A    
O144  C106  1.289265 A    
H13   C253  1.084613 S    
C362  C612  1.452592 S    
C734  H158  1.085551 S    
C711  O327  1.220802 D    
C707  O323  1.220894 D    
C213  C309  1.399177 A    
C203  C731  1.478283 S    
C147  C243  1.397186 A    
C636  N77   1.353662 A    
C671  N110  1.351816 A    
O35   C59   1.287895 A    
O146  C137  1.291226 A    
C21   C237  1.433093 A    
C259  C499  1.393906 A    
C702  H126  1.088585 S    
O125  C99   1.292443 A    
C469  N149  1.466419 S    
O146  Cu26  1.961991 S    
C680  H104  1.085505 S    
C349  C443  1.416736 A    
H85   C325  1.084728 S    
C633  N25   1.353429 A    
C307  C528  1.395897 A    
C84   C530  1.440774 S    
C30   C205  1.431846 A    
H60   C300  1.084863 S    
C336  C483  1.394828 A    
H64   C304  1.086445 S    
C674  O290  1.221068 D    
O184  C132  1.290809 A    
O100  C116  1.289728 A    
H26   C266  1.084657 S    
O73   Cu37  1.959867 S    
C743  H167  1.087129 S    
O138  C105  1.291795 A    
C663  N91   1.355609 A    
C210  C306  1.396875 A    
C368  C456  1.416626 A    
O35   Cu24  1.959860 S    
C13   C150  1.429565 A    
C687  H111  1.085652 S    
H30   C270  1.085803 S    
C388  N97   1.363844 A    
C30   C198  1.432679 A    
C740  H164  1.086408 S    
O179  Cu46  1.962176 S    
C145  C673  1.475857 S    
H34   C274  1.084851 S    
O10   C61   1.290010 A    
C372  C454  1.417645 A    
C357  C474  1.414650 A    
C252  C492  1.395247 A    
C343  C460  1.413813 A    
O58   C73   1.286807 A    
O132  C101  1.289692 A    
O151  Cu31  1.961883 S    
C422  N79   1.362302 A    
C157  C685  1.481375 S    
C432  N83   1.361110 A    
Cu30  Cu38  2.641414 S    
C663  N94   1.354903 A    
N141  O249  1.308133 A    
C289  C517  1.396404 A    
C216  C312  1.397133 A    
C709  H133  1.087262 S    
C240  C768  1.480350 S    
C10   C226  1.433366 A    
O87   C81   1.289145 A    
C373  C623  1.454298 S    
C224  C320  1.395619 A    
O64   Cu27  1.958419 S    
C15   C231  1.431716 A    
O53   Cu29  1.958304 S    
C131  C501  1.470700 S    
N14   C658  1.355304 A    
O140  C107  1.290035 A    
N150  O267  1.302204 A    
C737  O353  1.220974 D    
C31   C210  1.433978 A    
N159  O285  1.301958 A    
H20   C260  1.084795 S    
C347  C442  1.422202 A    
C69   C574  1.441095 S    
C440  N120  1.444883 S    
C407  N39   1.360830 A    
C101  C508  1.470790 S    
C693  O309  1.220909 D    
C9    C148  1.434325 A    
N133  O234  1.302867 A    
C757  H181  1.086201 S    
C430  N81   1.359195 A    
C692  O308  1.221183 D    
C550  C598  1.209095 T    
C8    C155  1.433638 A    
N129  O226  1.301462 A    
O126  C98   1.289680 A    
C675  O291  1.220877 D    
O25   C55   1.287236 A    
C471  N151  1.444374 S    
C142  C496  1.476615 S    
O34   C49   1.288690 A    
O45   C52   1.287691 A    
C318  C493  1.396508 A    
C691  H115  1.085709 S    
C95   C529  1.442723 S    
C135  C503  1.473003 S    
C670  N111  1.350873 A    
C676  H100  1.085494 S    
C114  C519  1.472644 S    
C628  N20   1.353990 A    
H95   C335  1.084846 S    
C359  C578  1.455949 S    
O131  C107  1.288611 A    
C167  C263  1.398772 A    
O120  Cu24  1.962681 S    
C653  N56   1.352334 A    
C154  C250  1.396905 A    
C366  C451  1.415896 A    
O137  Cu2   1.962471 S    
Cu26  Cu42  2.641414 S    
C158  C254  1.396451 A    
C296  C524  1.395179 A    
C387  N112  1.361783 A    
C278  C515  1.394274 A    
O5    C63   1.289248 A    
C368  C603  1.452672 S    
N123  O213  1.302217 A    
O104  C112  1.290001 A    
O163  C128  1.288595 A    
O182  C130  1.290090 A    
C380  C474  1.417946 A    
C344  C440  1.416500 A    
C209  C305  1.397404 A    
C11   C152  1.432732 A    
C29   C197  1.436404 A    
N140  O248  1.301390 A    
C74   C550  1.440701 S    
C248  C488  1.393983 A    
N4    C628  1.354129 A    
N6    C668  1.357843 A    
C315  C504  1.394904 A    
N157  O282  1.301114 A    
Cu1   Cu14  2.642538 S    
C361  C611  1.454220 S    
O143  Cu6   1.961551 S    
C5    C389  1.503916 S    
N158  O283  1.302172 A    
C256  C496  1.392658 A    
C351  C594  1.453365 S    
O192  Cu46  1.962681 S    
O47   Cu6   1.960000 S    
O109  Cu13  1.962582 S    
C638  N75   1.352376 A    
C722  O338  1.221087 D    
O59   C96   1.285075 A    
O101  Cu5   1.960409 S    
N115  O197  1.301651 A    
N128  O223  1.301943 A    
O127  Cu14  1.961883 S    
C201  C297  1.396202 A    
C626  N71   1.352755 A    
C388  N20   1.358388 A    
O66   C81   1.287314 A    
C389  N21   1.360284 A    
H81   C321  1.084606 S    
O148  C141  1.290322 A    
O26   C54   1.287317 A    
C70   C573  1.437322 S    
O156  Cu29  1.962455 S    
O177  Cu45  1.960929 S    
N137  O241  1.301208 A    
C170  C698  1.479772 S    
C727  H151  1.086968 S    
C360  C475  1.423190 A    
C703  H127  1.085661 S    
N154  O276  1.301551 A    
H62   C302  1.084778 S    
C761  H185  1.086856 S    
H50   C290  1.084674 S    
C478  N158  1.447546 S    
O47   C54   1.287734 A    
C4    C220  1.433320 A    
C313  C500  1.394597 A    
C225  C753  1.478680 S    
O155  Cu34  1.962176 S    
C8    C224  1.432604 A    
C736  H160  1.095134 S    
O87   Cu48  1.960277 S    
O164  Cu35  1.961852 S    
C363  C447  1.420104 A    
C27   C411  1.505684 S    
C354  C591  1.455545 S    
C538  C586  1.211441 T    
C412  N44   1.359988 A    
C254  C494  1.394035 A    
C563  C611  1.210186 T    
C386  N18   1.360574 A    
C300  C526  1.393986 A    
O121  Cu10  1.961649 S    
C561  C609  1.210435 T    
N1    C672  1.355269 A    
O58   Cu25  1.959892 S    
O97   C115  1.288482 A    
C72   C575  1.440642 S    
C338  C599  1.450784 S    
C228  C324  1.402416 A    
C123  C493  1.478956 S    
C35   C213  1.433661 A    
N118  O203  1.301243 A    
O72   C83   1.287963 A    
C444  N124  1.450568 S    
C384  C467  1.423290 A    
C393  N92   1.359761 A    
C340  C463  1.415584 A    
C437  N117  1.447162 S    
C547  C595  1.208838 T    
N152  O271  1.300855 A    
C722  H146  1.085526 S    
C192  C720  1.480046 S    
C5    C166  1.432740 A    
C764  O380  1.221082 D    
H22   C262  1.084800 S    
C381  C462  1.423313 A    
N8    C645  1.355313 A    
O159  Cu36  1.962291 S    
C731  H155  1.085605 S    
C540  C588  1.209529 T    
C195  C291  1.397083 A    
C176  C272  1.396088 A    
N114  O196  1.307879 A    
C204  C732  1.476875 S    
C166  C262  1.395641 A    
C752  O368  1.221103 D    
C703  O319  1.220904 D    
C25   C212  1.429029 A    
C160  C688  1.478760 S    
N150  O268  1.301185 A    
N16   C653  1.356099 A    
C659  N62   1.352321 A    
N156  O280  1.301187 A    
Cu11  Cu20  2.640853 S    
C266  C506  1.394408 A    
O183  C129  1.289524 A    
Cu27  Cu41  2.643341 S    
C99   C510  1.478312 S    
O1    Cu1   1.959867 S    
C369  C606  1.455296 S    
C762  O378  1.221079 D    
C732  H156  1.085446 S    
C196  C724  1.487109 S    
C3    C387  1.512113 S    
C171  C699  1.479154 S    
O173  Cu41  1.960409 S    
O122  Cu17  1.961991 S    
O1    C67   1.289701 A    
C428  N75   1.361183 A    
O120  C118  1.289386 A    
O145  Cu25  1.961649 S    
C713  H137  1.085905 S    
C294  C522  1.394406 A    
C373  C470  1.414651 A    
C7    C162  1.433182 A    
C352  C437  1.415549 A    
O109  C118  1.291104 A    
O190  C138  1.289699 A    
C689  O305  1.227503 D    
C657  N57   1.352458 A    
C44   C176  1.433151 A    
O23   C66   1.285999 A    
H19   C259  1.084882 S    
C130  C482  1.473161 S    
C179  C707  1.478583 S    
O127  C97   1.288891 A    
N16   C659  1.357665 A    
C83   C547  1.438618 S    
C45   C429  1.505604 S    
C143  C487  1.472869 S    
C413  N62   1.360273 A    
O57   Cu33  1.958736 S    
C33   C417  1.506038 S    
C134  C488  1.471882 S    
C138  C490  1.472472 S    
C43   C186  1.432856 A    
C700  O316  1.221080 D    
C314  C495  1.393742 A    
H71   C311  1.084657 S    
Cu9   Cu22  2.642999 S    
C379  C461  1.424923 A    
C551  C599  1.208678 T    
C395  N96   1.359500 A    
C749  H173  1.085670 S    
C52   C555  1.438677 S    
C245  C485  1.395484 A    
Cu3   Cu12  2.643341 S    
C255  C495  1.394405 A    
O117  Cu21  1.962113 S    
C242  C482  1.394595 A    
C470  N150  1.442224 S    
C17   C401  1.498059 S    
C683  H107  1.085548 S    
C396  N28   1.361358 A    
O125  Cu12  1.960409 S    
C674  H98   1.085709 S    
O186  Cu45  1.962268 S    
C425  N69   1.361639 A    
C75   C539  1.439758 S    
C630  N67   1.357358 A    
C269  C509  1.396248 A    
C546  C594  1.209573 T    
C367  C605  1.451953 S    
C55   C558  1.440750 S    
C34   C209  1.433492 A    
C398  N109  1.359350 A    
C25   C409  1.496460 S    
C238  C334  1.397565 A    
C665  N97   1.356519 A    
C96   C544  1.439518 S    
O31   Cu14  1.959474 S    
O73   C79   1.287111 A    
C217  C313  1.396673 A    
C13   C397  1.497176 S    
C226  C322  1.396165 A    
C285  C515  1.393989 A    
C378  C463  1.415391 A    
C221  C317  1.396792 A    
O29   C51   1.288139 A    
C459  N139  1.456490 S    
O80   Cu44  1.960122 S    
C327  C482  1.394815 A    
C328  C499  1.393438 A    
N141  O250  1.308779 A    
C38   C183  1.433113 A    
C760  O376  1.221131 D    
C200  C296  1.397941 A    
C665  N104  1.355020 A    
N139  O246  1.301488 A    
O138  Cu9   1.962268 S    
C85   C551  1.435996 S    
C387  N19   1.363204 A    
C366  C607  1.452539 S    
C751  O367  1.220990 D    
O123  Cu16  1.962547 S    
O176  C124  1.289668 A    
C194  C722  1.478688 S    
C39   C423  1.503392 S    
C240  C336  1.399530 A    
O157  Cu35  1.962582 S    
C452  N132  1.444524 S    
C669  N105  1.356985 A    
C40   C172  1.433036 A    
C346  C439  1.417508 A    
C184  C280  1.397673 A    
C191  C719  1.476720 S    
C682  O298  1.221113 D    
O170  C126  1.290729 A    
C757  O373  1.220630 D    
C626  N18   1.353420 A    
C692  H116  1.085413 S    
O152  C139  1.291916 A    
N14   C650  1.355389 A    
C192  C288  1.401322 A    
C342  C457  1.420514 A    
C236  C764  1.479200 S    
C367  C449  1.416592 A    
C403  N35   1.359947 A    
C417  N50   1.359180 A    
C532  C580  1.209030 T    
C392  N99   1.360164 A    
O30   Cu23  1.960479 S    
C357  C440  1.414276 A    
O6    C62   1.287719 A    
O175  Cu43  1.961883 S    
C377  C478  1.416820 A    
C41   C190  1.433568 A    
C162  C258  1.396657 A    
C112  C521  1.470418 S    
C653  N49   1.353095 A    
C442  N122  1.457569 S    
H3    C243  1.085020 S    
C634  N26   1.354668 A    
H91   C331  1.084930 S    
C98   C511  1.473344 S    
C378  C619  1.454840 S    
O74   C78   1.287670 A    
C235  C763  1.481198 S    
O167  C126  1.291377 A    
O172  C128  1.290380 A    
O191  Cu42  1.961551 S    
C766  O382  1.221103 D    
H11   C251  1.084885 S    
C132  C486  1.475219 S    
O30   C50   1.287582 A    
C232  C760  1.477422 S    
O24   Cu24  1.960590 S    
C350  C577  1.456160 S    
N15   C657  1.355706 A    
C155  C251  1.396832 A    
C733  H157  1.085560 S    
C365  C445  1.424766 A    
H57   C297  1.087367 S    
C376  C466  1.419333 A    
C172  C268  1.396052 A    
N140  O247  1.302102 A    
Cu15  Cu18  2.642999 S    
C370  C452  1.414632 A    
O8    C64   1.289956 A    
O133  C106  1.289624 A    
O63   Cu36  1.960277 S    
C356  C587  1.453669 S    
N130  O228  1.301460 A    
C182  C710  1.477632 S    
C312  C519  1.394278 A    
O85   Cu47  1.960689 S    
N13   C660  1.360825 A    
O89   C95   1.288281 A    
O63   C94   1.288356 A    
O46   C60   1.286239 A    
O71   C78   1.286875 A    
O76   C80   1.289319 A    
C643  N35   1.350887 A    
H41   C281  1.084784 S    
C303  C518  1.395315 A    
O163  Cu32  1.960480 S    
O185  Cu38  1.962471 S    
C149  C677  1.478723 S    
C648  N81   1.350964 A    
C731  O347  1.221025 D    
C427  N82   1.360380 A    
O162  C129  1.289547 A    
O164  C133  1.290455 A    
O2    C66   1.290274 A    
C188  C716  1.478468 S    
O152  Cu32  1.962228 S    
C421  N84   1.360510 A    
C229  C325  1.400624 A    
C337  C590  1.451010 S    
N137  O242  1.301984 A    
C176  C704  1.478968 S    
C643  N86   1.354607 A    
N154  O275  1.302237 A    
C390  N22   1.363980 A    
O78   Cu42  1.960479 S    
C44   C179  1.433687 A    
C10   C167  1.432889 A    
C761  O377  1.221215 D    
H25   C265  1.084810 S    
O86   Cu43  1.959657 S    
C268  C508  1.393763 A    
C383  C616  1.451239 S    
C759  O375  1.220864 D    
N153  O273  1.301309 A    
C219  C747  1.477592 S    
O29   Cu12  1.958304 S    
O17   Cu17  1.960472 S    
C380  C615  1.453186 S    
H33   C273  1.084808 S    
N12   C639  1.355485 A    
C136  C484  1.474402 S    
C218  C746  1.477817 S    
N6    C630  1.359592 A    
O134  C103  1.290253 A    
C646  N83   1.352545 A    
C758  O374  1.221137 D    
C712  O328  1.221066 D    
C549  C597  1.209178 T    
H53   C293  1.087315 S    
C186  C282  1.397434 A    
O158  C127  1.290147 A    
C356  C442  1.423128 A    
C24   C408  1.505071 S    
N122  O212  1.303130 A    
N9    C633  1.355754 A    
H36   C276  1.084739 S    
C640  N73   1.352113 A    
O100  Cu4   1.960798 S    
O46   Cu15  1.958940 S    
C21   C158  1.432975 A    
C767  H191  1.085641 S    
C204  C300  1.396218 A    
C412  N49   1.360210 A    
C456  N136  1.444197 S    
C12   C228  1.434139 A    
C764  H188  1.085654 S    
C419  N61   1.361326 A    
H69   C309  1.084716 S    
O42   C57   1.287443 A    
C276  C514  1.393880 A    
N127  O222  1.301545 A    
C31   C199  1.433626 A    
C15   C146  1.432731 A    
C434  N114  1.466139 S    
C656  N53   1.351907 A    
N114  O195  1.307378 A    
C421  N65   1.359240 A    
O80   C76   1.288505 A    
C684  O300  1.221233 D    
C752  H176  1.085549 S    
C197  C725  1.483312 S    
N147  O261  1.301264 A    
C178  C274  1.396513 A    
C756  O372  1.224987 D    
C659  N59   1.351815 A    
N156  O279  1.302369 A    
C755  H179  1.085608 S    
C16   C400  1.503786 S    
C362  C449  1.416958 A    
C215  C743  1.479026 S    
O188  Cu47  1.961852 S    
H35   C275  1.084678 S    
C762  H186  1.085524 S    
C377  C613  1.452265 S    
C399  N31   1.360292 A    
O117  C112  1.289211 A    
C48   C187  1.433593 A    
C379  C476  1.416258 A    
C652  N44   1.353293 A    
C274  C513  1.393939 A    
C424  N73   1.359763 A    
H4    C244  1.084644 S    
C342  C593  1.452612 S    
C713  O329  1.221070 D    
C348  C471  1.416033 A    
O153  C138  1.290435 A    
N148  O264  1.301659 A    
C646  N38   1.354298 A    
C635  N27   1.352264 A    
O44   C59   1.287657 A    
Cu5   Cu16  2.643341 S    
H8    C248  1.084860 S    
O65   Cu26  1.960472 S    
C116  C517  1.475725 S    
O145  C130  1.290111 A    
C174  C702  1.480559 S    
C27   C216  1.433097 A    
C715  H139  1.087045 S    
O171  Cu39  1.962547 S    
O101  C111  1.290351 A    
H45   C285  1.084860 S    
H2    C242  1.084743 S    
C468  N148  1.456219 S    
C542  C590  1.207474 T    
O32   Cu19  1.960122 S    
C37   C169  1.432181 A    
C700  H124  1.085683 S    
O70   C87   1.287777 A    
O162  Cu33  1.962268 S    
C662  N90   1.353772 A    
C127  C495  1.472457 S    
C284  C505  1.393792 A    
C60   C563  1.440643 S    
C754  O370  1.221085 D    
C26   C207  1.433501 A    
C749  O365  1.221049 D    
C439  N119  1.445187 S    
C567  C615  1.209920 T    
C573  C621  1.208495 T    
C371  C604  1.452530 S    
O51   Cu27  1.960463 S    
O110  C115  1.291318 A    
C120  C525  1.472344 S    
C383  C469  1.425088 A    
O150  Cu30  1.962465 S    
C742  O358  1.228809 D    
C317  C502  1.393927 A    
C445  N125  1.462677 S    
O150  C143  1.289194 A    
N12   C642  1.355829 A    
C413  N45   1.361805 A    
C225  C321  1.398607 A    
N121  O209  1.302451 A    
O76   Cu40  1.958490 S    
C406  N38   1.359787 A    
C748  O364  1.219685 D    
N7    C670  1.355107 A    
C177  C705  1.476770 S    
C348  C435  1.416666 A    
H92   C332  1.084712 S    
O180  Cu41  1.962455 S    
C80   C552  1.440176 S    
C760  H184  1.085591 S    
N144  O256  1.301211 A    
O60   Cu29  1.960555 S    
C169  C265  1.396834 A    
C340  C436  1.418307 A    
C361  C450  1.417902 A    
H48   C288  1.084554 S    
O114  C117  1.289633 A    
C173  C269  1.397855 A    
C305  C526  1.393933 A    
O166  Cu36  1.960726 S    
C480  N160  1.443547 S    
O139  Cu8   1.960480 S    
O99   Cu3   1.962547 S    
C308  C517  1.396654 A    
C54   C557  1.437589 S    
C648  N40   1.351189 A    
C697  H121  1.085536 S    
C66   C569  1.441307 S    
C233  C329  1.398562 A    
C6    C390  1.500313 S    
C714  O330  1.221040 D    
C634  N79   1.353824 A    
C530  C578  1.211114 T    
N5    C640  1.355120 A    
C655  N51   1.355323 A    
C682  H106  1.085593 S    
H38   C278  1.084775 S    
C35   C419  1.508781 S    
C202  C298  1.396350 A    
C185  C281  1.397751 A    
O102  Cu6   1.962465 S    
O157  C140  1.289280 A    
C355  C480  1.416230 A    
H52   C292  1.087280 S    
N11   C648  1.355432 A    
C418  N52   1.359737 A    
O4    Cu4   1.958490 S    
C93   C535  1.435987 S    
C358  C441  1.421151 A    
O126  Cu23  1.962465 S    
O181  Cu47  1.962582 S    
C723  H147  1.085546 S    
C655  N54   1.353535 A    
O190  Cu48  1.960726 S    
C94   C540  1.439703 S    
C4    C388  1.502903 S    
H63   C303  1.084652 S    
H16   C256  1.084828 S    
C750  O366  1.221042 D    
C17   C156  1.431654 A    
C446  N126  1.445167 S    
C212  C308  1.397809 A    
C19   C403  1.509597 S    
C704  O320  1.221027 D    
C719  O335  1.220951 D    
O83   Cu46  1.959860 S    
O15   C69   1.289900 A    
O183  Cu48  1.962291 S    
C145  C241  1.397767 A    
C15   C399  1.505683 S    
H24   C264  1.084890 S    
O55   Cu31  1.959474 S    
N7    C634  1.356943 A    
C766  H190  1.085486 S    
C257  C497  1.399632 A    
C45   C191  1.433118 A    
O39   Cu22  1.960277 S    
O90   C94   1.288498 A    
O20   C71   1.286343 A    
C462  N142  1.459001 S    
C709  O325  1.221351 D    
O111  Cu15  1.962291 S    
O77   C75   1.287846 A    
O112  C111  1.289855 A    
C350  C465  1.413379 A    
C207  C735  1.478798 S    
C570  C618  1.209205 T    
N10   C635  1.355772 A    
C345  C598  1.454436 S    
N2    C626  1.355596 A    
O77   Cu41  1.958304 S    
O26   Cu17  1.959559 S    
C161  C689  1.483628 S    
C191  C287  1.397488 A    
N130  O227  1.302737 A    
C632  N24   1.351628 A    
N126  O220  1.298716 A    
O185  C143  1.290226 A    
C326  C501  1.392492 A    
C457  N137  1.451971 S    
O167  Cu30  1.961551 S    
H31   C271  1.084773 S    
C333  C494  1.393910 A    
C695  O311  1.220824 D    
C375  C468  1.423709 A    
O177  C135  1.289599 A    
C234  C762  1.477424 S    
O136  C99   1.290668 A    
C360  C589  1.452895 S    
C552  C600  1.210256 T    
H46   C286  1.084658 S    
C359  C476  1.416195 A    
O92   C96   1.290836 A    
O113  C110  1.288585 A    
O112  Cu16  1.960294 S    
C353  C438  1.416686 A    
C339  C464  1.415959 A    
C642  N87   1.352103 A    
C658  N63   1.351914 A    
N151  O270  1.301248 A    
C414  N53   1.359937 A    
C118  C527  1.476129 S    
C163  C691  1.477434 S    
C369  C453  1.422563 A    
O174  C122  1.289602 A    
C17   C233  1.428331 A    
O104  Cu8   1.962228 S    
C107  C514  1.472070 S    
C720  O336  1.221058 D    
C113  C520  1.470082 S    
C1    C385  1.503126 S    
C311  C525  1.394953 A    
C25   C193  1.429136 A    
N153  O274  1.301837 A    
C414  N46   1.360482 A    
C13   C229  1.429820 A    
C338  C461  1.428591 A    
C410  N55   1.360364 A    
C631  N66   1.351928 A    
C385  N108  1.359457 A    
C758  H182  1.085556 S    
C103  C506  1.472800 S    
C180  C708  1.477746 S    
C712  H136  1.085515 S    
O140  Cu13  1.961852 S    
N143  O254  1.301768 A    
C529  C577  1.210957 T    
C392  N24   1.359121 A    
O123  C101  1.289785 A    
Cu7   Cu10  2.642538 S    
C747  O363  1.221038 D    
O78   C74   1.286856 A    
O14   C67   1.286100 A    
C342  C438  1.418800 A    
C381  C465  1.416832 A    
C565  C613  1.208517 T    
N122  O211  1.303292 A    
C140  C494  1.471359 S    
C370  C608  1.455374 S    
C247  C487  1.393906 A    
C372  C446  1.413643 A    
C162  C690  1.478160 S    
C48   C184  1.434258 A    
C705  H129  1.085661 S    
O96   Cu46  1.960590 S    
C222  C318  1.399220 A    
H28   C268  1.084804 S    
C339  C588  1.452983 S    
C3    C168  1.434318 A    
C349  C466  1.419221 A    
C374  C472  1.420588 A    
C628  N69   1.352604 A    
N135  O238  1.301736 A    
C64   C567  1.439512 S    
C438  N118  1.447354 S    
O37   C58   1.288094 A    
H90   C330  1.084782 S    
C400  N32   1.360017 A    
C347  C472  1.423507 A    
C198  C294  1.396765 A    
C684  H108  1.086529 S    
H94   C334  1.084620 S    
O93   C91   1.288803 A    
O130  Cu1   1.961467 S    
O81   Cu45  1.958736 S    
O28   C56   1.287656 A    
O12   Cu12  1.960555 S    
C39   C192  1.431185 A    
O148  Cu28  1.960798 S    
C27   C195  1.433124 A    
Cu2   Cu23  2.641414 S    
C262  C502  1.393774 A    
O36   Cu5   1.960555 S    
C400  N107  1.359374 A    
C569  C617  1.210858 T    
O6    Cu6   1.960479 S    
C454  N134  1.447657 S    
O141  Cu4   1.962113 S    
O59   Cu34  1.959860 S    
C368  C447  1.421109 A    
O102  C110  1.290747 A    
C212  C740  1.480725 S    
N148  O263  1.300464 A    
O68   Cu35  1.960185 S    
C346  C583  1.450545 S    
C160  C256  1.398697 A    
C667  N102  1.352395 A    
O50   Cu26  1.959559 S    
H23   C263  1.084793 S    
C359  C434  1.424132 A    
C184  C712  1.478874 S    
O135  C105  1.289324 A    
N1    C638  1.354966 A    
H96   C336  1.084616 S    
C383  C460  1.417968 A    
O9    C72   1.288017 A    
C409  N60   1.363210 A    
C576  C624  1.208439 T    
C711  H135  1.086704 S    
C148  C676  1.478642 S    
C178  C706  1.477563 S    
O189  Cu40  1.962113 S    
Cu33  Cu48  2.642999 S    
O83   C85   1.286393 A    
O64   C75   1.289263 A    
C458  N138  1.468014 S    
O128  Cu19  1.962228 S    
C150  C246  1.398260 A    
O15   Cu15  1.960277 S    
C78   C548  1.436917 S    
C90   C542  1.436254 S    
C211  C739  1.483351 S    
C299  C524  1.394530 A    
Cu29  Cu39  2.643341 S    
N14   C654  1.356386 A    
C331  C496  1.397006 A    
H75   C315  1.084950 S    
C554  C602  1.209178 T    
C443  N123  1.448019 S    
O7    Cu7   1.959474 S    
O137  C98   1.289967 A    
C14   C165  1.433441 A    
C679  O295  1.221012 D    
C647  N82   1.353537 A    
C175  C271  1.397609 A    
C728  O344  1.220979 D    
C742  H166  1.096939 S    
C690  O306  1.221055 D    
C173  C701  1.477838 S    
C394  N111  1.359076 A    
C6    C157  1.429590 A    
C688  O304  1.220768 D    
O98   Cu2   1.961991 S    
O155  C144  1.288923 A    
C545  C593  1.209395 T    
C355  C436  1.420319 A    
C144  C492  1.474846 S    
C668  N101  1.353420 A    
C117  C528  1.470345 S    
N121  O210  1.301379 A    
H89   C329  1.083966 S    
C386  N103  1.359659 A    
C748  H172  1.087325 S    
O187  Cu44  1.960480 S    
C47   C182  1.433076 A    
C46   C180  1.432379 A    
H93   C333  1.084861 S    
C233  C761  1.480099 S    
C429  N74   1.360336 A    
C699  O315  1.220633 D    
N144  O255  1.302407 A    
C348  C579  1.453235 S    
C205  C301  1.397302 A    
C154  C682  1.477796 S    
N145  O257  1.302240 A    
C325  C486  1.396592 A    
C329  C492  1.397261 A    
C193  C289  1.401480 A    
C691  O307  1.220968 D    
O95   C89   1.289941 A    
C47   C189  1.433600 A    
C62   C565  1.438228 S    
C37   C421  1.503899 S    
C288  C507  1.394542 A    
N4    C665  1.357534 A    
C677  H101  1.087157 S    
C664  N92   1.354733 A    
C697  O313  1.220934 D    
C455  N135  1.451255 S    
C44   C428  1.503651 S    
C666  N103  1.351939 A    
Cu25  Cu43  2.642538 S    
C673  H97   1.085687 S    
C189  C285  1.397006 A    
C110  C523  1.472802 S    
C48   C432  1.507508 S    
C564  C612  1.209681 T    
C63   C566  1.436129 S    
C141  C481  1.472679 S    
C10   C394  1.505513 S    
C678  O294  1.221175 D    
C14   C398  1.504615 S    
O181  C131  1.288102 A    
C182  C278  1.397162 A    
C366  C455  1.420374 A    
C685  H109  1.086102 S    
N136  O240  1.301373 A    
C641  N88   1.350616 A    
C404  N36   1.361131 A    
C629  N68   1.352683 A    
C555  C603  1.209464 T    
C394  N26   1.361907 A    
O90   Cu45  1.960300 S    
C736  O352  1.227687 D    
C32   C416  1.504483 S    
C398  N30   1.360266 A    
C426  N70   1.363344 A    
C750  H174  1.086001 S    
C429  N87   1.359646 A    
C341  C458  1.426751 A    
C235  C331  1.400427 A    
C275  C512  1.394345 A    
O82   Cu37  1.959892 S    
N15   C656  1.355463 A    
O14   Cu14  1.959657 S    
C638  N30   1.353582 A    
C42   C181  1.430964 A    
C376  C475  1.421345 A    
H59   C299  1.084777 S    
C625  N17   1.350772 A    
C12   C396  1.506383 S    
O36   C53   1.288933 A    
C753  H177  1.087143 S    
C164  C692  1.476817 S    
N115  O198  1.300717 A    
C297  C520  1.396695 A    
C316  C489  1.394297 A    
C34   C204  1.432884 A    
C42   C174  1.431423 A    
C152  C680  1.476463 S    
C243  C483  1.395820 A    
O147  C136  1.289491 A    
C158  C686  1.477849 S    
C768  O384  1.221154 D    
C763  H187  1.086603 S    
C660  N60   1.351635 A    
C251  C491  1.393584 A    
C87   C545  1.438642 S    
N132  O232  1.301490 A    
O105  C120  1.288991 A    
N126  O219  1.303275 A    
C23   C239  1.433579 A    
O61   Cu35  1.960689 S    
O49   Cu25  1.959867 S    
C575  C623  1.210660 T    
O34   Cu1   1.959892 S    
C3    C219  1.434632 A    
C647  N39   1.352931 A    
O121  C103  1.289776 A    
C51   C554  1.438402 S    
C338  C434  1.429883 A    
C32   C203  1.432942 A    
H27   C267  1.085272 S    
O184  Cu39  1.960294 S    
O22   C72   1.289871 A    
C209  C737  1.477159 S    
C179  C275  1.396408 A    
C20   C145  1.431417 A    
O9    Cu9   1.958736 S    
C29   C214  1.436197 A    
C229  C757  1.480717 S    
C559  C607  1.209445 T    
C1    C164  1.433586 A    
C50   C553  1.435782 S    
O79   Cu43  1.959474 S    
O17   C62   1.286958 A    
O129  Cu18  1.960929 S    
N8    C667  1.355371 A    
O65   C74   1.288732 A    
O84   C88   1.289077 A    
C385  N17   1.359444 A    
C384  C458  1.426403 A    
C661  N96   1.352414 A    
C654  N50   1.353314 A    
C190  C718  1.479806 S    
C718  H142  1.086054 S    
O49   C82   1.288308 A    
C340  C595  1.452595 S    
C453  N133  1.459038 S    
O95   Cu42  1.960000 S    
C706  O322  1.221137 D    
C76   C546  1.438908 S    
C765  H189  1.085577 S    
C347  C596  1.451936 S    
C403  N104  1.363845 A    
C447  N127  1.452269 S    
C650  N47   1.352873 A    
O32   C52   1.289400 A    
C651  N46   1.353501 A    
C698  O314  1.220993 D    
C354  C477  1.415225 A    
C234  C330  1.397036 A    
C401  N33   1.359710 A    
N119  O206  1.302342 A    
N131  O229  1.302175 A    
O115  Cu19  1.960480 S    
C207  C303  1.397729 A    
C20   C236  1.432727 A    
O19   C68   1.289234 A    
C29   C413  1.502950 S    
O94   C90   1.288868 A    
C194  C290  1.396593 A    
C224  C752  1.476989 S    
C36   C420  1.504205 S    
O107  Cu11  1.962176 S    
C431  N85   1.360904 A    
C705  O321  1.221003 D    
H1    C241  1.084736 S    
C396  N105  1.362549 A    
O134  Cu7   1.961859 S    
O11   Cu11  1.959860 S    
O67   Cu32  1.958809 S    
O122  C102  1.291758 A    
O89   Cu38  1.960472 S    
C230  C326  1.395359 A    
C362  C446  1.414972 A    
C198  C726  1.478968 S    
C47   C431  1.506034 S    
O62   C79   1.287650 A    
C301  C522  1.394539 A    
O106  C109  1.289945 A    
O108  C113  1.289684 A    
H9    C249  1.082745 S    
O56   Cu32  1.960122 S    
C344  C459  1.422101 A    
C106  C515  1.472606 S    
O189  C139  1.289386 A    
C629  N21   1.351856 A    
C574  C622  1.210758 T    
N124  O216  1.301063 A    
C739  H163  1.095320 S    
N3    C669  1.359129 A    
C124  C502  1.470838 S    
C735  O351  1.220646 D    
C733  O349  1.220850 D    
C153  C249  1.397904 A    
C2    C218  1.433698 A    
H84   C324  1.088366 S    
C324  C497  1.401516 A    
C419  N54   1.360957 A    
C157  C253  1.402418 A    
O25   Cu10  1.959867 S    
C724  O340  1.229610 D    
H80   C320  1.084881 S    
O165  C124  1.289852 A    
Cu36  Cu45  2.642999 S    
C31   C415  1.506347 S    
H40   C280  1.084634 S    
C23   C154  1.432972 A    
O4    C68   1.289135 A    
C535  C583  1.207840 T    
C721  H145  1.085838 S    
O170  Cu38  1.961991 S    
C53   C560  1.442832 S    
H88   C328  1.084842 S    
C450  N130  1.447069 S    
C349  C600  1.454482 S    
N8    C632  1.355551 A    
C667  N99   1.352009 A    
C364  C609  1.454909 S    
C716  O332  1.221125 D    
H76   C316  1.083735 S    
C231  C327  1.397420 A    
C35   C206  1.431939 A    
C448  N128  1.444864 S    
N5    C671  1.355676 A    
C662  N95   1.353073 A    
C424  N68   1.359588 A    
C244  C484  1.393024 A    
N117  O201  1.301242 A    
N12   C662  1.355974 A    
C633  N80   1.354044 A    
N142  O252  1.300743 A    
C164  C260  1.394783 A    
C436  N116  1.450907 S    
O69   C76   1.288415 A    
C201  C729  1.480621 S    
C699  H123  1.085475 S    
O45   Cu4   1.960237 S    
C637  N76   1.354490 A    
C23   C407  1.505642 S    
C728  H152  1.086313 S    
C642  N34   1.352116 A    
C625  N72   1.352023 A    
O84   Cu41  1.960555 S    
C5    C221  1.433592 A    
C743  O359  1.220702 D    
C707  H131  1.086851 S    
C687  O303  1.220917 D    
C409  N41   1.361452 A    
O158  Cu31  1.961859 S    
C541  C589  1.209310 T    
H14   C254  1.084796 S    
C714  H138  1.085643 S    
C422  N66   1.359039 A    
O11   C71   1.287772 A    
C690  H114  1.085656 S    
N2    C666  1.355776 A    
O56   C91   1.288758 A    
C199  C295  1.397789 A    
C688  H112  1.085888 S    
C287  C513  1.394106 A    
O92   Cu47  1.960185 S    
Cu6   Cu17  2.641414 S    
C361  C445  1.424731 A    
C477  N157  1.444931 S    
C210  C738  1.478767 S    
N3    C636  1.354965 A    
N145  O258  1.301398 A    
H43   C283  1.084649 S    
C277  C510  1.397204 A    
O169  C127  1.289708 A    
C562  C610  1.208848 T    
C681  H105  1.092452 S    
C163  C259  1.396768 A    
C283  C516  1.395621 A    
C430  N76   1.361437 A    
C237  C765  1.476797 S    
C183  C279  1.397031 A    
C531  C579  1.209800 T    
N159  O286  1.302039 A    
O41   Cu2   1.960472 S    
C406  N93   1.361574 A    
N3    C627  1.358027 A    
C425  N86   1.359634 A    
C298  C525  1.392577 A    
C147  C675  1.481764 S    
C631  N23   1.352423 A    
C751  H175  1.085677 S    
C677  O293  1.220623 D    
C402  N34   1.359612 A    
O55   C86   1.288764 A    
C239  C767  1.476904 S    
C534  C582  1.209958 T    
C352  C467  1.421738 A    
O139  C104  1.289815 A    
C673  O289  1.220853 D    
C46   C430  1.501672 S    
C418  N57   1.360075 A    
O115  C116  1.292203 A    
O143  C102  1.288120 A    
O66   Cu33  1.960300 S    
H21   C261  1.084811 S    
C304  C528  1.395070 A    
C202  C730  1.478419 S    
C678  H102  1.085989 S    
C744  H168  1.085567 S    
C231  C759  1.475727 S    
C41   C173  1.432218 A    
C694  H118  1.085489 S    
C280  C516  1.393157 A    
C685  O301  1.220763 D    
C97   C512  1.470557 S    
C267  C507  1.395945 A    
N136  O239  1.302010 A    
C139  C485  1.474388 S    
C572  C620  1.209576 T    
O54   Cu30  1.960479 S    
O165  Cu28  1.962113 S    
C382  C471  1.415531 A    
C696  H120  1.085667 S    
C205  C733  1.475775 S    
C335  C490  1.393950 A    
C2    C386  1.505827 S    
C768  H192  1.085642 S    
C474  N154  1.444604 S    
O62   Cu31  1.959657 S    
C410  N42   1.360175 A    
C675  H99   1.086319 S    
C24   C240  1.430665 A    
H56   C296  1.084690 S    
C293  C521  1.396428 A    
Cu31  Cu37  2.642538 S    
O5    Cu5   1.958304 S    
C71   C576  1.437335 S    
C390  N101  1.362156 A    
C717  H141  1.085697 S    
C382  C464  1.415483 A    
Cu34  Cu47  2.640853 S    
O168  C131  1.289843 A    
O27   Cu16  1.960463 S    
C208  C736  1.480953 S    
C32   C200  1.432739 A    
C694  O310  1.221157 D    
C753  O369  1.220646 D    
O27   C53   1.289080 A    
C391  N23   1.360091 A    
C465  N145  1.444326 S    
O116  C119  1.288946 A    
C73   C541  1.439302 S    
C28   C201  1.435108 A    
C34   C418  1.505232 S    
O70   Cu36  1.958940 S    
O88   C84   1.287026 A    
C195  C723  1.476625 S    
C566  C614  1.208830 T    
N7    C631  1.355214 A    
H18   C258  1.084725 S    
C356  C479  1.420211 A    
