data_mof_unit_12211.cif
_audit_creation_date              2013-03-05T16:02:40-0500
_audit_creation_method            fapswitch 2.2
_symmetry_space_group_name_H-M    P1
_symmetry_Int_Tables_number       1
_space_group_crystal_system       triclinic
_cell_length_a                    6.953632
_cell_length_b                    17.297713
_cell_length_c                    18.788461
_cell_angle_alpha                 106.330707
_cell_angle_beta                  90.015111
_cell_angle_gamma                 90.713452
_cell_volume                      2168.55077228

loop_
_atom_site_label
_atom_site_type_symbol
_atom_site_description
_atom_site_fract_x
_atom_site_fract_y
_atom_site_fract_z
_atom_type_partial_charge
O1    O     O_R   0.494360 0.415680 0.413760 -0.585347
O2    O     O_R   0.818810 0.432910 0.557230 -0.573559
O3    O     O_R   0.994290 0.584320 0.586240 -0.582834
C1    C     C_R   0.649931 0.415943 0.580601 0.953684
O4    O     O_R   0.823740 0.406440 0.412520 -0.586013
O5    O     O_R   0.999250 0.557660 0.440500 -0.566244
C2    C     C_R   0.654195 0.383750 0.384841 0.942156
O6    O     O_R   0.489400 0.442340 0.559500 -0.573756
O7    O     O_3   0.662500 0.549650 0.509350 -0.261307
V1    V     V_3+5 0.935340 0.490790 0.498270 1.169930
O8    O     O_R   0.329270 0.567090 0.442770 -0.572618
C3    C     C_R   0.161140 0.584319 0.419617 0.949610
O9    O     O_R   0.324340 0.593560 0.587480 -0.588357
C4    C     C_R   0.156414 0.617315 0.614235 0.925978
V2    V     V_3+5 0.435970 0.509210 0.501730 1.167607
O10   O     O_3   0.158940 0.450350 0.490650 -0.264709
C5    C     C_R   0.129177 0.586206 0.755680 -0.159503
C6    C     C_R   0.093793 0.567146 0.821389 -0.170936
C7    C     C_R   0.033915 0.626363 0.883283 -0.131922
C8    C     C_R   0.016459 0.706480 0.881460 0.289041
C9    C     C_R   0.081074 0.729652 0.818010 -0.036640
C10   C     C_R   0.120328 0.666695 0.752214 0.109001
C11   C     C_R   0.111322 0.811780 0.817727 -0.241508
C12   C     C_R   0.153553 0.829030 0.749560 0.088331
C13   C     C_R   0.168231 0.765417 0.682693 0.134865
C14   C     C_R   0.150109 0.684328 0.684028 -0.265287
C15   C     C_R   0.176464 0.909516 0.746341 -0.312790
C16   C     C_R   0.213375 0.927404 0.679222 0.414277
C17   C     C_R   0.226049 0.864091 0.614001 -0.220091
C18   C     C_R   0.203386 0.784486 0.615523 -0.224024
H1    H     H_    0.166554 0.537165 0.707852 0.117608
H2    H     H_    0.102532 0.505262 0.823156 0.150214
H3    H     H_    0.988346 0.608628 0.931603 0.184240
H4    H     H_    0.163868 0.959372 0.795880 0.163068
C19   C     C_1   0.112795 0.865926 0.134393 -0.227742
C20   C     C_1   0.120632 0.823622 0.178182 0.096581
C21   C     C_1   0.130124 0.773354 0.230019 0.028425
C22   C     C_1   0.138061 0.730869 0.273649 0.061161
C23   C     C_1   0.147034 0.680232 0.325181 0.145429
C24   C     C_1   0.153736 0.637047 0.368224 -0.283114
C25   C     C_1   0.641475 0.363937 0.632580 -0.317070
C26   C     C_1   0.637236 0.321288 0.676105 0.076964
C27   C     C_1   0.633739 0.270989 0.727951 0.026077
C28   C     C_1   0.631151 0.228654 0.771759 0.056113
C29   C     C_1   0.627742 0.178460 0.823688 0.136571
C30   C     C_1   0.623547 0.135929 0.867311 -0.278158
C31   C     C_R   0.762454 0.403077 0.241869 -0.305565
C32   C     C_R   0.816607 0.415115 0.173791 0.415351
C33   C     C_R   0.810827 0.349739 0.109962 -0.223297
C34   C     C_R   0.748578 0.274094 0.113423 -0.214261
C35   C     C_R   0.691268 0.261018 0.181293 0.134105
C36   C     C_R   0.700045 0.326619 0.246991 0.075370
C37   C     C_R   0.621791 0.184511 0.184068 -0.292884
C38   C     C_R   0.560737 0.173706 0.252706 0.115427
C39   C     C_R   0.571645 0.239081 0.318671 0.110635
C40   C     C_R   0.642254 0.315466 0.315944 -0.279655
C41   C     C_R   0.490999 0.098033 0.257313 -0.179081
C42   C     C_R   0.432781 0.087207 0.324851 -0.110613
C43   C     C_R   0.443986 0.150904 0.389219 -0.086212
C44   C     C_R   0.513132 0.225980 0.386540 -0.160154
H5    H     H_    0.767790 0.454311 0.290658 0.161908
H6    H     H_    0.851621 0.357323 0.056701 0.172670
H7    H     H_    0.481424 0.046317 0.209003 0.111899
H8    H     H_    0.379573 0.028920 0.327284 0.123655
H9    H     H_    0.520709 0.273336 0.438285 0.102733
O11   O     O_R   0.775690 0.057750 0.940570 -0.576383
O12   O     O_R   0.441200 0.093570 0.087490 -0.593782
O13   O     O_R   0.265840 0.942320 0.059480 -0.587733
C45   C     C_R   0.610568 0.116139 0.115283 0.923232
O14   O     O_R   0.446270 0.067110 0.942790 -0.568739
O15   O     O_R   0.270950 0.915660 0.913750 -0.578037
C46   C     C_R   0.615133 0.084051 0.919394 0.944881
O16   O     O_R   0.770580 0.084400 0.086300 -0.599328
O17   O     O_3   0.602640 0.950400 0.990690 -0.219543
V3    V     V_3+5 0.329740 0.009200 0.001730 1.193164
O18   O     O_R   0.940900 0.906360 0.912450 -0.545285
C47   C     C_R   0.108544 0.879833 0.887593 0.957912
O19   O     O_R   0.935830 0.932820 0.057160 -0.541987
C48   C     C_R   0.104118 0.916953 0.081477 0.977845
V4    V     V_3+5 0.829130 0.990680 0.998180 1.232416
O20   O     O_3   0.106100 0.049590 0.009310 -0.278010
H10   H     H_    0.253622 0.876059 0.561363 0.170426
N1    N     N_R   0.874507 0.493842 0.169394 0.239080
O21   O     O_R   0.943559 0.503622 0.108072 -0.387352
O22   O     O_R   0.852336 0.556922 0.225850 -0.415624
H11   H     H_    0.743633 0.226324 0.061917 0.123372
N2    N     N_R   0.897556 0.757223 0.936983 0.217353
O23   O     O_R   0.913747 0.754567 0.005201 -0.423138
O24   O     O_R   0.734543 0.780122 0.916125 -0.368933
N3    N     N_R   0.236822 0.009701 0.677340 0.236540
O25   O     O_R   0.273120 0.026243 0.615212 -0.406294
O26   O     O_R   0.222433 0.068921 0.737691 -0.417797
H12   H     H_    0.214945 0.738021 0.563373 0.115168
H13   H     H_    0.399538 0.142046 0.441618 0.141150

loop_
_geom_bond_atom_site_label_1
_geom_bond_atom_site_label_2
_geom_bond_distance
_ccdc_geom_bond_type
N2    O23   1.300276 A    
C25   C26   1.246035 T    
C7    C8    1.402612 A    
C12   C15   1.417446 A    
C1    O6    1.313773 A    
C37   C45   1.487655 S    
N3    O25   1.301673 A    
C29   C30   1.245950 T    
O13   V3    1.845652 S    
C21   C22   1.246944 T    
C9    C10   1.427986 A    
C20   C21   1.478721 S    
C18   H12   1.082259 S    
O5    C3    1.312593 A    
C22   C23   1.478764 S    
O19   V4    1.849847 S    
C1    C25   1.503067 S    
V2    O10   2.150020 S    
C8    N2    1.430344 S    
C5    C6    1.385794 A    
C6    C7    1.384165 A    
O8    V2    1.849812 S    
O11   C46   1.313756 A    
N1    O21   1.301732 A    
C11   C12   1.424264 A    
C12   C13   1.423035 A    
C45   O16   1.297450 A    
O1    V2    2.006757 S    
C43   H13   1.082599 S    
O7    V1    2.146753 S    
C30   C46   1.502936 S    
O13   C48   1.310693 A    
C43   C44   1.393341 A    
O17   V4    1.703844 S    
O9    C4    1.296591 A    
C2    C40   1.488407 S    
C41   H7    1.081869 S    
C15   H4    1.080852 S    
C42   H8    1.082658 S    
O17   V3    2.146677 S    
C35   C36   1.423230 A    
O18   C47   1.296417 A    
C7    H3    1.083088 S    
C23   C24   1.246908 T    
O4    C2    1.299149 A    
O19   C48   1.315939 A    
V3    O20   1.702347 S    
C42   C43   1.389649 A    
C37   C38   1.418466 A    
C4    C14   1.487150 S    
C35   C37   1.417894 A    
C19   C20   1.246940 T    
C3    C24   1.504444 S    
O2    C1    1.312311 A    
C27   C28   1.246067 T    
C31   H5    1.081368 S    
C17   C18   1.392300 A    
N3    O26   1.301715 A    
C31   C32   1.403328 A    
O9    V2    2.008479 S    
C39   C40   1.418254 A    
C34   C35   1.412881 A    
C11   C47   1.496937 S    
O3    C4    1.299298 A    
C32   C33   1.398157 A    
N1    O22   1.301106 A    
C44   H9    1.081667 S    
O6    V2    1.835928 S    
N2    O24   1.301393 A    
C5    H1    1.082390 S    
O12   V3    1.993896 S    
C26   C27   1.477358 S    
O2    V1    1.868184 S    
O15   C47   1.308404 A    
C28   C29   1.477241 S    
C13   C18   1.411916 A    
C38   C39   1.424874 A    
C16   C17   1.398765 A    
C33   H6    1.082638 S    
O1    C2    1.297074 A    
O18   V4    2.008379 S    
V4    O20   2.149990 S    
O5    V1    1.845821 S    
C16   N3    1.441127 S    
O8    C3    1.313840 A    
C31   C36   1.415632 A    
O11   V4    1.836402 S    
C5    C10   1.414068 A    
C32   N1    1.439797 S    
C9    C11   1.435006 A    
C13   C14   1.413977 A    
C17   H10   1.082570 S    
O3    V1    1.999167 S    
V1    O10   1.702412 S    
O15   V3    1.999158 S    
C41   C42   1.393260 A    
C19   C48   1.505309 S    
O16   V4    2.010572 S    
O7    V2    1.705057 S    
C34   H11   1.081691 S    
O4    V1    1.993977 S    
C6    H2    1.082727 S    
C8    C9    1.431167 A    
C33   C34   1.391942 A    
C10   C14   1.412615 A    
O14   V3    1.868266 S    
O14   C46   1.312259 A    
O12   C45   1.298350 A    
C39   C44   1.415413 A    
C36   C40   1.419844 A    
C15   C16   1.403393 A    
C38   C41   1.415616 A    
