data_mof_unit_43868.cif
_audit_creation_date              2013-03-05T16:33:39-0500
_audit_creation_method            fapswitch 2.2
_symmetry_space_group_name_H-M    P1
_symmetry_Int_Tables_number       1
_space_group_crystal_system       triclinic
_cell_length_a                    14.977153
_cell_length_b                    14.136202
_cell_length_c                    27.730212
_cell_angle_alpha                 89.996494
_cell_angle_beta                  89.955186
_cell_angle_gamma                 90.029842
_cell_volume                      5871.03955049

loop_
_atom_site_label
_atom_site_type_symbol
_atom_site_description
_atom_site_fract_x
_atom_site_fract_y
_atom_site_fract_z
_atom_type_partial_charge
O1    O     O_R   0.369060 0.579480 0.500000 -0.632380
O2    O     O_R   0.630940 0.420520 0.500000 -0.627285
O3    O     O_R   0.630940 0.579480 0.500000 -0.631526
O4    O     O_R   0.369060 0.420520 0.500000 -0.625340
C1    C     C_R   0.327746 0.499990 0.499536 0.939556
C2    C     C_R   0.672330 0.500057 0.499401 0.937137
O5    O     O_R   0.500010 0.579470 0.428760 -0.590415
O6    O     O_R   0.499990 0.420530 0.571240 -0.635758
O7    O     O_R   0.499990 0.579470 0.571240 -0.589274
O8    O     O_R   0.500010 0.420530 0.428760 -0.635833
C3    C     C_R   0.499871 0.499994 0.405961 0.913578
C4    C     C_R   0.499814 0.499984 0.594048 0.912886
Zn1   Zn    Zn3+2 0.500000 0.606140 0.500000 0.959254
Zn2   Zn    Zn3+2 0.500000 0.393860 0.500000 0.945206
C5    C     C_R   0.413381 0.487778 0.177184 0.505132
C6    C     C_R   0.580867 0.486142 0.822998 0.504731
O9    O     O_2   0.335949 0.498242 0.201562 -0.574869
O10   O     O_2   0.658558 0.495019 0.798684 -0.571113
N1    N     N_R   0.492325 0.483303 0.201676 -0.344119
N2    N     N_R   0.501923 0.483183 0.798439 -0.344315
C7    C     C_R   0.572071 0.472687 0.178387 0.513675
C8    C     C_R   0.421916 0.474436 0.821686 0.513621
C9    C     C_R   0.526948 0.569888 0.275529 -0.216421
C10   C     C_R   0.469305 0.569796 0.724305 -0.214906
C11   C     C_R   0.528051 0.576267 0.325865 0.438034
C12   C     C_R   0.469908 0.576358 0.673970 0.437362
C13   C     C_R   0.460871 0.419226 0.330141 -0.301046
C14   C     C_R   0.535449 0.418571 0.670179 -0.300034
C15   C     C_R   0.458017 0.414916 0.280227 -0.102856
C16   C     C_R   0.536560 0.414034 0.720105 -0.101514
C17   C     C_R   0.491616 0.489812 0.252950 0.265793
C18   C     C_R   0.503076 0.489286 0.747144 0.264735
C19   C     C_R   0.494272 0.473314 0.101848 -0.052546
C20   C     C_R   0.499566 0.473492 0.898283 -0.052409
C21   C     C_R   0.412808 0.482429 0.126810 -0.022399
C22   C     C_R   0.581230 0.480865 0.873360 -0.022811
C23   C     C_R   0.332929 0.487433 0.101119 -0.141828
C24   C     C_R   0.661161 0.484208 0.899071 -0.141342
C25   C     C_R   0.574611 0.467916 0.128044 -0.027283
C26   C     C_R   0.419177 0.469866 0.872047 -0.027200
C27   C     C_R   0.496559 0.499057 0.353316 -0.137888
C28   C     C_R   0.501592 0.498957 0.646731 -0.139309
H1    H     H_    0.435096 0.359961 0.350662 0.174817
H2    H     H_    0.561187 0.359049 0.649865 0.174558
H3    H     H_    0.431036 0.352769 0.262642 0.151196
H4    H     H_    0.562373 0.351563 0.737882 0.151187
H5    H     H_    0.269546 0.495555 0.119522 0.187834
H6    H     H_    0.724715 0.491036 0.880696 0.188460
C29   C     C_R   0.415088 0.467672 0.973939 0.044698
C30   C     C_R   0.578550 0.465764 0.026181 0.044844
C31   C     C_R   0.580048 0.471241 0.975190 0.044722
C32   C     C_R   0.413700 0.472966 0.024949 0.044688
C33   C     C_R   0.498245 0.470496 0.949338 0.071714
C34   C     C_R   0.495482 0.470369 0.050792 0.071711
C35   C     C_R   0.335904 0.460055 0.946428 -0.214921
C36   C     C_R   0.657571 0.456211 0.053660 -0.215084
C37   C     C_R   0.338089 0.461419 0.896451 -0.140076
C38   C     C_R   0.655469 0.457591 0.103625 -0.140307
O11   O     O_2   0.345436 0.469941 0.796045 -0.560662
O12   O     O_2   0.648505 0.466594 0.203982 -0.560574
C39   C     C_R   0.333160 0.482860 0.051176 -0.215217
C40   C     C_R   0.660788 0.479565 0.949000 -0.215399
H7    H     H_    0.441522 0.626636 0.745769 0.150626
H8    H     H_    0.554853 0.626376 0.253849 0.149812
H9    H     H_    0.275553 0.456330 0.876999 0.188516
H10   H     H_    0.717904 0.451048 0.123054 0.188372
H11   H     H_    0.270830 0.451352 0.962356 0.142343
H12   H     H_    0.722418 0.445951 0.037711 0.142343
H13   H     H_    0.268902 0.490140 0.034207 0.142431
H14   H     H_    0.725154 0.485547 0.965989 0.142532
C41   C     C_R   0.098136 0.572849 0.466059 0.507044
C42   C     C_R   0.902899 0.424720 0.468655 0.476446
C43   C     C_R   0.907946 0.579824 0.508699 0.500250
C44   C     C_R   0.091788 0.423945 0.511902 0.502844
C45   C     C_R   0.189622 0.574599 0.472538 -0.310398
C46   C     C_R   0.811289 0.423306 0.474628 -0.288660
C47   C     C_R   0.815740 0.579473 0.511076 -0.309359
C48   C     C_R   0.183974 0.423620 0.514138 -0.308089
H15   H     H_    0.227615 0.633161 0.457801 0.175044
H16   H     H_    0.773943 0.362575 0.461870 0.190728
H17   H     H_    0.781735 0.640211 0.526296 0.173784
H18   H     H_    0.217611 0.364887 0.531479 0.186437
C49   C     C_R   0.232228 0.499906 0.495926 -0.181568
C50   C     C_R   0.767989 0.500435 0.495588 -0.180469
C51   C     C_R   0.048447 0.498623 0.487275 -0.133133
C52   C     C_R   0.951867 0.502101 0.487094 -0.129678
C53   C     C_R   0.451822 0.105114 0.465230 -0.280706
C54   C     C_R   0.575803 0.895000 0.514420 -0.276158
C55   C     C_R   0.548221 0.105154 0.534746 -0.281110
C56   C     C_R   0.424234 0.894931 0.485556 -0.277177
H19   H     H_    0.414674 0.069312 0.437183 0.139368
H20   H     H_    0.636409 0.930810 0.525273 0.140621
H21   H     H_    0.585392 0.069386 0.562783 0.138832
H22   H     H_    0.363637 0.930685 0.474696 0.141600
C57   C     C_R   0.452632 0.204519 0.465930 0.032110
C58   C     C_R   0.574178 0.795632 0.514485 -0.002611
C59   C     C_R   0.547380 0.204558 0.534062 0.030765
C60   C     C_R   0.425839 0.795566 0.485502 -0.003110
H23   H     H_    0.415441 0.243474 0.439042 0.122822
H24   H     H_    0.632659 0.757050 0.526048 0.129142
H25   H     H_    0.584562 0.243542 0.560955 0.121945
H26   H     H_    0.367356 0.756934 0.473935 0.131221
N3    N     N_R   0.500000 0.252470 0.500000 -0.095826
N4    N     N_R   0.500000 0.747530 0.500000 -0.098465
C61   C     C_R   0.500024 0.053364 0.499987 0.133835
C62   C     C_R   0.500021 0.946717 0.499988 0.146238
O13   O     O_3   0.429959 0.652798 0.651471 -0.627167
C63   C     C_3   0.484817 0.733410 0.656916 0.090241
H27   H     H_    0.551842 0.720562 0.640628 0.140000
H28   H     H_    0.492870 0.752350 0.695657 0.129279
C64   C     C_3   0.441118 0.816828 0.631065 -0.284076
H29   H     H_    0.432157 0.799192 0.592364 0.242209
H30   H     H_    0.374148 0.830228 0.646962 0.224418
C65   C     C_3   0.497492 0.906373 0.635381 -0.976764
H31   H     H_    0.503960 0.927496 0.673800 0.266698
H32   H     H_    0.464885 0.964817 0.615263 0.274161
H33   H     H_    0.565077 0.894571 0.620022 0.261923
O14   O     O_3   0.569458 0.652190 0.348087 -0.626411
C66   C     C_3   0.515573 0.733552 0.342936 0.089290
H34   H     H_    0.448349 0.721356 0.359139 0.138818
H35   H     H_    0.507872 0.753120 0.304259 0.129669
C67   C     C_3   0.560224 0.816030 0.369128 -0.282300
H36   H     H_    0.568699 0.797769 0.407785 0.242490
H37   H     H_    0.627463 0.828700 0.353395 0.225211
C68   C     C_3   0.505070 0.906403 0.365006 -0.976052
H38   H     H_    0.499285 0.928200 0.326654 0.266627
H39   H     H_    0.538227 0.964086 0.385453 0.274608
H40   H     H_    0.437181 0.895293 0.380116 0.262343
O15   O     O_3   0.058730 0.649574 0.443275 -0.597946
C69   C     C_3   0.027703 0.624369 0.396814 0.109257
H41   H     H_    0.988407 0.685169 0.382946 0.182489
H42   H     H_    0.980582 0.564000 0.398014 0.105132
C70   C     C_3   0.104613 0.605360 0.361338 -0.430078
H43   H     H_    0.149761 0.667749 0.360280 0.236476
H44   H     H_    0.143790 0.542880 0.373244 0.213267
C71   C     C_3   0.069349 0.585802 0.310711 -0.901174
H45   H     H_    0.024872 0.522871 0.311009 0.260843
H46   H     H_    0.126180 0.571681 0.286001 0.283471
H47   H     H_    0.031703 0.647899 0.297002 0.266294
O16   O     O_3   0.943729 0.345761 0.448949 -0.592318
C72   C     C_3   0.969585 0.365264 0.401010 0.069968
H48   H     H_    0.030888 0.409505 0.400893 0.141675
H49   H     H_    0.915394 0.401617 0.380507 0.127661
C73   C     C_3   0.991277 0.272321 0.375540 -0.299262
H50   H     H_    0.044471 0.234533 0.395782 0.237311
H51   H     H_    0.930713 0.226852 0.374803 0.227709
C74   C     C_3   0.023076 0.289583 0.323972 -0.957356
H52   H     H_    0.970373 0.326051 0.302814 0.271555
H53   H     H_    0.038263 0.220857 0.306415 0.270923
H54   H     H_    0.084576 0.333585 0.323963 0.269898
O17   O     O_3   0.952883 0.660746 0.523200 -0.598174
C75   C     C_3   0.989290 0.649157 0.569904 0.110245
H55   H     H_    0.038766 0.706819 0.575135 0.185359
H56   H     H_    0.027230 0.582172 0.573825 0.106575
C76   C     C_3   0.917556 0.657615 0.609242 -0.420235
H57   H     H_    0.876351 0.721694 0.602652 0.237132
H58   H     H_    0.873328 0.594517 0.608283 0.209837
C77   C     C_3   0.959525 0.664543 0.659237 -0.906873
H59   H     H_    0.002665 0.602212 0.666249 0.265661
H60   H     H_    0.906126 0.666906 0.687010 0.271551
H61   H     H_    0.000296 0.729951 0.662167 0.266056
O18   O     O_3   0.046262 0.345928 0.529695 -0.594615
C78   C     C_3   0.009605 0.365248 0.575705 0.098853
H62   H     H_    0.960130 0.308634 0.583392 0.182459
H63   H     H_    0.971610 0.432602 0.576661 0.105387
C79   C     C_3   0.081094 0.363480 0.615341 -0.406237
H64   H     H_    0.122210 0.298435 0.611693 0.242850
H65   H     H_    0.125445 0.426087 0.611603 0.215835
C80   C     C_3   0.038809 0.365286 0.665411 -0.903832
H66   H     H_    0.995749 0.428670 0.669549 0.262303
H67   H     H_    0.092033 0.367625 0.693239 0.278972
H68   H     H_    0.997892 0.300718 0.671223 0.263476

loop_
_geom_bond_atom_site_label_1
_geom_bond_atom_site_label_2
_geom_bond_distance
_ccdc_geom_bond_type
C77   H60   1.110365 S    
C54   C58   1.404882 A    
C53   H19   1.082145 S    
C13   C15   1.386169 A    
C80   H66   1.110153 S    
C69   H42   1.107607 S    
C74   H52   1.110932 S    
C42   C46   1.382032 A    
O3    C2    1.282885 A    
N1    C17   1.424850 S    
C11   O14   1.384277 S    
C46   C50   1.395475 A    
C65   H31   1.110729 S    
C51   C52   1.447361 S    
O5    C3    1.289193 A    
C78   H63   1.109784 S    
C19   C25   1.408109 A    
O1    C1    1.282570 A    
C74   H53   1.110298 S    
C10   C12   1.398909 A    
O18   C78   1.415251 S    
C32   C39   1.415052 A    
C72   H49   1.116787 S    
C1    C49   1.434171 S    
C57   H23   1.081831 S    
C76   H58   1.111072 S    
C63   H27   1.115431 S    
C40   H14   1.076609 S    
O7    Zn1   2.011128 S    
O14   C66   1.412687 S    
C4    C28   1.461246 S    
C77   H61   1.110807 S    
C41   C51   1.413989 A    
C48   C49   1.392416 A    
C38   H10   1.083568 S    
C54   H20   1.082004 S    
C57   N3    1.362339 A    
C13   C27   1.404363 A    
C53   C57   1.405396 A    
C70   C71   1.525582 S    
O13   C63   1.412677 S    
C23   H5    1.083579 S    
C24   H6    1.083576 S    
O3    Zn1   1.997185 S    
C6    N2    1.365549 A    
O17   C75   1.415166 S    
C43   O17   1.386685 S    
C76   C77   1.525809 S    
C79   H65   1.111086 S    
C80   H67   1.110378 S    
O2    C2    1.283737 A    
C31   C40   1.414932 A    
C73   C74   1.526462 S    
C5    C21   1.398942 A    
C32   C34   1.420070 A    
C56   H22   1.082002 S    
C66   H35   1.113689 S    
C65   H33   1.110557 S    
C2    C50   1.436533 S    
C16   C18   1.394769 A    
C78   C79   1.535248 S    
O16   C72   1.411455 S    
C56   C62   1.408674 A    
C7    O12   1.350187 S    
C71   H46   1.110454 S    
O8    Zn2   2.011131 S    
C72   C73   1.526689 S    
C11   C27   1.411398 A    
C8    O11   1.350130 S    
C44   O18   1.386845 S    
O4    C1    1.282892 A    
C47   C50   1.394266 A    
C29   C35   1.414705 A    
C25   C38   1.394762 A    
C14   H2    1.083479 S    
C30   C36   1.414614 A    
C15   H3    1.083006 S    
C65   H32   1.110452 S    
C31   C33   1.420022 A    
C71   H47   1.110763 S    
C77   H59   1.110151 S    
C5    N1    1.365497 A    
C10   C18   1.397576 A    
N1    C7    1.365679 A    
C60   H26   1.080881 S    
C41   O15   1.387445 S    
C70   H43   1.111427 S    
C54   C62   1.408685 A    
C48   H18   1.084035 S    
C23   C39   1.386432 A    
C29   C33   1.420117 A    
C53   C61   1.409537 A    
C75   C76   1.535199 S    
C47   H17   1.083934 S    
O6    C4    1.289046 A    
C29   C32   1.416652 A    
C8    C26   1.398585 A    
C74   H54   1.111173 S    
C30   C31   1.416269 A    
C64   H30   1.111653 S    
C30   C34   1.420057 A    
Zn1   N4    1.998718 S    
C59   N3    1.362319 A    
C20   C33   1.416525 A    
C73   H51   1.111646 S    
C9    H8    1.083043 S    
C75   H56   1.109949 S    
C10   H7    1.083064 S    
C35   C37   1.386344 A    
C79   H64   1.111496 S    
C80   H68   1.110801 S    
C20   C26   1.408128 A    
C69   C70   1.537979 S    
O1    Zn1   1.996801 S    
C42   O16   1.385164 S    
C67   H37   1.111611 S    
C22   C24   1.394631 A    
C12   C28   1.411732 A    
C70   H44   1.110938 S    
O15   C69   1.415497 S    
N2    C18   1.425104 S    
C66   C67   1.527807 S    
C39   H13   1.076594 S    
C19   C34   1.416510 A    
C5    O9    1.350107 S    
O6    Zn2   2.011173 S    
C26   C37   1.394880 A    
C64   H29   1.110015 S    
C21   C23   1.394726 A    
C7    C25   1.398145 A    
C16   H4    1.083025 S    
C46   H16   1.083928 S    
N2    C8    1.365782 A    
C71   H45   1.111121 S    
C12   O13   1.384216 S    
C42   C52   1.412692 A    
C66   H34   1.115530 S    
C63   H28   1.113806 S    
C14   C16   1.386077 A    
C61   C62   1.507588 S    
C63   C64   1.527812 S    
C73   H50   1.111866 S    
C55   C61   1.409515 A    
C67   C68   1.526021 S    
C58   N4    1.363051 A    
C69   H41   1.110779 S    
C35   H11   1.076720 S    
C15   C17   1.394652 A    
O4    Zn2   1.997186 S    
C36   H12   1.076741 S    
C72   H48   1.110644 S    
C6    C22   1.398554 A    
C41   C45   1.382276 A    
C45   C49   1.394259 A    
Zn2   N3    1.998718 S    
C68   H38   1.110701 S    
C68   H40   1.110509 S    
C60   N4    1.363038 A    
C58   H24   1.080911 S    
C14   C28   1.404359 A    
C19   C21   1.408289 A    
C36   C38   1.386012 A    
C3    C27   1.460780 S    
C64   C65   1.525973 S    
C20   C22   1.408201 A    
C9    C11   1.398834 A    
C44   C51   1.415438 A    
C55   H21   1.082136 S    
O2    Zn2   1.996799 S    
O7    C4    1.289371 A    
C43   C52   1.413880 A    
C78   H62   1.110897 S    
O8    C3    1.288988 A    
C13   H1    1.083486 S    
O5    Zn1   2.011176 S    
C75   H55   1.110913 S    
C79   C80   1.525816 S    
C6    O10   1.350131 S    
C44   C48   1.382128 A    
C55   C59   1.405375 A    
C76   H57   1.111545 S    
C68   H39   1.110434 S    
C43   C47   1.382497 A    
C24   C40   1.386080 A    
C67   H36   1.109989 S    
C45   H15   1.084072 S    
C56   C60   1.404863 A    
C59   H25   1.081816 S    
C9    C17   1.397636 A    
C37   H9    1.083560 S    
