data_mof_unit_18439.cif
_audit_creation_date              2013-03-05T15:44:58-0500
_audit_creation_method            fapswitch 2.2
_symmetry_space_group_name_H-M    P1
_symmetry_Int_Tables_number       1
_space_group_crystal_system       triclinic
_cell_length_a                    17.214351
_cell_length_b                    24.27424
_cell_length_c                    14.928707
_cell_angle_alpha                 90.0656
_cell_angle_beta                  125.321581
_cell_angle_gamma                 90.104899
_cell_volume                      5089.83485476

loop_
_atom_site_label
_atom_site_type_symbol
_atom_site_description
_atom_site_fract_x
_atom_site_fract_y
_atom_site_fract_z
_atom_type_partial_charge
C1    C     C_R   0.310681 0.375141 0.910320 -0.087451
C2    C     C_R   0.641577 0.345938 0.088333 -0.034735
C3    C     C_R   0.810682 0.875140 0.910319 -0.087468
C4    C     C_R   0.141537 0.845929 0.088324 -0.034222
H1    H     H_    0.251669 0.369826 0.826255 0.145177
H2    H     H_    0.672041 0.330612 0.169949 0.152518
H3    H     H_    0.751670 0.869825 0.826255 0.145203
H4    H     H_    0.171966 0.830597 0.169930 0.152417
N1    N     N_R   0.395440 0.396300 0.944370 -0.035072
N2    N     N_R   0.604560 0.396300 0.055630 -0.067203
N3    N     N_R   0.895440 0.896300 0.944370 -0.035082
N4    N     N_R   0.104560 0.896300 0.055630 -0.067219
C5    C     C_R   0.400586 0.624073 0.090751 -0.117096
C6    C     C_R   0.557454 0.651773 0.910098 -0.134579
C7    C     C_R   0.900584 0.124069 0.090752 -0.117099
C8    C     C_R   0.057456 0.151773 0.910098 -0.134579
N5    N     N_R   0.449890 0.602500 0.055780 -0.041696
N6    N     N_R   0.550110 0.602500 0.944220 -0.040124
N7    N     N_R   0.949890 0.102500 0.055780 -0.041695
N8    N     N_R   0.050110 0.102500 0.944220 -0.040122
C9    C     C_R   0.549467 0.453892 0.303604 -0.118034
C10   C     C_R   0.519920 0.453337 0.751079 -0.082873
C11   C     C_R   0.049467 0.953891 0.303602 -0.118087
C12   C     C_R   0.019920 0.953336 0.751081 -0.082850
N9    N     N_R   0.525090 0.470990 0.205640 -0.043333
N10   N     N_R   0.474910 0.470990 0.794360 -0.035676
N11   N     N_R   0.025090 0.970990 0.205640 -0.043332
N12   N     N_R   0.974910 0.970990 0.794360 -0.035678
C13   C     C_R   0.239828 0.545117 0.702075 -0.216771
C14   C     C_R   0.766426 0.546174 0.242187 -0.196157
C15   C     C_R   0.739830 0.045121 0.702078 -0.216786
C16   C     C_R   0.266431 0.046174 0.242189 -0.196148
H5    H     H_    0.225795 0.587074 0.672468 0.125773
H6    H     H_    0.786941 0.588950 0.250653 0.128371
H7    H     H_    0.725806 0.087078 0.672473 0.125773
H8    H     H_    0.286945 0.088949 0.250649 0.128368
N13   N     N_R   0.320240 0.527820 0.794510 -0.060621
N14   N     N_R   0.679760 0.527820 0.205490 -0.061390
N15   N     N_R   0.820240 0.027820 0.794510 -0.060622
N16   N     N_R   0.179760 0.027820 0.205490 -0.061393
C17   C     C_R   0.548448 0.545307 0.302878 -0.137857
C18   C     C_R   0.520728 0.545559 0.752040 -0.125333
C19   C     C_R   0.048448 0.045305 0.302880 -0.137847
C20   C     C_R   0.020729 0.045558 0.752039 -0.125326
H9    H     H_    0.566388 0.587595 0.329992 0.094049
H10   H     H_    0.531300 0.588336 0.742403 0.100324
H11   H     H_    0.066385 0.087593 0.329997 0.094046
H12   H     H_    0.031302 0.088334 0.742398 0.100327
N17   N     N_R   0.524580 0.527810 0.205160 -0.041171
N18   N     N_R   0.475420 0.527810 0.794840 -0.045893
N19   N     N_R   0.024580 0.027810 0.205160 -0.041166
N20   N     N_R   0.975420 0.027810 0.794840 -0.045892
C21   C     C_R   0.241966 0.453672 0.700311 0.320465
C22   C     C_R   0.768721 0.454366 0.246199 0.353360
C23   C     C_R   0.741961 0.953677 0.700307 0.320464
C24   C     C_R   0.268719 0.954367 0.246178 0.353430
N21   N     N_R   0.320750 0.470990 0.794990 -0.090603
N22   N     N_R   0.679250 0.470990 0.205010 -0.091594
N23   N     N_R   0.820750 0.970990 0.794990 -0.090599
N24   N     N_R   0.179250 0.970990 0.205010 -0.091615
C25   C     C_R   0.309632 0.624851 0.907072 -0.114367
C26   C     C_R   0.647525 0.651941 0.092164 -0.131753
C27   C     C_R   0.809630 0.124847 0.907073 -0.114366
C28   C     C_R   0.147527 0.151940 0.092164 -0.131757
N25   N     N_R   0.393580 0.602500 0.942610 -0.039719
N26   N     N_R   0.606420 0.602500 0.057390 -0.037927
N27   N     N_R   0.893580 0.102500 0.942610 -0.039719
N28   N     N_R   0.106420 0.102500 0.057390 -0.037924
C29   C     C_R   0.402897 0.375128 0.093407 -0.122877
C30   C     C_R   0.554356 0.347060 0.906995 -0.111490
C31   C     C_R   0.902897 0.875127 0.093407 -0.122919
C32   C     C_R   0.054343 0.847057 0.906991 -0.111525
N29   N     N_R   0.451750 0.396300 0.057540 -0.049903
N30   N     N_R   0.548250 0.396300 0.942460 -0.046223
N31   N     N_R   0.951750 0.896300 0.057540 -0.049930
N32   N     N_R   0.048250 0.896300 0.942460 -0.046241
C33   C     C_R   0.312518 0.362354 0.002155 0.007552
C34   C     C_R   0.612381 0.314195 0.997306 -0.001169
C35   C     C_R   0.812519 0.862353 0.002155 0.007582
C36   C     C_R   0.112346 0.814187 0.997298 -0.001240
C37   C     C_R   0.310847 0.637686 0.998612 0.039139
C38   C     C_R   0.617652 0.684088 0.001421 0.051195
C39   C     C_R   0.810844 0.137679 0.998613 0.039134
C40   C     C_R   0.117655 0.184088 0.001421 0.051195
C41   C     C_R   0.565288 0.499699 0.367119 0.046566
C42   C     C_R   0.551141 0.499498 0.725062 0.019361
C43   C     C_R   0.065288 0.999697 0.367118 0.046584
C44   C     C_R   0.051143 0.999495 0.725063 0.019365
C45   C     C_R   0.188823 0.499362 0.642009 -0.013183
C46   C     C_R   0.824232 0.501377 0.266336 0.004498
C47   C     C_R   0.688819 0.999369 0.642005 -0.013111
C48   C     C_R   0.324237 0.001376 0.266329 0.004463
Ni1   Ni    Ni4+2 0.435420 0.434250 0.870220 0.282257
Ni2   Ni    Ni4+2 0.564580 0.434250 0.129780 0.244777
Ni3   Ni    Ni4+2 0.935420 0.934250 0.870220 0.282245
Ni4   Ni    Ni4+2 0.064580 0.934250 0.129780 0.244738
Ni5   Ni    Ni4+2 0.563400 0.564580 0.128670 0.209071
Ni6   Ni    Ni4+2 0.436600 0.564580 0.871330 0.207998
Ni7   Ni    Ni4+2 0.063400 0.064580 0.128670 0.209074
Ni8   Ni    Ni4+2 0.936600 0.064580 0.871330 0.208005
C49   C     C_2   0.987969 0.468060 0.347830 -0.076727
C50   C     C_2   0.085051 0.472523 0.448215 -0.056153
C51   C     C_2   0.487967 0.968032 0.347849 -0.076884
C52   C     C_2   0.585051 0.972512 0.448220 -0.056278
C53   C     C_2   0.926342 0.508756 0.321336 -0.199281
C54   C     C_2   0.100660 0.501586 0.533799 -0.140848
C55   C     C_2   0.426348 0.008746 0.321272 -0.199201
C56   C     C_2   0.600668 0.001605 0.533776 -0.140874
H13   H     H_    0.966169 0.429120 0.305328 0.201777
H14   H     H_    0.140319 0.446644 0.456756 0.160689
H15   H     H_    0.466154 0.929049 0.305490 0.201902
H16   H     H_    0.640306 0.946605 0.456793 0.160766
H17   H     H_    0.953462 0.549809 0.354036 0.134644
H18   H     H_    0.045900 0.526910 0.527600 0.135976
H19   H     H_    0.453482 0.049812 0.353882 0.134662
H20   H     H_    0.545919 0.026964 0.527535 0.135972
C57   C     C_R   0.155045 0.685400 0.898479 -0.166485
C58   C     C_R   0.709424 0.768083 0.101688 -0.162180
C59   C     C_R   0.655048 0.185397 0.898484 -0.166482
C60   C     C_R   0.209427 0.268083 0.101689 -0.162186
C61   C     C_R   0.605295 0.230281 0.898063 -0.156090
C62   C     C_R   0.257536 0.313851 0.101848 -0.154759
C63   C     C_R   0.105276 0.730276 0.898056 -0.156079
C64   C     C_R   0.757535 0.813851 0.101847 -0.154755
H21   H     H_    0.549112 0.247205 0.819653 0.117512
H22   H     H_    0.315987 0.329825 0.180204 0.110919
H23   H     H_    0.049089 0.747198 0.819646 0.117515
H24   H     H_    0.815986 0.829825 0.180203 0.110918
C65   C     C_R   0.636529 0.256503 0.997291 0.132708
C66   C     C_R   0.238376 0.333079 0.002458 0.134935
C67   C     C_R   0.136500 0.756496 0.997284 0.132682
C68   C     C_R   0.738377 0.833077 0.002457 0.134930
C69   C     C_R   0.704673 0.230655 0.096864 -0.134446
C70   C     C_R   0.156592 0.314495 0.903169 -0.151661
C71   C     C_R   0.204652 0.730651 0.096857 -0.134368
C72   C     C_R   0.656592 0.814494 0.903168 -0.151662
C73   C     C_R   0.254374 0.685838 0.097197 -0.157713
C74   C     C_R   0.608417 0.768714 0.902918 -0.156196
C75   C     C_R   0.754379 0.185834 0.097202 -0.157711
C76   C     C_R   0.108419 0.268714 0.902918 -0.156200
H25   H     H_    0.312745 0.670169 0.175647 0.117625
H26   H     H_    0.551995 0.751708 0.824480 0.119748
H27   H     H_    0.812745 0.170162 0.175651 0.117629
H28   H     H_    0.051997 0.251707 0.824480 0.119750
C77   C     C_R   0.236511 0.667094 0.998071 0.134930
C78   C     C_R   0.641430 0.741971 0.002050 0.130711
C79   C     C_R   0.736511 0.167087 0.998074 0.134931
C80   C     C_R   0.141434 0.241970 0.002050 0.130710
C81   C     C_R   0.605528 0.549600 0.626182 -0.156625
C82   C     C_R   0.607092 0.549681 0.534529 -0.164740
C83   C     C_R   0.105559 0.049591 0.626206 -0.156624
C84   C     C_R   0.107125 0.049672 0.534551 -0.164736
C85   C     C_R   0.598468 0.499797 0.482033 0.137987
C86   C     C_R   0.594151 0.499676 0.664572 0.139908
C87   C     C_R   0.098467 0.999790 0.482033 0.137983
C88   C     C_R   0.094152 0.999668 0.664574 0.139906
C89   C     C_R   0.607658 0.449922 0.534666 -0.152066
C90   C     C_R   0.605985 0.449888 0.626243 -0.163515
C91   C     C_R   0.107625 0.949912 0.534644 -0.152072
C92   C     C_R   0.105956 0.949879 0.626222 -0.163491
H29   H     H_    0.606905 0.410590 0.500246 0.115343
H30   H     H_    0.604050 0.410585 0.658839 0.112227
H31   H     H_    0.106840 0.910580 0.500204 0.115321
H32   H     H_    0.103995 0.910575 0.658796 0.112223
H33   H     H_    0.134981 0.669224 0.820315 0.111253
H34   H     H_    0.732853 0.750533 0.179985 0.112153
H35   H     H_    0.634979 0.169219 0.820320 0.111256
H36   H     H_    0.232858 0.250532 0.179986 0.112155
H37   H     H_    0.727208 0.247901 0.175202 0.138848
H38   H     H_    0.135324 0.331050 0.824909 0.137237
H39   H     H_    0.227183 0.747896 0.175195 0.138861
H40   H     H_    0.635325 0.831048 0.824908 0.137248
H41   H     H_    0.603253 0.588878 0.658707 0.116677
H42   H     H_    0.605855 0.589013 0.499937 0.117407
H43   H     H_    0.103312 0.088869 0.658753 0.116684
H44   H     H_    0.105918 0.089004 0.499978 0.117412
H45   H     H_    0.427436 0.628837 0.175865 0.098684
H46   H     H_    0.510895 0.665408 0.826012 0.091124
H47   H     H_    0.927435 0.128833 0.175866 0.098686
H48   H     H_    0.010897 0.165407 0.826012 0.091126
H49   H     H_    0.568559 0.411845 0.331351 0.104727
H50   H     H_    0.529718 0.410595 0.740346 0.097175
H51   H     H_    0.068562 0.911844 0.331346 0.104697
H52   H     H_    0.029719 0.910593 0.740354 0.097172
N33   N     N_R   0.230728 0.399398 0.656475 0.207931
O1    O     O_R   0.146618 0.377053 0.595069 -0.399937
O2    O     O_R   0.305381 0.369508 0.689568 -0.444476
N34   N     N_R   0.804334 0.401460 0.294863 0.219816
O3    O     O_R   0.843112 0.369437 0.261233 -0.442251
O4    O     O_R   0.782732 0.381459 0.358683 -0.421745
N35   N     N_R   0.730711 0.899402 0.656471 0.207910
O5    O     O_R   0.646599 0.877053 0.595104 -0.400025
O6    O     O_R   0.805360 0.869511 0.689540 -0.444476
N36   N     N_R   0.304328 0.901444 0.294758 0.219728
O7    O     O_R   0.342908 0.869404 0.260891 -0.442415
O8    O     O_R   0.282842 0.881438 0.358690 -0.421708
H53   H     H_    0.252531 0.631259 0.822142 0.093871
H54   H     H_    0.683669 0.665820 0.176060 0.089910
H55   H     H_    0.752528 0.131256 0.822144 0.093874
H56   H     H_    0.183671 0.165820 0.176060 0.089912
H57   H     H_    0.430561 0.370157 0.178671 0.096819
H58   H     H_    0.508180 0.333844 0.822430 0.128033
H59   H     H_    0.930561 0.870156 0.178671 0.096826
H60   H     H_    0.008170 0.833844 0.822424 0.128038

loop_
_geom_bond_atom_site_label_1
_geom_bond_atom_site_label_2
_geom_bond_distance
_ccdc_geom_bond_type
C30   H58   1.079949 S    
N36   O8    1.300824 A    
C7    N7    1.334360 A    
C29   H57   1.077587 S    
C89   C90   1.383967 A    
N16   N24   1.379501 A    
C10   C42   1.391209 A    
C23   N23   1.339358 A    
C12   H52   1.077988 S    
C1    C33   1.388465 A    
C6    N6    1.334669 A    
C29   C33   1.385273 A    
C14   C46   1.375741 A    
C14   H6    1.079633 S    
C3    C35   1.388465 A    
C76   C80   1.401990 A    
N16   Ni7   1.864486 S    
C31   C35   1.385274 A    
N33   O1    1.300827 A    
C2    H2    1.077442 S    
C9    H49   1.079873 S    
C75   C79   1.401155 A    
C49   C50   1.467463 S    
N1    N29   1.378501 A    
C54   H18   1.084647 S    
N12   Ni3   1.852117 S    
C1    H1    1.071705 S    
C28   N28   1.334630 A    
N26   Ni5   1.854468 S    
C53   H17   1.087653 S    
C34   C65   1.461574 S    
N25   Ni6   1.854605 S    
C22   C46   1.403152 A    
C7    H47   1.077906 S    
N10   N18   1.379258 A    
N32   Ni3   1.835998 S    
C70   C76   1.384093 A    
C68   C72   1.402057 A    
N33   O2    1.300816 A    
C30   C34   1.378413 A    
N2    Ni2   1.851643 S    
C49   H13   1.076521 S    
C92   H32   1.080649 S    
C13   H5    1.081414 S    
C8    C40   1.381590 A    
C32   C36   1.378398 A    
C64   C68   1.401587 A    
C57   C77   1.402670 A    
C18   H10   1.077946 S    
C57   C63   1.384861 A    
C21   N33   1.432505 S    
C28   C40   1.380904 A    
C23   C47   1.381982 A    
N14   N22   1.379501 A    
C75   H27   1.080542 S    
C72   H40   1.080510 S    
N34   O4    1.300695 A    
C57   H33   1.080515 S    
C69   H37   1.080341 S    
C82   C85   1.401811 A    
C45   C54   1.442707 S    
C30   N30   1.335441 A    
C83   C84   1.384044 A    
N7    N27   1.378501 A    
C18   C42   1.389751 A    
C71   H39   1.080343 S    
C4    N4    1.335447 A    
C19   H11   1.079944 S    
C81   H41   1.080479 S    
N2    N30   1.378502 A    
C4    H4    1.077462 S    
C32   H60   1.079949 S    
C37   C77   1.462378 S    
C20   N20   1.333375 A    
N10   Ni1   1.852117 S    
C40   C80   1.461238 S    
N36   O7    1.300321 A    
C26   C38   1.380902 A    
N9    Ni2   1.852067 S    
C27   H55   1.076037 S    
C36   C67   1.461583 S    
C11   C43   1.381117 A    
C49   C53   1.333139 D    
N30   Ni1   1.835998 S    
N11   Ni4   1.852067 S    
C66   C70   1.402056 A    
N23   Ni3   1.843495 S    
N29   Ni2   1.831185 S    
N3    N31   1.378501 A    
N14   Ni5   1.864486 S    
C17   N17   1.334978 A    
N13   Ni6   1.859713 S    
C38   C78   1.461237 S    
C60   C62   1.383662 A    
N31   Ni4   1.831185 S    
C27   N27   1.334601 A    
C59   C61   1.384850 A    
N19   Ni7   1.851946 S    
N13   N21   1.379550 A    
C9    C41   1.381127 A    
N18   Ni6   1.851864 S    
C83   H43   1.080483 S    
C26   N26   1.334630 A    
C87   C91   1.402619 A    
N35   O5    1.300848 A    
C76   H28   1.080401 S    
C88   C92   1.401304 A    
C1    N1    1.337947 A    
C26   H54   1.080028 S    
C72   C74   1.384098 A    
C74   H26   1.080400 S    
C25   H53   1.076038 S    
C52   H16   1.085465 S    
C21   N21   1.339327 A    
C13   C45   1.375623 A    
C41   C85   1.461575 S    
C39   C79   1.462365 S    
N1    Ni1   1.851651 S    
N20   Ni8   1.851864 S    
C24   N24   1.349414 A    
C84   H44   1.080380 S    
C27   C39   1.389583 A    
N34   O3    1.300181 A    
C23   N35   1.432499 S    
C62   H22   1.080576 S    
C31   H59   1.077587 S    
C81   C86   1.402120 A    
N35   O6    1.300825 A    
C61   H21   1.080672 S    
C2    C34   1.378200 A    
C48   C55   1.458050 S    
C63   H23   1.080672 S    
C91   C92   1.383947 A    
N8    Ni8   1.839010 S    
C84   C87   1.401821 A    
C58   C78   1.402235 A    
C8    N8    1.334672 A    
C5    C37   1.390493 A    
N15   N23   1.379550 A    
C8    H48   1.079921 S    
C73   H25   1.080541 S    
C32   N32   1.335454 A    
C58   C64   1.383665 A    
C83   C88   1.402122 A    
C29   N29   1.333344 A    
C12   C44   1.391200 A    
C55   H19   1.087722 S    
C11   H51   1.079870 S    
C6    H46   1.079922 S    
C10   N10   1.334519 A    
N27   Ni8   1.854605 S    
C18   N18   1.333357 A    
C24   N36   1.429357 S    
N24   Ni4   1.838748 S    
C82   H42   1.080379 S    
C69   C75   1.383602 A    
C11   N11   1.333989 A    
C28   H56   1.080028 S    
C21   C45   1.381921 A    
C91   H31   1.080226 S    
C50   H14   1.085438 S    
C6    C38   1.381588 A    
C44   C88   1.461768 S    
C89   H29   1.080220 S    
C52   C56   1.342594 D    
C60   H36   1.080304 S    
C51   C55   1.333203 D    
C22   N22   1.349389 A    
C73   C77   1.401157 A    
C71   C73   1.383613 A    
C9    N9    1.334003 A    
N7    Ni7   1.843831 S    
C65   C69   1.402815 A    
C60   C80   1.402236 A    
C63   C67   1.401522 A    
N5    N25   1.378501 A    
C47   C56   1.442777 S    
N8    N28   1.378501 A    
C12   N12   1.334502 A    
C46   C53   1.457944 S    
C61   C65   1.401524 A    
C22   N34   1.429304 S    
C7    C39   1.390484 A    
C16   H8    1.079631 S    
C4    C36   1.378183 A    
C51   H15   1.076607 S    
C5    N5    1.334366 A    
N6    N26   1.378501 A    
C17   C41   1.382587 A    
C3    H3    1.071705 S    
C64   H24   1.080577 S    
C19   C43   1.382594 A    
C56   H20   1.084700 S    
N4    N32   1.378502 A    
C42   C86   1.461766 S    
N28   Ni7   1.854467 S    
C10   H50   1.077992 S    
C25   C37   1.389584 A    
C81   C82   1.384022 A    
C31   N31   1.333348 A    
N12   N20   1.379258 A    
C19   N19   1.334993 A    
N15   Ni8   1.859713 S    
C16   C48   1.375775 A    
N5    Ni5   1.843832 S    
C74   C78   1.401991 A    
C5    H45   1.077907 S    
C35   C68   1.461954 S    
C15   H7    1.081412 S    
N11   N19   1.379307 A    
C58   H34   1.080306 S    
C50   C54   1.342591 D    
C59   H35   1.080515 S    
C43   C87   1.461578 S    
C33   C66   1.461955 S    
C16   N16   1.332844 A    
C85   C89   1.402622 A    
N9    N17   1.379307 A    
C3    N3    1.337949 A    
C90   H30   1.080650 S    
N17   Ni5   1.851946 S    
C67   C71   1.402814 A    
C25   N25   1.334602 A    
C24   C48   1.403126 A    
N3    Ni3   1.851651 S    
C15   C47   1.375604 A    
C70   H38   1.080509 S    
C13   N13   1.338398 A    
C51   C52   1.467443 S    
C15   N15   1.338395 A    
C86   C90   1.401301 A    
C17   H9    1.079942 S    
N4    Ni4   1.851643 S    
N21   Ni1   1.843495 S    
N6    Ni6   1.839010 S    
C14   N14   1.332792 A    
C20   C44   1.389761 A    
C59   C79   1.402664 A    
C62   C66   1.401586 A    
N22   Ni2   1.838748 S    
C20   H12   1.077950 S    
C2    N2    1.335430 A    
