data_mof_unit_5245.cif
_audit_creation_date              2012-12-11T20:57:50-0500
_audit_creation_method            fapswitch 2.2
_symmetry_space_group_name_H-M    P1
_symmetry_Int_Tables_number       1
_space_group_crystal_system       triclinic
_cell_length_a                    8.256751
_cell_length_b                    18.880423
_cell_length_c                    22.745911
_cell_angle_alpha                 100.19896
_cell_angle_beta                  89.645769
_cell_angle_gamma                 91.568642
_cell_volume                      3488.54155412

loop_
_atom_site_label
_atom_site_type_symbol
_atom_type_description
_atom_site_fract_x
_atom_site_fract_y
_atom_site_fract_z
_atom_type_partial_charge
Ba1   Ba    Ba6+2 0.157800 0.534120 0.474430 1.746956
Ba2   Ba    Ba6+2 0.652390 0.465870 0.525520 1.705045
C1    C     C_3   0.358153 0.779482 0.277707 0.241048
C2    C     C_R   0.061413 0.905694 0.564290 -0.088024
C3    C     C_R   0.204726 0.044994 0.549311 -0.142567
C4    C     C_3   0.899132 0.723777 0.349679 0.593434
C5    C     C_R   0.048537 0.022899 0.528613 0.008785
C6    C     C_R   0.270345 0.113502 0.546525 0.389771
C7    C     C_R   0.175523 0.164971 0.524837 0.019267
C8    C     C_R   0.021198 0.142233 0.499171 -0.115139
C9    C     C_R   0.959547 0.070555 0.500297 -0.014837
C10   C     C_R   0.229916 0.237678 0.526097 0.046678
C11   C     C_R   0.130027 0.285741 0.504590 -0.328926
C12   C     C_3   0.414830 0.738235 0.325571 0.688189
C13   C     C_R   0.984592 0.263766 0.475527 0.091597
C14   C     C_R   0.932156 0.189754 0.469705 0.000383
C15   C     C_R   0.839402 0.927654 0.501313 0.038407
C16   C     C_3   0.912231 0.798901 0.332969 0.291223
C17   C     C_R   0.784133 0.854618 0.498734 -0.010581
C18   C     C_R   0.873912 0.806634 0.526763 -0.102365
C19   C     C_R   0.006656 0.834903 0.562164 -0.020765
C20   C     C_R   0.798051 0.160434 0.434114 0.441363
C21   C     C_R   0.737705 0.090972 0.436959 -0.113711
C22   C     C_R   0.811496 0.046135 0.471551 -0.014599
C23   C     C_3   0.507388 0.692033 0.636503 0.721989
C24   C     C_R   0.748475 0.975360 0.473707 0.032300
C25   C     C_R   0.595093 0.950815 0.450080 -0.079609
C26   C     C_R   0.637019 0.830217 0.469359 -0.099676
C27   C     C_R   0.541208 0.880071 0.447844 -0.072713
C28   C     C_3   0.810226 0.375704 0.344497 0.393293
C29   C     C_R   0.589382 0.756838 0.462724 -0.045928
C30   C     C_R   0.690846 0.708194 0.483893 0.143655
C31   C     C_R   0.827434 0.732321 0.518875 -0.003418
C32   C     C_R   0.646037 0.524003 0.335810 -0.298715
C33   C     C_R   0.321664 0.565847 0.954154 -0.010329
C34   C     C_3   0.594339 0.754855 0.676775 -0.324410
C35   C     C_R   0.274527 0.561886 0.893972 0.581853
C36   C     C_R   0.291895 0.433207 0.876884 0.612868
C37   C     C_R   0.340403 0.435285 0.936658 -0.076057
C38   C     C_R   0.355000 0.501969 0.975537 -0.058139
C39   C     C_R   0.337899 0.632232 0.993239 -0.075952
C40   C     C_3   0.796489 0.357383 0.276386 0.277220
C41   C     C_R   0.387318 0.635378 0.052242 -0.080277
C42   C     C_R   0.421858 0.572226 0.074126 -0.016880
C43   C     C_R   0.405139 0.504980 0.035713 -0.108272
C44   C     C_R   0.377722 0.372181 0.957880 -0.135011
C45   C     C_3   0.842271 0.279336 0.648444 0.389609
C46   C     C_R   0.425034 0.374089 0.017438 0.416117
C47   C     C_R   0.440040 0.441051 0.057047 -0.066731
C48   C     C_R   0.488899 0.446124 0.117442 0.574198
C49   C     C_R   0.472947 0.575006 0.133571 0.605749
C50   C     C_2   0.064089 0.479099 0.774250 -0.070176
C51   C     C_3   0.021211 0.484227 0.709997 -0.049138
C52   C     C_3   0.998710 0.633602 0.659047 0.288091
C53   C     C_1   0.305704 0.509255 0.694344 0.012485
C54   C     C_2   0.346862 0.508104 0.750330 -0.092766
C55   C     C_2   0.218823 0.493216 0.793877 0.231867
C56   C     C_3   0.826434 0.207923 0.671343 0.586202
C57   C     C_R   0.703994 0.548632 0.236650 -0.098568
C58   C     C_R   0.750875 0.551268 0.296186 -0.026208
C59   C     C_R   0.499178 0.489908 0.315996 0.047537
C60   C     C_R   0.453444 0.486052 0.256177 -0.043498
C61   C     C_R   0.553828 0.516377 0.216288 0.244639
C62   C     C_2   0.171338 0.477268 0.671344 -0.277220
C63   C     C_3   0.037813 0.664294 0.724113 -0.349390
C64   C     C_3   0.311410 0.305634 0.376829 0.350247
C65   C     C_3   0.293530 0.228928 0.340594 0.715900
C66   C     C_3   0.918025 0.375089 0.188158 0.264914
C67   C     C_3   0.319197 0.291988 0.669239 0.295859
C68   C     C_3   0.073770 0.397961 0.159897 -0.335423
C69   C     C_3   0.216801 0.225020 0.240823 0.276216
C70   C     C_3   0.079718 0.196420 0.198092 -0.307127
C71   C     C_3   0.284454 0.107982 0.345610 0.286720
C72   C     C_3   0.224348 0.051744 0.381129 -0.340099
C73   C     C_3   0.339595 0.263948 0.036414 0.308607
C74   C     C_3   0.388792 0.202803 0.067427 -0.298066
C75   C     C_3   0.780393 0.783735 0.241494 0.267843
C76   C     C_3   0.806654 0.775108 0.174424 -0.301820
C77   C     C_3   0.311279 0.260518 0.726189 -0.245895
C78   C     C_R   0.985355 0.952309 0.531289 0.028183
H1    H     H_    0.692963 0.386741 0.262480 -0.069957
H2    H     H_    0.231713 0.763024 0.264120 0.141302
H3    H     H_    0.414147 0.217443 0.318514 -0.077156
H4    H     H_    0.535111 0.761830 0.341366 -0.089915
H5    H     H_    0.434496 0.766056 0.237201 0.079253
H6    H     H_    0.601411 0.659415 0.609975 -0.061940
H7    H     H_    0.672703 0.734159 0.709078 0.096744
H8    H     H_    0.671408 0.785935 0.649596 0.043501
H9    H     H_    0.504579 0.791298 0.701970 0.118957
H10   H     H_    0.807546 0.831875 0.351331 -0.035729
H11   H     H_    0.722381 0.292354 0.632753 0.083074
H12   H     H_    0.768118 0.298900 0.262571 0.053391
H13   H     H_    0.927773 0.273670 0.610105 -0.057328
H14   H     H_    0.764562 0.217835 0.715574 0.067826
H15   H     H_    0.199325 0.282042 0.647048 0.013764
H16   H     H_    0.344777 0.350822 0.680956 0.028578
H17   H     H_    0.202842 0.280383 0.752420 0.157128
H18   H     H_    0.422243 0.276376 0.753213 0.122256
H19   H     H_    0.941699 0.727901 0.396453 -0.030402
H20   H     H_    0.301681 0.200846 0.715136 0.143402
H21   H     H_    0.169734 0.341494 0.508556 0.045591
H22   H     H_    0.071564 0.802783 0.588531 0.129992
H23   H     H_    0.111045 0.613550 0.635997 0.046787
H24   H     H_    0.423726 0.865134 0.428270 0.093406
H25   H     H_    0.283856 0.007840 0.564808 0.056975
H26   H     H_    0.162705 0.922783 0.593516 0.071797
H27   H     H_    0.636559 0.071580 0.408461 0.052462
H28   H     H_    0.769998 0.705719 0.347247 -0.354133
H29   H     H_    0.511654 0.985432 0.433600 0.073366
H30   H     H_    0.373640 0.320869 0.927749 0.124417
H31   H     H_    0.398825 0.687703 0.080733 0.109901
H32   H     H_    0.784357 0.570419 0.206118 0.071836
H33   H     H_    0.313141 0.682186 0.978226 0.119324
H34   H     H_    0.907611 0.588938 0.656770 0.018320
H35   H     H_    0.470542 0.520561 0.765328 0.091707
H36   H     H_    0.968738 0.470000 0.805352 0.079031
H37   H     H_    0.341734 0.458256 0.240377 0.094005
H38   H     H_    0.683166 0.525575 0.381510 0.121374
H39   H     H_    0.021184 0.826943 0.355208 0.016482
H40   H     H_    0.167509 0.449337 0.625271 0.060310
H41   H     H_    0.688055 0.385273 0.363502 -0.078546
H42   H     H_    0.887471 0.425120 0.357247 0.027776
H43   H     H_    0.499609 0.644465 0.325482 0.279657
H44   H     H_    0.823406 0.413317 0.180732 0.080225
H45   H     H_    0.117525 0.713113 0.726767 0.155806
H46   H     H_    0.881524 0.320014 0.165162 0.051487
H47   H     H_    0.173852 0.362661 0.167611 0.131178
H48   H     H_    0.056416 0.394015 0.111044 0.060302
H49   H     H_    0.106314 0.454678 0.179291 0.133161
H50   H     H_    0.320761 0.188843 0.228674 -0.016018
H51   H     H_    0.252263 0.280439 0.234698 0.091541
H52   H     H_    0.966051 0.223980 0.212700 0.146156
H53   H     H_    0.110000 0.205561 0.152413 0.049234
H54   H     H_    0.059981 0.137817 0.197210 0.105889
H55   H     H_    0.415137 0.099200 0.335859 0.003227
H56   H     H_    0.101644 0.624771 0.745435 0.086388
H57   H     H_    0.216478 0.098413 0.302651 0.078452
H58   H     H_    0.091131 0.054717 0.386645 0.121558
H59   H     H_    0.253229 0.997280 0.356845 0.090663
H60   H     H_    0.284540 0.060382 0.425234 0.117352
H61   H     H_    0.467007 0.747705 0.574556 0.242320
H62   H     H_    0.279451 0.866699 0.325887 0.306789
H63   H     H_    0.789620 0.148722 0.593495 0.312090
H64   H     H_    0.963909 0.137909 0.696993 0.310890
H65   H     H_    0.481347 0.085717 0.572966 0.320570
H66   H     H_    0.643502 0.169291 0.370987 0.283397
H67   H     H_    0.924349 0.678973 0.749246 0.103495
H68   H     H_    0.591142 0.625867 0.506994 0.308453
H69   H     H_    0.299836 0.240263 0.990336 0.021095
H70   H     H_    0.236101 0.291523 0.061593 0.017167
H71   H     H_    0.421917 0.224275 0.114609 0.126700
H72   H     H_    0.286590 0.163177 0.066497 0.049224
H73   H     H_    0.494290 0.175072 0.044187 0.124312
H74   H     H_    0.701442 0.830534 0.255768 0.074949
H75   H     H_    0.719275 0.733527 0.250551 0.080232
H76   H     H_    0.883861 0.728178 0.158827 0.131704
H77   H     H_    0.688182 0.766108 0.151053 0.088906
H78   H     H_    0.190884 0.326624 0.391004 -0.008059
H79   H     H_    0.866717 0.824409 0.163275 0.121209
H80   H     H_    0.389253 0.305507 0.416477 -0.017686
N1    N     N_R   0.260217 0.496009 0.856198 -0.427943
N2    N     N_R   0.505021 0.512457 0.154611 -0.436132
O1    O     O_2   0.110690 0.676100 0.539200 -0.406095
O2    O     O_2   0.690386 0.436317 0.701203 -0.492185
O3    O     O_3   0.898564 0.333510 0.694777 -0.644536
O4    O     O_3   0.863220 0.586720 0.534720 -0.458734
O5    O     O_3   0.450900 0.461390 0.429220 -0.480291
O6    O     O_2   0.599830 0.538970 0.641850 -0.485764
O7    O     O_3   0.416447 0.653273 0.673187 -0.639599
O8    O     O_2   0.572428 0.244585 0.527342 -0.438505
O9    O     O_3   0.443843 0.258943 0.633127 -0.554427
O10   O     O_2   0.246478 0.617036 0.875122 -0.595953
O11   O     O_2   0.278614 0.375463 0.843116 -0.617375
O12   O     O_3   0.386924 0.346990 0.338824 -0.693192
O13   O     O_2   0.517425 0.391607 0.137098 -0.588738
O14   O     O_2   0.487696 0.633160 0.166856 -0.595661
O15   O     O_3   0.368310 0.629070 0.432760 -0.413500
O16   O     O_2   0.264668 0.755720 0.485241 -0.473847
O17   O     O_3   0.934712 0.688562 0.633517 -0.654917
O18   O     O_3   0.300229 0.745630 0.372015 -0.621145
O19   O     O_2   0.210480 0.460990 0.358130 -0.445086
O20   O     O_3   0.959520 0.592090 0.401630 -0.456430
O21   O     O_2   0.089858 0.542709 0.295200 -0.450720
O22   O     O_3   0.425869 0.665579 0.299652 -0.710377
O23   O     O_3   0.994623 0.675373 0.311003 -0.566315
O24   O     O_3   0.942850 0.376594 0.249827 -0.642000
O25   O     O_3   0.162343 0.226461 0.300068 -0.627660
O26   O     O_3   0.261524 0.178282 0.378482 -0.684284
O27   O     O_3   0.401050 0.718371 0.598304 -0.706189
O28   O     O_3   0.371387 0.853938 0.298147 -0.770548
O29   O     O_3   0.731716 0.157797 0.632274 -0.715823
O30   O     O_3   0.980475 0.180611 0.677504 -0.771334
O31   O     O_3   0.430757 0.128354 0.561597 -0.679246
O32   O     O_3   0.733007 0.197703 0.393328 -0.703191
O33   O     O_3   0.652691 0.636104 0.471756 -0.709401
O34   O     O_2   0.699610 0.323860 0.460780 -0.438517
O35   O     O_3   0.474125 0.311468 0.035096 -0.603669
O36   O     O_3   0.931521 0.795471 0.270650 -0.633797
O37   O     O_3   0.947090 0.413280 0.465240 -0.511424
O38   O     O_3   0.442000 0.370930 0.567190 -0.493848
O39   O     O_3   0.875689 0.317765 0.365863 -0.575211
O40   O     O_3   0.359410 0.538600 0.570730 -0.461391
O41   O     O_3   0.850780 0.407910 0.598320 -0.497230
P1    P     P_3+3 0.935930 0.665430 0.555670 1.022443
P2    P     P_3+3 0.382700 0.439650 0.365620 1.009946
P3    P     P_3+3 0.949229 0.588726 0.324545 1.048332
P4    P     P_3+3 0.874370 0.334570 0.444280 1.064617
P5    P     P_3+3 0.862170 0.417941 0.676261 0.945413
P6    P     P_3+3 0.384273 0.722507 0.436474 1.006548
P7    P     P_3+3 0.417376 0.560337 0.645969 0.961542
P8    P     P_3+3 0.421756 0.277758 0.561138 1.033170

loop_
_geom_bond_atom_site_label_1
_geom_bond_atom_site_label_2
_ccdc_geom_bond_type
C68   H47   S    
C34   H9    S    
C61   N2    S    
C53   C54   D    
C65   H3    S    
Ba2   O6    S    
C48   N2    Am   
C71   C72   S    
C74   H73   S    
C77   H18   S    
C20   O32   S    
C17   C18   A    
Ba2   O40   S    
C12   H4    S    
C41   C42   A    
C67   H16   S    
C76   H76   S    
C66   H44   S    
C35   O10   D    
C64   H80   S    
C52   C63   S    
C3    H25   S    
C75   C76   S    
C52   O17   S    
C5    C9    A    
C72   H58   S    
C4    O23   S    
C24   C25   A    
C60   C61   A    
C71   H57   S    
Ba2   O38   S    
C15   C24   A    
O5    P2    S    
C26   C27   A    
C33   C35   A    
C22   C24   A    
C2    C78   A    
C36   C37   A    
C45   O3    S    
C51   C62   S    
C4    H28   S    
C25   C27   A    
Ba1   O5    S    
C73   H70   S    
C23   O7    S    
C13   C14   A    
H62   O28   S    
C9    C22   A    
C51   P5    S    
C54   C55   S    
C49   N2    Am   
Ba1   Ba2   S    
C67   O9    S    
C4    H19   S    
O15   P6    S    
C16   H39   S    
C60   H37   S    
C76   H77   S    
Ba1   O15   S    
C36   N1    Am   
O8    P8    D    
C28   H42   S    
C6    C7    A    
C16   O36   S    
O12   P2    S    
C14   C20   A    
C21   C22   A    
H66   O32   S    
Ba1   P2    S    
C7    C8    A    
Ba2   O4    S    
H65   O31   S    
C59   C60   A    
C40   O24   S    
C50   H36   S    
C64   C65   S    
C66   O24   S    
C57   C58   A    
C32   C58   A    
C39   C41   A    
O18   P6    S    
C40   H1    S    
C41   H31   S    
O40   P7    S    
C30   O33   S    
Ba1   O40   S    
O3    P5    S    
C65   O25   S    
C70   H52   S    
C73   O35   S    
C34   H7    S    
O39   P4    S    
C38   C43   A    
C4    C16   S    
C44   C46   A    
O1    P1    D    
O38   P8    S    
Ba2   O41   S    
Ba2   O37   S    
C16   H10   S    
O6    P7    D    
C52   H23   S    
H61   O27   S    
O2    P5    D    
C1    O28   S    
C39   H33   S    
C37   C38   A    
C3    C5    A    
Ba1   O19   S    
C36   O11   D    
H64   O30   S    
C74   H71   S    
C2    H26   S    
C32   H38   S    
C15   C78   A    
C71   H55   S    
C27   H24   S    
C48   O13   D    
O20   P3    S    
Ba2   O34   S    
C63   H45   S    
O19   P2    D    
C73   C74   S    
H43   O22   S    
C25   H29   S    
C75   H74   S    
O9    P8    S    
C77   H20   S    
H68   O33   S    
C70   H54   S    
C29   C30   A    
C29   P6    S    
C28   H41   S    
C43   C47   A    
C21   H27   S    
C53   C62   D    
C1    H2    S    
O37   P4    S    
C57   H32   S    
C45   H13   S    
C6    O31   S    
O4    P1    S    
C50   C51   S    
C18   C19   A    
C17   C26   A    
Ba1   O1    S    
C1    C12   S    
C37   C44   A    
C18   C31   A    
C42   C49   A    
C46   C47   A    
C53   P7    S    
C8    C9    A    
C44   H30   S    
C56   O30   S    
C1    H5    S    
C67   C77   S    
C63   H67   S    
C19   H22   S    
C11   H21   S    
Ba1   O37   S    
C66   H46   S    
C64   H78   S    
C71   O26   S    
C65   O26   S    
C35   N1    Am   
C75   O36   S    
C68   H48   S    
C28   O39   S    
H63   O29   S    
C45   H11   S    
O23   P3    S    
C77   H17   S    
C26   C29   A    
C64   O12   S    
C42   C43   A    
C10   P8    S    
C69   O25   S    
C67   H15   S    
C3    C6    A    
C12   O22   S    
Ba1   O20   S    
C72   H59   S    
C31   P1    S    
C57   C61   A    
C62   H40   S    
C46   O35   S    
C30   C31   A    
O34   P4    D    
C11   C13   A    
C33   C38   A    
C56   H14   S    
C69   C70   S    
C34   H8    S    
C8    C14   A    
C75   H75   S    
C69   H50   S    
C2    C19   A    
C58   P3    S    
C70   H53   S    
C72   H60   S    
Ba1   O4    S    
C73   H69   S    
O7    P7    S    
C52   H34   S    
C23   H6    S    
C15   C17   A    
C54   H35   S    
O41   P5    S    
C40   H12   S    
C32   C59   A    
C49   O14   D    
C33   C39   A    
C7    C10   A    
C13   P4    S    
O17   P1    S    
C63   H56   S    
C50   C55   D    
C23   C34   S    
C69   H51   S    
C76   H79   S    
C55   N1    S    
C10   C11   A    
O16   P6    D    
C66   C68   S    
C47   C48   A    
C68   H49   S    
C56   O29   S    
O21   P3    D    
C74   H72   S    
C20   C21   A    
C28   C40   S    
C23   O27   S    
Ba2   P4    S    
Ba1   P1    S    
Ba2   O5    S    
C12   O18   S    
C59   P2    S    
C5    C78   A    
C45   C56   S    
