data_mof_unit_8461.cif
_audit_creation_date              2012-10-26T18:32:02-0400
_audit_creation_method            fapswitch 2.2
_symmetry_space_group_name_H-M    P1
_symmetry_Int_Tables_number       1
_space_group_crystal_system       triclinic
_cell_length_a                    12.356878
_cell_length_b                    13.081301
_cell_length_c                    14.249617
_cell_angle_alpha                 93.615802
_cell_angle_beta                  108.069365
_cell_angle_gamma                 116.466859
_cell_volume                      1904.63660186

loop_
_atom_site_label
_atom_site_type_symbol
_atom_type_description
_atom_site_fract_x
_atom_site_fract_y
_atom_site_fract_z
_atom_type_partial_charge
C1    C     C_R   0.649104 0.714567 0.506637 0.540526
C2    C     C_R   0.126422 0.383654 0.002171 0.052081
C3    C     C_R   0.103365 0.436686 0.078079 0.030206
C4    C     C_R   0.617421 0.515221 0.686956 0.542630
C5    C     C_R   0.233516 0.363766 0.028391 -0.138159
C6    C     C_R   0.318576 0.396860 0.129468 -0.147656
C7    C     C_R   0.194143 0.474847 0.178132 -0.141402
C8    C     C_R   0.181050 0.949514 0.435846 -0.121385
C9    C     C_R   0.256165 0.158649 0.474745 -0.005734
C10   C     C_R   0.716572 0.924182 0.559091 -0.162004
C11   C     C_R   0.810084 0.041600 0.585081 -0.141578
C12   C     C_R   0.824666 0.473249 0.920806 0.019599
C13   C     C_R   0.924478 0.078685 0.565003 0.009996
C14   C     C_R   0.933953 0.994653 0.501511 0.037987
C15   C     C_R   0.832436 0.874819 0.470829 0.009808
C16   C     C_R   0.346737 0.284015 0.486887 0.543780
C17   C     C_R   0.043185 0.019596 0.473556 0.013262
C18   C     C_R   0.060452 0.926920 0.437865 0.032625
C19   C     C_R   0.954918 0.814097 0.399404 -0.139633
C20   C     C_R   0.838072 0.791845 0.406701 -0.126178
C21   C     C_R   0.132470 0.131806 0.473760 -0.150108
C22   C     C_R   0.283813 0.065170 0.461851 -0.012755
C23   C     C_R   0.789814 0.511983 0.996865 0.047975
C24   C     C_R   0.730834 0.839120 0.508259 -0.012387
C25   C     C_R   0.253834 0.682663 0.666752 -0.154384
C26   C     C_R   0.656819 0.350417 0.355849 0.040818
C27   C     C_R   0.736009 0.324295 0.317712 -0.034698
C28   C     C_R   0.378772 0.479652 0.312796 0.542540
C29   C     C_R   0.871473 0.383772 0.371881 -0.133269
C30   C     C_R   0.928781 0.467637 0.463827 -0.026617
C31   C     C_R   0.843828 0.494744 0.496551 0.168918
C32   C     C_R   0.067958 0.529069 0.522065 -0.018196
C33   C     C_R   0.119217 0.620078 0.608747 0.037467
C34   C     C_R   0.919143 0.435102 0.947343 0.033339
C35   C     C_R   0.036151 0.648891 0.636920 -0.173412
C36   C     C_R   0.902117 0.587961 0.582289 -0.099011
C37   C     C_R   0.159538 0.504182 0.499103 0.027685
C38   C     C_R   0.338104 0.654751 0.639739 0.029896
C39   C     C_R   0.676422 0.515714 0.793931 -0.025736
C40   C     C_R   0.298977 0.452742 0.204754 -0.011815
C41   C     C_R   0.694983 0.549993 0.970337 -0.002254
C42   C     C_R   0.637491 0.548492 0.867724 -0.125671
C43   C     C_R   0.769794 0.479868 0.821028 -0.149864
C44   C     C_3   0.415835 0.079893 0.472188 -0.241218
C45   C     C_R   0.992969 0.453723 0.051282 0.030936
C46   C     C_3   0.419262 0.052057 0.367341 -0.292351
C47   C     C_3   0.540135 0.042373 0.376190 -0.456848
C48   C     C_3   0.033866 0.203068 0.624026 -0.244369
C49   C     C_3   0.150993 0.203495 0.704204 -0.294495
C50   C     C_3   0.265629 0.328269 0.752092 -0.454803
C51   C     C_3   0.676041 0.239788 0.215303 -0.269324
C52   C     C_3   0.730469 0.154415 0.214279 -0.292793
C53   C     C_3   0.644630 0.051679 0.120900 -0.453060
C54   C     C_3   0.660025 0.594264 0.052467 -0.260264
C55   C     C_3   0.562492 0.639994 0.017459 -0.305392
C56   C     C_R   0.952766 0.486662 0.124898 -0.148422
C57   C     C_3   0.546660 0.692161 0.108049 -0.447037
C58   C     C_R   0.852048 0.513072 0.098016 -0.149465
C59   C     C_R   0.941615 0.378031 0.873532 -0.142879
C60   C     C_R   0.042203 0.351068 0.901141 -0.142480
Cu1   Cu    Cu3+1 0.416420 0.526630 0.522910 0.899766
Cu2   Cu    Cu3+1 0.583580 0.473370 0.477090 0.892794
H1    H     H_    0.826349 0.537035 0.158611 0.101234
H2    H     H_    0.186311 0.524226 0.236716 0.121283
H3    H     H_    0.075307 0.719837 0.702378 0.109061
H4    H     H_    0.293754 0.752815 0.732987 0.088473
H5    H     H_    0.128500 0.434125 0.436196 0.111581
H6    H     H_    0.552860 0.308183 0.312867 0.116697
H7    H     H_    0.930960 0.365956 0.339482 0.092694
H8    H     H_    0.848260 0.619215 0.609028 0.184785
H9    H     H_    0.398924 0.378357 0.148671 0.115867
H10   H     H_    0.055490 0.306287 0.842908 0.104475
H11   H     H_    0.563369 0.574371 0.844230 0.123633
H12   H     H_    0.250928 0.322020 0.970850 0.103889
H13   H     H_    0.801602 0.460743 0.763131 0.126774
H14   H     H_    0.994978 0.489248 0.204199 0.100734
H15   H     H_    0.879984 0.349323 0.793907 0.099189
H16   H     H_    0.630332 0.126826 0.419446 0.166928
H17   H     H_    0.541189 0.971538 0.414685 0.161055
H18   H     H_    0.536865 0.018979 0.298923 0.145757
H19   H     H_    0.332070 0.967064 0.320413 0.157780
H20   H     H_    0.417433 0.121489 0.327129 0.163863
H21   H     H_    0.497890 0.167590 0.517277 0.174066
H22   H     H_    0.432632 0.017599 0.516444 0.127633
H23   H     H_    0.961290 0.744194 0.360559 0.106539
H24   H     H_    0.301328 0.367560 0.693726 0.203300
H25   H     H_    0.236162 0.384687 0.787105 0.142517
H26   H     H_    0.346896 0.326105 0.811908 0.137890
H27   H     H_    0.120763 0.164012 0.764794 0.152977
H28   H     H_    0.184839 0.150078 0.671070 0.177435
H29   H     H_    0.062144 0.262848 0.574424 0.138852
H30   H     H_    0.997990 0.246889 0.666217 0.124594
H31   H     H_    0.545153 0.999475 0.121305 0.144181
H32   H     H_    0.637464 0.084569 0.050424 0.156624
H33   H     H_    0.688101 0.993375 0.121351 0.142968
H34   H     H_    0.195996 0.876605 0.416161 0.108925
H35   H     H_    0.829880 0.201355 0.212578 0.157939
H36   H     H_    0.738226 0.119742 0.283807 0.166271
H37   H     H_    0.568195 0.188607 0.192367 0.129645
H38   H     H_    0.695585 0.291614 0.157852 0.149326
H39   H     H_    0.517192 0.626937 0.153998 0.164553
H40   H     H_    0.640084 0.771212 0.157159 0.147409
H41   H     H_    0.470416 0.718330 0.080550 0.146076
H42   H     H_    0.598081 0.710155 0.976839 0.156439
H43   H     H_    0.465626 0.566572 0.965747 0.161631
H44   H     H_    0.618946 0.521527 0.089355 0.135216
H45   H     H_    0.102481 0.197009 0.465862 0.125113
H46   H     H_    0.751835 0.667426 0.110531 0.145845
H47   H     H_    0.636649 0.899476 0.585051 0.127390
H48   H     H_    0.797104 0.102704 0.629268 0.105469
H49   H     H_    0.754366 0.707047 0.365008 0.149312
H50   H     H_    0.441827 0.702821 0.684759 0.115883
N1    N     N_R   0.290690 0.566960 0.557640 -0.230935
N2    N     N_R   0.709100 0.433710 0.442970 -0.243353
O1    O     O_R   0.545970 0.684450 0.528810 -0.496374
O2    O     O_R   0.687130 0.639470 0.490120 -0.519143
O3    O     O_R   0.519670 0.535100 0.660030 -0.508591
O4    O     O_R   0.660830 0.490120 0.621340 -0.520013
O5    O     O_R   0.312870 0.360530 0.509880 -0.514820
O6    O     O_R   0.454030 0.315550 0.471190 -0.502748
O7    O     O_R   0.339170 0.509880 0.378660 -0.503838
O8    O     O_R   0.480330 0.464900 0.339970 -0.513482

loop_
_geom_bond_atom_site_label_1
_geom_bond_atom_site_label_2
_ccdc_geom_bond_type
C23   C58   A    
C56   H14   S    
C53   H33   S    
C41   C42   A    
C19   C20   A    
C8    H34   S    
C47   H17   S    
C49   H28   S    
C44   H21   S    
C59   H15   S    
C57   H40   S    
C12   C23   A    
C26   C27   A    
C55   H43   S    
C9    C16   S    
Cu2   N2    S    
C12   C43   A    
C3    C7    A    
C16   O6    A    
C30   C31   A    
C28   O8    A    
C9    C22   A    
Cu1   O5    S    
C35   H3    S    
C20   H49   S    
C52   H35   S    
C58   H1    S    
C27   C29   A    
C10   H47   S    
Cu1   O7    S    
C18   C19   A    
C46   C47   S    
C5    H12   S    
C44   H22   S    
C46   H20   S    
C22   C44   S    
C35   C36   A    
C45   C56   A    
C27   C51   S    
C48   H29   S    
Cu1   O1    S    
C8    C22   A    
C7    C40   A    
C1    O2    A    
C31   N2    A    
Cu2   O6    S    
C50   H26   S    
C59   C60   A    
C13   C14   A    
C11   H48   S    
C51   H37   S    
C14   C17   A    
C4    O4    A    
C15   C20   A    
C47   H18   S    
C36   H8    S    
C39   C42   A    
C29   H7    S    
C43   H13   S    
C6    H9    S    
C57   H41   S    
C54   H44   S    
Cu1   O3    S    
C51   C52   S    
C16   O5    A    
C38   N1    A    
C28   O7    A    
C39   C43   A    
C44   C46   S    
C10   C24   A    
C53   H31   S    
C55   H42   S    
C3    C45   A    
C8    C18   A    
C26   N2    A    
C28   C40   S    
Cu2   O2    S    
C29   C30   A    
C25   C38   A    
C46   H19   S    
C4    C39   S    
C17   C18   A    
C34   C45   A    
C32   C37   A    
C41   C54   S    
C21   H45   S    
C50   H25   S    
C48   C49   S    
C55   C57   S    
Cu1   N1    S    
C34   C59   A    
C6    C40   A    
C4    O3    A    
C2    C5    A    
C12   C34   A    
Cu2   O8    S    
C52   C53   S    
C51   H38   S    
C54   C55   S    
C15   C24   A    
C42   H11   S    
C53   H32   S    
C31   C36   A    
C25   H4    S    
C49   H27   S    
C19   H23   S    
C13   C48   S    
C57   H39   S    
C23   C41   A    
C54   H46   S    
C26   H6    S    
C32   C33   A    
C2    C3    A    
C30   C32   A    
C11   C13   A    
C9    C21   A    
C5    C6    A    
C37   H5    S    
C52   H36   S    
C33   C35   A    
C56   C58   A    
C2    C60   A    
Cu1   Cu2   S    
C17   C21   A    
C7    H2    S    
Cu2   O4    S    
C10   C11   A    
C50   H24   S    
C37   N1    A    
C1    C24   S    
C49   C50   S    
C48   H30   S    
C60   H10   S    
C14   C15   A    
C1    O1    A    
C47   H16   S    
C38   H50   S    
C25   C33   A    
