data_mof_unit_46121.cif
_audit_creation_date              2012-12-10T20:45:35-0500
_audit_creation_method            fapswitch 2.2
_symmetry_space_group_name_H-M    P1
_symmetry_Int_Tables_number       1
_space_group_crystal_system       triclinic
_cell_length_a                    10.878886
_cell_length_b                    10.831478
_cell_length_c                    10.011478
_cell_angle_alpha                 89.633047
_cell_angle_beta                  91.21094
_cell_angle_gamma                 93.311165
_cell_volume                      1177.44833168

loop_
_atom_site_label
_atom_site_type_symbol
_atom_type_description
_atom_site_fract_x
_atom_site_fract_y
_atom_site_fract_z
_atom_type_partial_charge
C1    C     C_R   0.495874 0.260097 0.500058 0.889028
C2    C     C_R   0.851345 0.591087 0.977865 0.402549
C3    C     C_R   0.798322 0.477233 0.019849 -0.294939
C4    C     C_R   0.260556 0.506852 0.498526 0.869829
C5    C     C_R   0.792000 0.375274 0.935709 -0.186685
C6    C     C_R   0.838876 0.384010 0.807069 0.473811
C7    C     C_R   0.888996 0.500065 0.760693 -0.031337
C8    C     C_R   0.553450 0.067040 0.603905 0.035881
C9    C     C_R   0.497349 0.127500 0.498669 -0.067340
C10   C     C_R   0.461432 0.061079 0.383404 -0.187504
C11   C     C_R   0.470683 0.933861 0.380681 -0.110497
C12   C     C_R   0.190889 0.595401 0.985324 -0.359065
C13   C     C_R   0.518338 0.872650 0.492850 -0.090506
C14   C     C_R   0.573322 0.942308 0.597231 -0.131094
C15   C     C_3   0.560236 0.923670 0.744392 0.216599
C16   C     C_R   0.505492 0.739781 0.499025 0.859454
C17   C     C_3   0.513733 0.051927 0.745961 0.741143
C18   C     C_R   0.484597 0.392037 0.070854 0.043013
C19   C     C_R   0.541707 0.601542 0.071642 0.470792
C20   C     C_R   0.546049 0.599214 0.929275 0.402269
C21   C     C_R   0.477892 0.394042 0.930006 0.061374
C22   C     C_3   0.366618 0.309814 0.926363 -0.362077
C23   C     C_R   0.932675 0.549897 0.387779 -0.193849
C24   C     C_3   0.383232 0.294152 0.076534 0.258882
C25   C     C_R   0.739912 0.506223 0.502039 0.877784
C26   C     C_R   0.224619 0.684818 0.082529 0.423759
C27   C     C_R   0.183403 0.667508 0.212722 -0.141302
C28   C     C_R   0.111642 0.560841 0.247180 -0.097834
C29   C     C_R   0.079353 0.469977 0.150145 0.451789
C30   C     C_R   0.118122 0.488949 0.018218 0.458409
C31   C     C_R   0.873145 0.522944 0.506954 -0.129807
C32   C     C_R   0.942906 0.513644 0.626560 0.090513
C33   C     C_R   0.069662 0.515078 0.619855 -0.147558
C34   C     C_R   0.128745 0.524392 0.497735 -0.135636
C35   C     C_R   0.059652 0.549418 0.381088 0.034996
C36   C     C_R   0.893647 0.604274 0.844937 0.318198
H1    H     H_    0.419980 0.105968 0.298914 0.148690
H2    H     H_    0.728424 0.869730 0.756326 0.364569
H3    H     H_    0.365091 0.014057 0.844985 0.339985
H4    H     H_    0.660949 0.146308 0.811702 0.388311
H5    H     H_    0.641207 0.672030 0.213562 0.369325
H6    H     H_    0.318958 0.787961 0.957689 0.335968
H7    H     H_    0.647122 0.656748 0.786222 0.354173
H8    H     H_    0.287712 0.359704 0.890635 0.248572
H9    H     H_    0.289777 0.288492 0.237746 0.347038
H10   H     H_    0.206768 0.737603 0.287249 0.168787
H11   H     H_    0.019180 0.343827 0.277588 0.347829
H12   H     H_    0.379068 0.226381 0.870796 0.252680
H13   H     H_    0.052843 0.325806 0.958961 0.405523
H14   H     H_    0.880034 0.565760 0.297111 0.208930
H15   H     H_    0.122204 0.503949 0.710696 0.217575
H16   H     H_    0.910090 0.784345 0.847098 0.366033
H17   H     H_    0.938104 0.737530 0.050648 0.342965
H18   H     H_    0.416123 0.201827 0.103617 0.114139
H19   H     H_    0.222630 0.607984 0.884251 0.173789
H20   H     H_    0.764737 0.466359 0.120354 0.198697
H21   H     H_    0.753914 0.287568 0.972979 0.212698
H22   H     H_    0.876441 0.293270 0.645620 0.336394
H23   H     H_    0.433002 0.883166 0.294806 0.216295
H24   H     H_    0.490657 0.851209 0.776439 0.170835
N1    N     N_R   0.499160 0.499140 0.142800 -0.194806
N2    N     N_R   0.499160 0.499180 0.857150 -0.205488
O1    O     O_R   0.500020 0.316790 0.614690 -0.570565
O2    O     O_3   0.675300 0.920055 0.811029 -0.665973
O3    O     O_3   0.384878 0.047742 0.754961 -0.800910
O4    O     O_3   0.573979 0.133598 0.838009 -0.753697
O5    O     O_3   0.595055 0.703382 0.135540 -0.643861
O6    O     O_3   0.296553 0.790110 0.053127 -0.747795
O7    O     O_3   0.615082 0.691223 0.868695 -0.709003
O8    O     O_3   0.283241 0.329095 0.149060 -0.729109
O9    O     O_3   0.012053 0.361395 0.180733 -0.773147
O10   O     O_3   0.088359 0.403595 0.919613 -0.819578
O11   O     O_3   0.940023 0.715988 0.794007 -0.763227
O12   O     O_R   0.500000 0.316760 0.385350 -0.635801
O13   O     O_3   0.862893 0.685252 0.070035 -0.743851
O14   O     O_R   0.316770 0.500030 0.614670 -0.625586
O15   O     O_R   0.316750 0.499990 0.385330 -0.592682
O16   O     O_R   0.500000 0.683240 0.614650 -0.642681
O17   O     O_R   0.499980 0.683210 0.385310 -0.612459
O18   O     O_R   0.683250 0.500010 0.614670 -0.642244
O19   O     O_R   0.683230 0.499970 0.385330 -0.645959
O20   O     O_3   0.837173 0.276959 0.732547 -0.768711
Zn1   Zn    Zn3+2 0.500010 0.500020 0.653130 0.967247
Zn2   Zn    Zn3+2 0.499990 0.499980 0.346870 0.977048

loop_
_geom_bond_atom_site_label_1
_geom_bond_atom_site_label_2
_ccdc_geom_bond_type
C25   C31   S    
C22   H12   S    
N2    Zn1   S    
C6    O20   S    
C18   C21   A    
C7    C36   A    
C19   C20   A    
C24   O8    S    
H5    O5    S    
C17   O4    S    
C10   H1    S    
C18   C24   S    
C1    O12   A    
C28   C29   A    
H22   O20   S    
O17   Zn2   S    
C24   H18   S    
C25   O18   A    
C34   C35   A    
C15   H24   S    
O16   Zn1   S    
C22   H8    S    
C28   C35   S    
C8    C9    A    
H13   O10   S    
C15   O2    S    
C19   O5    S    
C9    C10   A    
C25   O19   A    
H7    O7    S    
H4    O4    S    
C13   C14   A    
H6    O6    S    
H3    O3    S    
H17   O13   S    
O18   Zn1   S    
C11   H23   S    
C1    O1    A    
O14   Zn1   S    
H2    O2    S    
C4    C34   S    
C1    C9    S    
H16   O11   S    
C10   C11   A    
C23   H14   S    
O15   Zn2   S    
O1    Zn1   S    
C23   C31   A    
C29   C30   A    
C3    H20   S    
C31   C32   A    
C33   C34   A    
C26   C27   A    
H11   O9    S    
C21   N2    A    
C27   H10   S    
C23   C35   A    
C22   C24   S    
C20   O7    S    
O19   Zn2   S    
C2    C36   A    
C15   C17   S    
C8    C14   A    
C7    C32   S    
C12   C30   A    
H9    O8    S    
O12   Zn2   S    
C3    C5    A    
N1    Zn2   S    
C30   O10   S    
C18   N1    A    
C6    C7    A    
C33   H15   S    
C17   O3    S    
C8    C17   S    
C5    H21   S    
C16   O17   A    
C26   O6    S    
C32   C33   A    
C2    C3    A    
C4    O15   A    
C11   C13   A    
C5    C6    A    
C19   N1    A    
C16   O16   A    
C20   N2    A    
C4    O14   A    
C12   H19   S    
C36   O11   S    
C13   C16   S    
C12   C26   A    
C27   C28   A    
C14   C15   S    
C21   C22   S    
C2    O13   S    
C29   O9    S    
