data_mof_unit_55081.cif
_audit_creation_date              2012-12-10T20:48:17-0500
_audit_creation_method            fapswitch 2.2
_symmetry_space_group_name_H-M    P1
_symmetry_Int_Tables_number       1
_space_group_crystal_system       triclinic
_cell_length_a                    10.655244
_cell_length_b                    8.922626
_cell_length_c                    8.102933
_cell_angle_alpha                 89.847699
_cell_angle_beta                  89.939377
_cell_angle_gamma                 90.083604
_cell_volume                      770.364205188

loop_
_atom_site_label
_atom_site_type_symbol
_atom_type_description
_atom_site_fract_x
_atom_site_fract_y
_atom_site_fract_z
_atom_type_partial_charge
C1    C     C_R   0.500231 0.217993 0.500140 0.966983
C2    C     C_R   0.257358 0.506227 0.499861 0.938101
C3    C     C_R   0.742554 0.508378 0.499689 0.919373
C4    C     C_R   0.500004 0.781998 0.499852 0.944374
C5    C     C_1   0.500357 0.065198 0.500188 -0.221732
C6    C     C_3   0.071356 0.343617 0.501527 -0.035426
C7    C     C_3   0.073857 0.587542 0.336944 -0.004373
C8    C     C_3   0.925890 0.345745 0.521189 0.006074
C9    C     C_3   0.928710 0.573492 0.329133 -0.019959
C10   C     C_1   0.500237 0.934781 0.499780 -0.207749
C11   C     C_3   0.071298 0.595358 0.651880 -0.434535
C12   C     C_3   0.928853 0.611744 0.640182 -0.455833
C13   C     C_3   0.121210 0.508444 0.498740 -0.009902
C14   C     C_3   0.878698 0.510831 0.498336 -0.006786
H1    H     H_    0.092489 0.295620 0.377457 0.110596
H2    H     H_    0.110794 0.524916 0.228254 0.128593
H3    H     H_    0.886127 0.277813 0.418364 0.101290
H4    H     H_    0.907050 0.486442 0.234438 0.119999
H5    H     H_    0.095098 0.534717 0.767738 0.185378
H6    H     H_    0.115551 0.707983 0.661662 0.175687
H7    H     H_    0.886569 0.581701 0.761248 0.194922
H8    H     H_    0.904065 0.730994 0.617726 0.166576
N1    N     N_1   0.500000 0.500030 0.073640 -0.052696
N2    N     N_1   0.500000 0.500030 0.926360 -0.050136
O1    O     O_R   0.500000 0.285340 0.636850 -0.604261
O2    O     O_R   0.500000 0.285340 0.363150 -0.622473
O3    O     O_R   0.314790 0.499970 0.636880 -0.624205
O4    O     O_R   0.314790 0.499970 0.363120 -0.636903
O5    O     O_R   0.685210 0.499970 0.636880 -0.617815
O6    O     O_R   0.685210 0.499970 0.363120 -0.625786
O7    O     O_R   0.500000 0.714650 0.636900 -0.626888
O8    O     O_R   0.500000 0.714650 0.363100 -0.609011
Zn1   Zn    Zn3+2 0.500000 0.499990 0.682780 0.970171
Zn2   Zn    Zn3+2 0.500000 0.499990 0.317220 0.965498
N3    N     N_2   0.135385 0.252363 0.625520 -0.267580
H9    H     H_    0.119326 0.274873 0.748299 0.236193
C15   C     C_3   0.158129 0.097126 0.584560 -0.796101
H10   H     H_    0.217592 0.089810 0.472259 0.238461
H11   H     H_    0.068254 0.038499 0.561771 0.233633
H12   H     H_    0.208141 0.040940 0.687685 0.237552
N4    N     N_2   0.120066 0.741849 0.330475 -0.285856
H13   H     H_    0.080482 0.820531 0.406810 0.224230
C16   C     C_3   0.176950 0.796936 0.179785 -0.750948
H14   H     H_    0.103707 0.831739 0.090895 0.230898
H15   H     H_    0.238202 0.710500 0.123188 0.251462
H16   H     H_    0.236081 0.896035 0.208494 0.231711
N5    N     N_2   0.882269 0.284466 0.678942 -0.265381
H17   H     H_    0.916598 0.327449 0.787822 0.225714
C17   C     C_3   0.827685 0.135794 0.686033 -0.773235
H18   H     H_    0.747568 0.136591 0.773712 0.248473
H19   H     H_    0.897917 0.054303 0.732184 0.227482
H20   H     H_    0.791890 0.098983 0.563969 0.222584
N6    N     N_2   0.865674 0.712332 0.280853 -0.272172
H21   H     H_    0.880039 0.808502 0.348179 0.218135
C18   C     C_3   0.834412 0.731038 0.108234 -0.744660
H22   H     H_    0.919173 0.718870 0.030128 0.221914
H23   H     H_    0.793009 0.843669 0.087568 0.228014
H24   H     H_    0.764418 0.645275 0.071002 0.252328

loop_
_geom_bond_atom_site_label_1
_geom_bond_atom_site_label_2
_ccdc_geom_bond_type
C3    O6    A    
C2    O4    A    
C9    C14   S    
O7    Zn1   S    
C15   H10   S    
N2    Zn1   S    
C12   H8    S    
C16   H15   S    
N4    H13   S    
C8    H3    S    
C7    C13   S    
N1    N2    T    
C17   H20   S    
N1    Zn2   S    
C18   H22   S    
C18   H23   S    
C8    N5    S    
O4    Zn2   S    
C5    C10   T    
N5    C17   S    
N6    H21   S    
O3    Zn1   S    
C6    C13   S    
C1    O1    A    
N4    C16   S    
C11   H5    S    
C4    O8    A    
C3    C14   S    
C16   H14   S    
C1    C5    S    
C6    C8    S    
C7    H2    S    
N3    C15   S    
C12   C14   S    
C15   H12   S    
C7    C9    S    
N6    C18   S    
C2    O3    A    
C1    O2    A    
C16   H16   S    
C11   H6    S    
C4    O7    A    
C9    N6    S    
O6    Zn2   S    
C4    C10   S    
C11   C12   S    
O5    Zn1   S    
C9    H4    S    
C11   C13   S    
C6    N3    S    
C15   H11   S    
C17   H18   S    
C18   H24   S    
C3    O5    A    
C2    C13   S    
C8    C14   S    
C6    H1    S    
C12   H7    S    
O2    Zn2   S    
N5    H17   S    
C7    N4    S    
O1    Zn1   S    
C17   H19   S    
N3    H9    S    
O8    Zn2   S    
