data_mof_unit_47156.cif
_audit_creation_date              2012-12-11T15:35:26-0500
_audit_creation_method            fapswitch 2.2
_symmetry_space_group_name_H-M    P1
_symmetry_Int_Tables_number       1
_space_group_crystal_system       triclinic
_cell_length_a                    17.652682
_cell_length_b                    24.621333
_cell_length_c                    14.823765
_cell_angle_alpha                 90.178555
_cell_angle_beta                  124.772867
_cell_angle_gamma                 90.116959
_cell_volume                      5292.23263618

loop_
_atom_site_label
_atom_site_type_symbol
_atom_type_description
_atom_site_fract_x
_atom_site_fract_y
_atom_site_fract_z
_atom_type_partial_charge
C1    C     C_R   0.315058 0.128310 0.909023 -0.104434
C2    C     C_R   0.581447 0.140643 0.909206 -0.096475
C3    C     C_R   0.259134 0.546297 0.296533 -0.003819
C4    C     C_3   0.508719 0.823275 0.199199 -0.354988
C5    C     C_3   0.474016 0.818861 0.272656 -0.835585
C6    C     C_3   0.472796 0.168189 0.201115 -0.483002
C7    C     C_3   0.472505 0.229844 0.188634 -0.631809
C8    C     C_3   0.008709 0.323275 0.199197 -0.354974
C9    C     C_3   0.974008 0.318864 0.272656 -0.835607
C10   C     C_3   0.972794 0.668191 0.201111 -0.483003
C11   C     C_3   0.972507 0.729846 0.188621 -0.631817
C12   C     C_3   0.240341 0.902014 0.637157 -0.396470
C13   C     C_R   0.062804 0.350071 0.909814 -0.147022
C14   C     C_3   0.329527 0.884634 0.653492 -0.845199
C15   C     C_3   0.248648 0.096223 0.642598 -0.353216
C16   C     C_3   0.285433 0.084801 0.572232 -0.801997
C17   C     C_3   0.740368 0.402008 0.637163 -0.396506
C18   C     C_3   0.829566 0.384604 0.653560 -0.845238
C19   C     C_3   0.748657 0.596232 0.642610 -0.353255
C20   C     C_3   0.785442 0.584833 0.572237 -0.801916
C21   C     C_R   0.081455 0.640639 0.909206 -0.096461
C22   C     C_R   0.550388 0.999685 0.726496 0.057257
C23   C     C_R   0.050390 0.499686 0.726498 0.057256
C24   C     C_R   0.809895 0.001098 0.353832 0.069598
C25   C     C_R   0.309905 0.501096 0.353816 0.069671
C26   C     C_R   0.661818 0.159027 0.001106 0.131067
C27   C     C_R   0.628465 0.822518 0.001372 0.174208
C28   C     C_R   0.161833 0.659018 0.001107 0.131052
C29   C     C_R   0.344007 0.851608 0.907389 -0.149502
C30   C     C_R   0.128476 0.322522 0.001374 0.174211
C31   C     C_3   0.047472 0.943634 0.569472 -0.517188
C32   C     C_3   0.049299 0.042284 0.605371 -0.467791
C33   C     C_3   0.547488 0.443619 0.569385 -0.517297
C34   C     C_3   0.549313 0.542258 0.605371 -0.467768
C35   C     C_3   0.945852 0.941505 0.474543 0.268348
C36   C     C_3   0.943836 0.034836 0.540382 0.319873
C37   C     C_3   0.445863 0.441498 0.474472 0.268357
C38   C     C_3   0.443850 0.534809 0.540380 0.319865
C39   C     C_3   0.061354 0.010752 0.449273 -0.481502
C40   C     C_R   0.815056 0.628306 0.909024 -0.104428
C41   C     C_3   0.561363 0.510772 0.449244 -0.481475
C42   C     C_3   0.090513 0.998910 0.567396 0.144972
C43   C     C_3   0.590527 0.498904 0.567359 0.144966
C44   C     C_3   0.910926 0.001281 0.432861 -0.155234
C45   C     C_3   0.410937 0.501278 0.432836 -0.155214
C46   C     C_R   0.438868 0.849444 0.091074 0.190065
C47   C     C_R   0.415880 0.138205 0.092987 0.214742
C48   C     C_R   0.938861 0.349446 0.091074 0.190072
C49   C     C_R   0.915879 0.638205 0.092986 0.214730
C50   C     C_3   0.958162 0.024473 0.375887 0.854356
C51   C     C_R   0.843994 0.351613 0.907388 -0.149499
C52   C     C_3   0.458170 0.524493 0.375874 0.854338
C53   C     C_R   0.322480 0.727606 0.959805 0.524963
C54   C     C_R   0.260190 0.239608 0.935586 0.496960
C55   C     C_R   0.822455 0.227616 0.959793 0.524967
C56   C     C_R   0.760167 0.739600 0.935568 0.496964
C57   C     C_R   0.768481 0.187694 0.960803 -0.273266
C58   C     C_R   0.709216 0.780929 0.936071 -0.281420
C59   C     C_R   0.268506 0.687683 0.960814 -0.273243
C60   C     C_R   0.209243 0.280938 0.936091 -0.281415
C61   C     C_R   0.715793 0.200197 0.000977 -0.103451
C62   C     C_R   0.675194 0.136624 0.093322 -0.001344
C63   C     C_R   0.672998 0.776144 0.998096 -0.091328
C64   C     C_R   0.215811 0.700187 0.000980 -0.103454
C65   C     C_R   0.173011 0.276150 0.998101 -0.091347
C66   C     C_R   0.713513 0.251786 0.038314 0.516796
C67   C     C_R   0.684783 0.729621 0.058679 0.540555
C68   C     C_R   0.213526 0.751779 0.038309 0.516789
C69   C     C_R   0.184780 0.229624 0.058667 0.540545
C70   C     C_R   0.266597 0.791476 0.036375 -0.315993
C71   C     C_R   0.234795 0.187370 0.056789 -0.290173
C72   C     C_R   0.766585 0.291484 0.036381 -0.316005
C73   C     C_R   0.655338 0.852430 0.092961 -0.046666
C74   C     C_R   0.734801 0.687368 0.056803 -0.290156
C75   C     C_R   0.321420 0.778838 0.999250 -0.100968
C76   C     C_R   0.272344 0.192913 0.996249 -0.094323
C77   C     C_R   0.821402 0.278846 0.999248 -0.100966
C78   C     C_R   0.772337 0.692908 0.996248 -0.094324
C79   C     C_R   0.604448 0.950028 0.628189 -0.125413
C80   C     C_R   0.608914 0.048296 0.632043 -0.137996
C81   C     C_R   0.104451 0.450029 0.628192 -0.125415
C82   C     C_R   0.108914 0.548297 0.632043 -0.137996
C83   C     C_R   0.605694 0.950073 0.535808 -0.153193
C84   C     C_R   0.175203 0.636619 0.093322 -0.001329
C85   C     C_R   0.610004 0.048430 0.539442 -0.119678
C86   C     C_R   0.105696 0.450074 0.535810 -0.153189
C87   C     C_R   0.110004 0.548430 0.539441 -0.119659
C88   C     C_R   0.598186 0.999405 0.484264 0.114744
C89   C     C_R   0.098186 0.499406 0.484264 0.114752
C90   C     C_R   0.547781 0.044583 0.304678 -0.129104
C91   C     C_R   0.547306 0.955099 0.303697 -0.142594
C92   C     C_R   0.047780 0.544583 0.304677 -0.129094
C93   C     C_R   0.047307 0.455099 0.303697 -0.142591
C94   C     C_R   0.594534 0.999262 0.668002 0.124352
C95   C     C_R   0.155343 0.352432 0.092963 -0.046627
C96   C     C_R   0.094536 0.499263 0.668004 0.124353
C97   C     C_R   0.244920 0.954130 0.696016 0.174536
C98   C     C_R   0.244666 0.045466 0.697106 0.108705
C99   C     C_R   0.744934 0.454128 0.696005 0.174560
C100  C     C_R   0.744676 0.545463 0.697093 0.108705
C101  C     C_R   0.328805 0.151142 0.001743 0.098478
C102  C     C_R   0.372948 0.821687 0.998650 0.128476
C103  C     C_R   0.828803 0.651139 0.001744 0.098483
C104  C     C_R   0.872931 0.321694 0.998649 0.128478
C105  C     C_R   0.563107 0.999737 0.368043 0.056576
C106  C     C_R   0.562796 0.850069 0.909813 -0.147007
C107  C     C_R   0.063106 0.499737 0.368043 0.056574
C108  C     C_R   0.192808 0.999468 0.640863 0.022910
C109  C     C_R   0.692826 0.499465 0.640833 0.022905
C110  C     C_R   0.516133 0.044885 0.747711 -0.120831
C111  C     C_R   0.521313 0.954622 0.754655 -0.131629
C112  C     C_R   0.016131 0.544885 0.747708 -0.120860
C113  C     C_R   0.021317 0.454623 0.754659 -0.131620
C114  C     C_R   0.756878 0.955161 0.300087 -0.021218
C115  C     C_R   0.759128 0.046297 0.296538 -0.003811
C116  C     C_R   0.256883 0.455160 0.300079 -0.021259
Cl1   Cl    Cl    0.932836 0.893944 0.372846 -0.622753
Cl2   Cl    Cl    0.314315 0.250430 0.867053 -0.632574
Cl3   Cl    Cl    0.890268 0.212774 0.910367 -0.581488
Cl4   Cl    Cl    0.814279 0.750422 0.867019 -0.632586
Cl5   Cl    Cl    0.643400 0.268202 0.084122 -0.622276
Cl6   Cl    Cl    0.637957 0.722879 0.135799 -0.627811
Cl7   Cl    Cl    0.143408 0.768195 0.084110 -0.622295
Cl8   Cl    Cl    0.137936 0.222879 0.135766 -0.627808
Cl9   Cl    Cl    0.890903 0.098999 0.528642 -0.603249
Cl10  Cl    Cl    0.432818 0.393960 0.372726 -0.622734
Cl11  Cl    Cl    0.390913 0.598965 0.528677 -0.603221
Cl12  Cl    Cl    0.909524 0.998135 0.239787 -0.523341
Cl13  Cl    Cl    0.947721 0.097038 0.357440 -0.613982
Cl14  Cl    Cl    0.409524 0.498183 0.239754 -0.523337
Cl15  Cl    Cl    0.447730 0.597061 0.357480 -0.613993
Cl16  Cl    Cl    0.390303 0.712762 0.910393 -0.581477
H1    H     H_    0.256545 0.133866 0.825360 0.136155
H2    H     H_    0.928495 0.010496 0.591408 0.097847
H3    H     H_    0.407468 0.423678 0.506352 0.086344
H4    H     H_    0.428511 0.510454 0.591390 0.097841
H5    H     H_    0.076415 0.974451 0.417246 0.223672
H6    H     H_    0.102305 0.044372 0.447771 0.204641
H7    H     H_    0.576422 0.474481 0.417190 0.223673
H8    H     H_    0.602310 0.544399 0.447760 0.204632
H9    H     H_    0.767706 0.147192 0.931276 0.191074
H10   H     H_    0.701215 0.817950 0.891901 0.186294
H11   H     H_    0.267736 0.647181 0.931294 0.191081
H12   H     H_    0.297945 0.838277 0.823846 0.144675
H13   H     H_    0.201252 0.317962 0.891934 0.186302
H14   H     H_    0.265557 0.832193 0.063894 0.192772
H15   H     H_    0.245925 0.150855 0.103506 0.185759
H16   H     H_    0.765550 0.332199 0.063906 0.192774
H17   H     H_    0.745943 0.650857 0.103533 0.185756
H18   H     H_    0.600592 0.911264 0.659362 0.123992
H19   H     H_    0.609169 0.086944 0.667048 0.119753
H20   H     H_    0.100596 0.411265 0.659365 0.123989
H21   H     H_    0.109169 0.586945 0.667047 0.119752
H22   H     H_    0.602671 0.911271 0.499668 0.122528
H23   H     H_    0.756539 0.633859 0.825363 0.136158
H24   H     H_    0.610734 0.087268 0.506256 0.126616
H25   H     H_    0.102674 0.411271 0.499671 0.122525
H26   H     H_    0.110732 0.587269 0.506255 0.126614
H27   H     H_    0.569568 0.084998 0.336106 0.096772
H28   H     H_    0.568761 0.914551 0.333279 0.114085
H29   H     H_    0.069566 0.584999 0.336105 0.096771
H30   H     H_    0.068762 0.414551 0.333279 0.114084
H31   H     H_    0.519119 0.086202 0.727126 0.090699
H32   H     H_    0.533113 0.912603 0.746445 0.104898
H33   H     H_    0.019111 0.586202 0.727116 0.090716
H34   H     H_    0.797920 0.338286 0.823843 0.144689
H35   H     H_    0.033120 0.412604 0.746452 0.104892
H36   H     H_    0.768754 0.913614 0.327732 0.128573
H37   H     H_    0.775699 0.088513 0.317164 0.187104
H38   H     H_    0.268762 0.413612 0.327721 0.128544
H39   H     H_    0.275706 0.588512 0.317168 0.187098
H40   H     H_    0.726903 0.147145 0.177964 0.143536
H41   H     H_    0.701709 0.840817 0.178123 0.143270
H42   H     H_    0.226914 0.647138 0.177964 0.143536
H43   H     H_    0.201715 0.340819 0.178124 0.143252
H44   H     H_    0.523645 0.835297 0.826072 0.125531
H45   H     H_    0.055077 0.939463 0.649088 0.159392
H46   H     H_    0.546279 0.156589 0.826972 0.111696
H47   H     H_    0.023659 0.335299 0.826074 0.125543
H48   H     H_    0.046290 0.656586 0.826973 0.111694
H49   H     H_    0.078485 0.907092 0.562709 0.220052
H50   H     H_    0.065036 0.083853 0.592255 0.236866
H51   H     H_    0.578488 0.407092 0.562553 0.220086
H52   H     H_    0.565051 0.583834 0.592289 0.236863
H53   H     H_    0.439973 0.856965 0.271608 0.250888
H54   H     H_    0.424143 0.784774 0.244977 0.284509
H55   H     H_    0.532971 0.810544 0.358328 0.261586
H56   H     H_    0.080079 0.038259 0.694733 0.170692
H57   H     H_    0.524002 0.781799 0.184317 0.265824
H58   H     H_    0.574595 0.846245 0.241086 0.174370
H59   H     H_    0.482353 0.240596 0.123217 0.297242
H60   H     H_    0.407483 0.247737 0.169936 0.241827
H61   H     H_    0.529876 0.248125 0.267166 0.252215
H62   H     H_    0.448613 0.157666 0.253565 0.202790
H63   H     H_    0.545682 0.155878 0.242149 0.207204
H64   H     H_    0.939969 0.356969 0.271610 0.250891
H65   H     H_    0.924131 0.284778 0.244977 0.284508
H66   H     H_    0.032963 0.310545 0.358327 0.261584
H67   H     H_    0.555112 0.439415 0.649006 0.159415
H68   H     H_    0.023986 0.281797 0.184311 0.265817
H69   H     H_    0.074588 0.346241 0.241084 0.174368
H70   H     H_    0.982362 0.740592 0.123207 0.297234
H71   H     H_    0.907484 0.747741 0.169911 0.241829
H72   H     H_    0.029873 0.748128 0.267152 0.252216
H73   H     H_    0.948608 0.657673 0.253561 0.202796
H74   H     H_    0.045680 0.655878 0.242149 0.207203
H75   H     H_    0.351956 0.916006 0.619914 0.258013
H76   H     H_    0.382229 0.876485 0.740815 0.258231
H77   H     H_    0.317746 0.846324 0.607367 0.266997
H78   H     H_    0.580094 0.538212 0.694728 0.170685
H79   H     H_    0.213229 0.868191 0.659975 0.190529
H80   H     H_    0.191887 0.907872 0.547022 0.221626
H81   H     H_    0.313424 0.043058 0.584436 0.252244
H82   H     H_    0.229975 0.089948 0.483792 0.264628
H83   H     H_    0.341281 0.114103 0.593326 0.243616
H84   H     H_    0.180277 0.115807 0.591498 0.213387
H85   H     H_    0.295838 0.126134 0.706724 0.210101
H86   H     H_    0.852023 0.415957 0.619979 0.258014
H87   H     H_    0.882243 0.376465 0.740893 0.258259
H88   H     H_    0.817788 0.346284 0.607466 0.267002
H89   H     H_    0.907444 0.923698 0.506419 0.086357
H90   H     H_    0.713214 0.368194 0.659950 0.190537
H91   H     H_    0.691956 0.407872 0.547024 0.221612
H92   H     H_    0.813481 0.543098 0.584461 0.252231
H93   H     H_    0.729970 0.589964 0.483793 0.264618
H94   H     H_    0.841258 0.614159 0.593312 0.243620
H95   H     H_    0.680288 0.615818 0.591527 0.213402
H96   H     H_    0.795844 0.626135 0.706750 0.210115
N1    N     N_R   0.392140 0.102630 0.941800 -0.058482
N2    N     N_R   0.525160 0.972040 0.206160 -0.046187
N3    N     N_R   0.025160 0.527960 0.206160 -0.051641
N4    N     N_R   0.025160 0.472040 0.206160 -0.046187
N5    N     N_R   0.317870 0.971120 0.792790 -0.062407
N6    N     N_R   0.317870 0.028880 0.792790 -0.075397
N7    N     N_R   0.817870 0.471120 0.792790 -0.062410
N8    N     N_R   0.817870 0.528880 0.792790 -0.075411
N9    N     N_R   0.473480 0.027920 0.793480 -0.035119
N10   N     N_R   0.473480 0.972080 0.793480 -0.039223
N11   N     N_R   0.973480 0.527920 0.793480 -0.035125
N12   N     N_R   0.392140 0.897370 0.941800 -0.062913
N13   N     N_R   0.973480 0.472080 0.793480 -0.039212
N14   N     N_R   0.681610 0.971120 0.207570 -0.047905
N15   N     N_R   0.681610 0.028880 0.207570 -0.062861
N16   N     N_R   0.181610 0.471120 0.207570 -0.047905
N17   N     N_R   0.181610 0.528880 0.207570 -0.062863
N18   N     N_R   0.605410 0.102620 0.056870 -0.060994
N19   N     N_R   0.605410 0.897380 0.056870 -0.052323
N20   N     N_R   0.105410 0.602620 0.056870 -0.060994
N21   N     N_R   0.105410 0.397380 0.056870 -0.052326
N22   N     N_R   0.549680 0.896430 0.944180 -0.048226
N23   N     N_R   0.892140 0.602630 0.941800 -0.058483
N24   N     N_R   0.549680 0.103570 0.944180 -0.044160
N25   N     N_R   0.049680 0.396430 0.944180 -0.048228
N26   N     N_R   0.049680 0.603570 0.944180 -0.044157
N27   N     N_R   0.892140 0.397370 0.941800 -0.062916
N28   N     N_R   0.450890 0.896450 0.057150 -0.075971
N29   N     N_R   0.450890 0.103550 0.057150 -0.072715
N30   N     N_R   0.950890 0.396450 0.057150 -0.075973
N31   N     N_R   0.950890 0.603550 0.057150 -0.072713
N32   N     N_R   0.525160 0.027960 0.206160 -0.051641
Ni1   Ni    Ni4+2 0.433410 0.064680 0.868830 0.237408
Ni2   Ni    Ni4+2 0.433410 0.935320 0.868830 0.217821
Ni3   Ni    Ni4+2 0.933410 0.564680 0.868830 0.237411
Ni4   Ni    Ni4+2 0.933410 0.435320 0.868830 0.217829
Ni5   Ni    Ni4+2 0.565650 0.934380 0.131170 0.217265
Ni6   Ni    Ni4+2 0.565650 0.065620 0.131170 0.231605
Ni7   Ni    Ni4+2 0.065650 0.434380 0.131170 0.217265
Ni8   Ni    Ni4+2 0.065650 0.565620 0.131170 0.231609

loop_
_geom_bond_atom_site_label_1
_geom_bond_atom_site_label_2
_ccdc_geom_bond_type
C92   H29   S    
C80   H19   S    
C71   H15   S    
N28   Ni5   S    
C39   H5    S    
N21   N25   A    
N7    Ni4   S    
C47   C101  A    
C31   C42   S    
C14   H76   S    
C28   C84   A    
C41   C43   S    
C91   C105  A    
C19   C20   S    
N15   Ni6   S    
C5    H53   S    
C115  H37   S    
C51   N27   A    
N29   Ni6   S    
C95   N21   A    
C80   C85   A    
C116  N16   A    
C38   Cl11  S    
C53   C59   A    
C9    H64   S    
C20   H94   S    
C83   H22   S    
C54   C60   A    
N16   N17   A    
C24   C114  A    
C23   C112  A    
C46   C102  A    
C48   N30   A    
C59   C64   A    
C30   C95   A    
C31   H45   S    
N10   Ni2   S    
C64   C68   A    
C32   H50   S    
C8    H69   S    
C26   C61   S    
C35   H89   S    
C71   C76   A    
C55   C77   A    
C84   H42   S    
C62   N18   A    
N20   Ni8   S    
C33   H67   S    
C25   C45   S    
C82   C87   A    
C99   C109  A    
C58   C63   A    
C56   C78   A    
C23   C96   S    
N18   N24   A    
N14   Ni5   S    
C90   H27   S    
C69   C71   A    
C19   H95   S    
N22   Ni2   S    
C38   C45   S    
C95   H43   S    
N31   Ni8   S    
C34   H78   S    
N23   N31   A    
C21   N26   A    
C82   H21   S    
C61   C66   A    
N6    Ni1   S    
C66   C72   A    
C36   Cl9   S    
C41   H7    S    
C8    C9    S    
C22   C110  A    
N13   Ni4   S    
C33   H51   S    
C75   C102  S    
N7    N8    A    
C37   H3    S    
C40   H23   S    
C34   H52   S    
C2    H46   S    
C17   H90   S    
C38   H4    S    
C15   H85   S    
N5    N6    A    
C29   N12   A    
C81   C86   A    
N1    N29   A    
C83   C88   A    
N27   N30   A    
C59   H11   S    
C100  C109  A    
C114  H36   S    
C34   C38   S    
C14   H75   S    
C31   H49   S    
C73   H41   S    
C91   H28   S    
C22   C94   S    
N11   Ni3   S    
C53   C75   A    
C5    H54   S    
C1    H1    S    
N30   Ni7   S    
C68   Cl7   S    
C46   N28   A    
C6    H63   S    
C9    H65   S    
C18   H88   S    
C56   Cl4   S    
C39   C42   S    
C21   H48   S    
C35   Cl1   S    
N18   Ni6   S    
C63   C67   A    
C110  N9    A    
C111  N10   A    
C82   C96   A    
C6    C47   S    
C32   H56   S    
C91   N2    A    
N9    Ni1   S    
C33   C43   S    
C80   C94   A    
C4    H58   S    
C13   C30   A    
C3    C25   A    
C12   H80   S    
C79   C94   A    
C2    C26   A    
C25   C116  A    
C67   C74   A    
C81   C96   A    
C15   H84   S    
C4    C46   S    
C92   N3    A    
C51   C104  A    
C72   H16   S    
C29   H12   S    
N20   N26   A    
C33   C37   S    
C20   H93   S    
N21   Ni7   S    
C85   H24   S    
C98   C108  A    
C16   H83   S    
C19   H96   S    
C41   H8    S    
C49   C103  A    
C72   C77   A    
C17   H91   S    
C50   Cl13  S    
C2    N24   A    
C23   C113  A    
C99   N7    A    
C60   C65   A    
C58   H10   S    
C92   C107  A    
C98   N6    A    
C110  H31   S    
C112  N11   A    
C97   N5    A    
C89   C107  S    
C17   C18   S    
C20   H92   S    
C66   Cl5   S    
C116  H38   S    
N11   N13   A    
C53   Cl16  S    
C11   H71   S    
C16   H82   S    
C35   C44   S    
C17   C99   S    
C12   C97   S    
C27   C63   S    
N24   Ni1   S    
C24   C115  A    
C79   H18   S    
C70   H14   S    
C28   C64   S    
N25   Ni4   S    
C114  N14   A    
C21   C28   A    
C12   C14   S    
N26   Ni3   S    
C1    C101  A    
C113  N13   A    
C55   C57   A    
C24   C44   S    
C18   H87   S    
C7    H60   S    
C100  N8    A    
N17   Ni8   S    
C7    H61   S    
C60   H13   S    
C5    H55   S    
C15   C98   S    
C37   C45   S    
C18   H86   S    
C67   Cl6   S    
C32   C36   S    
C6    H62   S    
N3    N4    A    
C62   H40   S    
C9    H66   S    
C93   N4    A    
C74   H17   S    
C37   Cl10  S    
C85   C88   A    
C44   C50   S    
C76   C101  S    
C40   N23   A    
C13   N25   A    
C106  H44   S    
C41   C52   S    
C14   H77   S    
N14   N15   A    
C78   C103  S    
C54   C76   A    
C52   Cl15  S    
C4    H57   S    
C10   H73   S    
C111  H32   S    
C12   H79   S    
N12   Ni2   S    
C4    C5    S    
C51   H34   S    
C86   C89   A    
C36   H2    S    
C113  H35   S    
C19   C100  S    
C87   H26   S    
C57   C61   A    
C6    C7    S    
C73   N19   A    
N1    Ni1   S    
C81   H20   S    
C43   C109  S    
C45   C52   S    
N4    Ni7   S    
C57   H9    S    
C84   N20   A    
N16   Ni7   S    
C52   Cl14  S    
C106  N22   A    
C54   Cl2   S    
C26   C62   A    
C7    H59   S    
C27   C73   A    
C8    C48   S    
C93   C107  A    
C40   C103  A    
C79   C83   A    
C88   C105  S    
C49   N31   A    
C3    H39   S    
C115  N15   A    
C42   C108  S    
C93   H30   S    
C47   N29   A    
C8    H68   S    
C65   C69   A    
C112  H33   S    
C13   H47   S    
N12   N28   A    
C56   C58   A    
C29   C102  A    
C27   C106  A    
C31   C35   S    
C11   H72   S    
C10   H74   S    
C16   H81   S    
C86   H25   S    
N9    N10   A    
C39   H6    S    
C30   C65   S    
C36   C44   S    
C10   C11   S    
C69   Cl8   S    
C90   C105  A    
N2    N32   A    
N19   Ni5   S    
C97   C108  A    
C1    N1    A    
C55   Cl3   S    
C39   C50   S    
C50   Cl12  S    
N27   Ni4   S    
N8    Ni3   S    
C68   C70   A    
C22   C111  A    
C74   C78   A    
C70   C75   A    
C87   C89   A    
C32   C42   S    
C77   C104  S    
C3    N17   A    
C90   N32   A    
N3    Ni8   S    
C10   C49   S    
N32   Ni6   S    
C34   C43   S    
C11   H70   S    
C15   C16   S    
N19   N22   A    
N23   Ni3   S    
N5    Ni2   S    
N2    Ni5   S    
C48   C104  A    
